MODEL 1
REMARK VINA RESULT:      -8.7      0.000      0.000
REMARK  Name = Raloxifene
REMARK  9 active torsions:
REMARK  status: ('A' for Active; 'I' for Inactive)
REMARK    1  A    between atoms: O_1  and  C_2
REMARK    2  A    between atoms: C_5  and  C_8
REMARK    3  A    between atoms: C_9  and  C_10
REMARK    4  A    between atoms: C_10  and  C_12
REMARK    5  A    between atoms: C_15  and  O_16
REMARK    6  A    between atoms: O_16  and  C_17
REMARK    7  A    between atoms: C_17  and  C_18
REMARK    8  A    between atoms: C_18  and  N_19
REMARK    9  A    between atoms: C_31  and  O_32
REMARK                            x       y       z     vdW  Elec       q    Type
REMARK                         _______ _______ _______ _____ _____    ______ ____
ROOT
ATOM      1  C   UNL     1      -6.600   4.629 129.355  0.00  0.00    +0.000 A 
ATOM      2  C   UNL     1      -6.542   4.211 128.002  0.00  0.00    +0.000 A 
ATOM      3  C   UNL     1      -5.147   4.001 127.600  0.00  0.00    +0.000 A 
ATOM      4  C   UNL     1      -4.285   3.723 128.661  0.00  0.00    +0.000 A 
ATOM      5  S   UNL     1      -5.040   4.353 130.105  0.00  0.00    +0.000 S 
ATOM      6  C   UNL     1      -3.002   3.109 128.417  0.00  0.00    +0.000 A 
ATOM      7  C   UNL     1      -2.533   3.056 127.088  0.00  0.00    +0.000 A 
ATOM      8  C   UNL     1      -3.299   3.545 126.052  0.00  0.00    +0.000 A 
ATOM      9  C   UNL     1      -4.604   3.949 126.295  0.00  0.00    +0.000 A 
ENDROOT
BRANCH   1  13
ATOM     10  C   UNL     1     -10.416   5.586 131.238  0.00  0.00    +0.000 A 
ATOM     11  C   UNL     1      -9.384   6.483 131.437  0.00  0.00    +0.000 A 
ATOM     12  C   UNL     1      -8.068   6.209 130.923  0.00  0.00    +0.000 A 
ATOM     13  C   UNL     1      -7.797   5.040 130.182  0.00  0.00    +0.000 A 
ATOM     14  C   UNL     1      -8.836   4.126 130.185  0.00  0.00    +0.000 A 
ATOM     15  C   UNL     1     -10.124   4.396 130.639  0.00  0.00    +0.000 A 
BRANCH  10  16
ATOM     16  O   UNL     1     -11.697   5.742 131.658  0.00  0.00    +0.000 OA
ATOM     17  H   UNL     1     -12.213   4.941 131.496  0.00  0.00    +0.000 HD
ENDBRANCH  10  16
ENDBRANCH   1  13
BRANCH   2  18
ATOM     18  C   UNL     1      -7.625   3.893 126.993  0.00  0.00    +0.000 C 
ATOM     19  O   UNL     1      -8.271   4.830 126.470  0.00  0.00    +0.000 OA
BRANCH  18  20
ATOM     20  C   UNL     1      -7.975   2.561 126.424  0.00  0.00    +0.000 A 
ATOM     21  C   UNL     1      -8.688   2.442 125.231  0.00  0.00    +0.000 A 
ATOM     22  C   UNL     1      -9.293   1.214 124.888  0.00  0.00    +0.000 A 
ATOM     23  C   UNL     1      -9.174   0.081 125.709  0.00  0.00    +0.000 A 
ATOM     24  C   UNL     1      -8.435   0.193 126.893  0.00  0.00    +0.000 A 
ATOM     25  C   UNL     1      -7.831   1.416 127.247  0.00  0.00    +0.000 A 
BRANCH  23  26
ATOM     26  O   UNL     1      -9.922  -1.072 125.599  0.00  0.00    +0.000 OA
BRANCH  26  27
ATOM     27  C   UNL     1      -9.200  -2.307 125.505  0.00  0.00    +0.000 C 
BRANCH  27  28
ATOM     28  C   UNL     1      -9.192  -2.837 124.058  0.00  0.00    +0.000 C 
BRANCH  28  29
ATOM     29  N   UNL     1      -7.812  -3.011 123.559  0.00  0.00    +0.000 NA
ATOM     30  C   UNL     1      -7.283  -1.760 123.000  0.00  0.00    +0.000 C 
ATOM     31  C   UNL     1      -5.913  -2.012 122.363  0.00  0.00    +0.000 C 
ATOM     32  C   UNL     1      -4.928  -2.605 123.364  0.00  0.00    +0.000 C 
ATOM     33  C   UNL     1      -5.531  -3.823 124.045  0.00  0.00    +0.000 C 
ATOM     34  C   UNL     1      -6.910  -3.502 124.613  0.00  0.00    +0.000 C 
ENDBRANCH  28  29
ENDBRANCH  27  28
ENDBRANCH  26  27
ENDBRANCH  23  26
ENDBRANCH  18  20
ENDBRANCH   2  18
BRANCH   7  35
ATOM     35  O   UNL     1      -1.306   2.589 126.701  0.00  0.00    +0.000 OA
ATOM     36  H   UNL     1      -0.958   3.056 125.927  0.00  0.00    +0.000 HD
ENDBRANCH   7  35
TORSDOF 9
ENDMDL
MODEL 2
REMARK VINA RESULT:      -8.7      4.831      8.977
REMARK  Name = Raloxifene
REMARK  9 active torsions:
REMARK  status: ('A' for Active; 'I' for Inactive)
REMARK    1  A    between atoms: O_1  and  C_2
REMARK    2  A    between atoms: C_5  and  C_8
REMARK    3  A    between atoms: C_9  and  C_10
REMARK    4  A    between atoms: C_10  and  C_12
REMARK    5  A    between atoms: C_15  and  O_16
REMARK    6  A    between atoms: O_16  and  C_17
REMARK    7  A    between atoms: C_17  and  C_18
REMARK    8  A    between atoms: C_18  and  N_19
REMARK    9  A    between atoms: C_31  and  O_32
REMARK                            x       y       z     vdW  Elec       q    Type
REMARK                         _______ _______ _______ _____ _____    ______ ____
ROOT
ATOM      1  C   UNL     1      -6.573  -2.102 129.452  0.00  0.00    +0.000 A 
ATOM      2  C   UNL     1      -6.738  -1.665 130.790  0.00  0.00    +0.000 A 
ATOM      3  C   UNL     1      -5.520  -1.937 131.562  0.00  0.00    +0.000 A 
ATOM      4  C   UNL     1      -4.365  -2.029 130.786  0.00  0.00    +0.000 A 
ATOM      5  S   UNL     1      -4.875  -2.424 129.162  0.00  0.00    +0.000 S 
ATOM      6  C   UNL     1      -3.064  -1.891 131.396  0.00  0.00    +0.000 A 
ATOM      7  C   UNL     1      -2.981  -1.942 132.802  0.00  0.00    +0.000 A 
ATOM      8  C   UNL     1      -4.118  -2.082 133.569  0.00  0.00    +0.000 A 
ATOM      9  C   UNL     1      -5.365  -2.016 132.965  0.00  0.00    +0.000 A 
ENDROOT
BRANCH   1  13
ATOM     10  C   UNL     1      -9.247  -2.740 126.065  0.00  0.00    +0.000 A 
ATOM     11  C   UNL     1      -8.680  -1.485 126.180  0.00  0.00    +0.000 A 
ATOM     12  C   UNL     1      -7.850  -1.158 127.310  0.00  0.00    +0.000 A 
ATOM     13  C   UNL     1      -7.569  -2.107 128.314  0.00  0.00    +0.000 A 
ATOM     14  C   UNL     1      -8.315  -3.268 128.208  0.00  0.00    +0.000 A 
ATOM     15  C   UNL     1      -9.084  -3.614 127.100  0.00  0.00    +0.000 A 
BRANCH  10  16
ATOM     16  O   UNL     1     -10.028  -3.169 125.042  0.00  0.00    +0.000 OA
ATOM     17  H   UNL     1      -9.737  -2.785 124.204  0.00  0.00    +0.000 HD
ENDBRANCH  10  16
ENDBRANCH   1  13
BRANCH   2  18
ATOM     18  C   UNL     1      -7.871  -0.941 131.487  0.00  0.00    +0.000 C 
ATOM     19  O   UNL     1      -8.469  -1.503 132.433  0.00  0.00    +0.000 OA
BRANCH  18  20
ATOM     20  C   UNL     1      -8.325   0.460 131.267  0.00  0.00    +0.000 A 
ATOM     21  C   UNL     1      -9.393   1.002 131.983  0.00  0.00    +0.000 A 
ATOM     22  C   UNL     1     -10.016   2.187 131.535  0.00  0.00    +0.000 A 
ATOM     23  C   UNL     1      -9.569   2.866 130.390  0.00  0.00    +0.000 A 
ATOM     24  C   UNL     1      -8.479   2.337 129.688  0.00  0.00    +0.000 A 
ATOM     25  C   UNL     1      -7.853   1.153 130.123  0.00  0.00    +0.000 A 
BRANCH  23  26
ATOM     26  O   UNL     1     -10.251   3.869 129.734  0.00  0.00    +0.000 OA
BRANCH  26  27
ATOM     27  C   UNL     1     -11.008   4.776 130.546  0.00  0.00    +0.000 C 
BRANCH  27  28
ATOM     28  C   UNL     1     -10.187   6.034 130.887  0.00  0.00    +0.000 C 
BRANCH  28  29
ATOM     29  N   UNL     1     -10.715   7.224 130.190  0.00  0.00    +0.000 NA
ATOM     30  C   UNL     1     -10.419   7.178 128.752  0.00  0.00    +0.000 C 
ATOM     31  C   UNL     1     -10.850   8.490 128.089  0.00  0.00    +0.000 C 
ATOM     32  C   UNL     1     -12.331   8.775 128.317  0.00  0.00    +0.000 C 
ATOM     33  C   UNL     1     -12.666   8.688 129.798  0.00  0.00    +0.000 C 
ATOM     34  C   UNL     1     -12.165   7.375 130.392  0.00  0.00    +0.000 C 
ENDBRANCH  28  29
ENDBRANCH  27  28
ENDBRANCH  26  27
ENDBRANCH  23  26
ENDBRANCH  18  20
ENDBRANCH   2  18
BRANCH   7  35
ATOM     35  O   UNL     1      -1.820  -1.915 133.528  0.00  0.00    +0.000 OA
ATOM     36  H   UNL     1      -1.846  -1.268 134.247  0.00  0.00    +0.000 HD
ENDBRANCH   7  35
TORSDOF 9
ENDMDL
MODEL 3
REMARK VINA RESULT:      -8.6      4.889      7.509
REMARK  Name = Raloxifene
REMARK  9 active torsions:
REMARK  status: ('A' for Active; 'I' for Inactive)
REMARK    1  A    between atoms: O_1  and  C_2
REMARK    2  A    between atoms: C_5  and  C_8
REMARK    3  A    between atoms: C_9  and  C_10
REMARK    4  A    between atoms: C_10  and  C_12
REMARK    5  A    between atoms: C_15  and  O_16
REMARK    6  A    between atoms: O_16  and  C_17
REMARK    7  A    between atoms: C_17  and  C_18
REMARK    8  A    between atoms: C_18  and  N_19
REMARK    9  A    between atoms: C_31  and  O_32
REMARK                            x       y       z     vdW  Elec       q    Type
REMARK                         _______ _______ _______ _____ _____    ______ ____
ROOT
ATOM      1  C   UNL     1      -9.949   4.585 130.899  0.00  0.00    +0.000 A 
ATOM      2  C   UNL     1      -8.935   4.599 131.889  0.00  0.00    +0.000 A 
ATOM      3  C   UNL     1      -8.496   3.230 132.180  0.00  0.00    +0.000 A 
ATOM      4  C   UNL     1      -8.717   2.329 131.138  0.00  0.00    +0.000 A 
ATOM      5  S   UNL     1      -9.992   3.001 130.150  0.00  0.00    +0.000 S 
ATOM      6  C   UNL     1      -8.004   1.076 131.094  0.00  0.00    +0.000 A 
ATOM      7  C   UNL     1      -7.304   0.669 132.248  0.00  0.00    +0.000 A 
ATOM      8  C   UNL     1      -7.275   1.467 133.371  0.00  0.00    +0.000 A 
ATOM      9  C   UNL     1      -7.805   2.748 133.316  0.00  0.00    +0.000 A 
ENDROOT
BRANCH   1  13
ATOM     10  C   UNL     1     -11.708   8.222 129.255  0.00  0.00    +0.000 A 
ATOM     11  C   UNL     1     -12.464   7.532 130.183  0.00  0.00    +0.000 A 
ATOM     12  C   UNL     1     -12.001   6.278 130.718  0.00  0.00    +0.000 A 
ATOM     13  C   UNL     1     -10.758   5.732 130.336  0.00  0.00    +0.000 A 
ATOM     14  C   UNL     1     -10.158   6.396 129.281  0.00  0.00    +0.000 A 
ATOM     15  C   UNL     1     -10.572   7.630 128.787  0.00  0.00    +0.000 A 
BRANCH  10  16
ATOM     16  O   UNL     1     -12.031   9.415 128.696  0.00  0.00    +0.000 OA
ATOM     17  H   UNL     1     -12.963   9.434 128.441  0.00  0.00    +0.000 HD
ENDBRANCH  10  16
ENDBRANCH   1  13
BRANCH   2  18
ATOM     18  C   UNL     1      -8.226   5.735 132.596  0.00  0.00    +0.000 C 
ATOM     19  O   UNL     1      -8.723   6.215 133.640  0.00  0.00    +0.000 OA
BRANCH  18  20
ATOM     20  C   UNL     1      -6.895   6.319 132.268  0.00  0.00    +0.000 A 
ATOM     21  C   UNL     1      -6.676   7.012 131.077  0.00  0.00    +0.000 A 
ATOM     22  C   UNL     1      -5.358   7.258 130.635  0.00  0.00    +0.000 A 
ATOM     23  C   UNL     1      -4.242   6.848 131.383  0.00  0.00    +0.000 A 
ATOM     24  C   UNL     1      -4.463   6.178 132.592  0.00  0.00    +0.000 A 
ATOM     25  C   UNL     1      -5.774   5.922 133.040  0.00  0.00    +0.000 A 
BRANCH  23  26
ATOM     26  O   UNL     1      -2.941   6.813 130.928  0.00  0.00    +0.000 OA
BRANCH  26  27
ATOM     27  C   UNL     1      -2.594   5.745 130.035  0.00  0.00    +0.000 C 
BRANCH  27  28
ATOM     28  C   UNL     1      -2.299   6.279 128.621  0.00  0.00    +0.000 C 
BRANCH  28  29
ATOM     29  N   UNL     1      -2.838   5.375 127.584  0.00  0.00    +0.000 NA
ATOM     30  C   UNL     1      -2.330   4.006 127.749  0.00  0.00    +0.000 C 
ATOM     31  C   UNL     1      -2.790   3.134 126.578  0.00  0.00    +0.000 C 
ATOM     32  C   UNL     1      -4.310   3.124 126.448  0.00  0.00    +0.000 C 
ATOM     33  C   UNL     1      -4.850   4.545 126.415  0.00  0.00    +0.000 C 
ATOM     34  C   UNL     1      -4.310   5.359 127.586  0.00  0.00    +0.000 C 
ENDBRANCH  28  29
ENDBRANCH  27  28
ENDBRANCH  26  27
ENDBRANCH  23  26
ENDBRANCH  18  20
ENDBRANCH   2  18
BRANCH   7  35
ATOM     35  O   UNL     1      -6.654  -0.527 132.398  0.00  0.00    +0.000 OA
ATOM     36  H   UNL     1      -6.987  -1.039 133.149  0.00  0.00    +0.000 HD
ENDBRANCH   7  35
TORSDOF 9
ENDMDL
MODEL 4
REMARK VINA RESULT:      -8.6      4.700      9.011
REMARK  Name = Raloxifene
REMARK  9 active torsions:
REMARK  status: ('A' for Active; 'I' for Inactive)
REMARK    1  A    between atoms: O_1  and  C_2
REMARK    2  A    between atoms: C_5  and  C_8
REMARK    3  A    between atoms: C_9  and  C_10
REMARK    4  A    between atoms: C_10  and  C_12
REMARK    5  A    between atoms: C_15  and  O_16
REMARK    6  A    between atoms: O_16  and  C_17
REMARK    7  A    between atoms: C_17  and  C_18
REMARK    8  A    between atoms: C_18  and  N_19
REMARK    9  A    between atoms: C_31  and  O_32
REMARK                            x       y       z     vdW  Elec       q    Type
REMARK                         _______ _______ _______ _____ _____    ______ ____
ROOT
ATOM      1  C   UNL     1      -7.424  -3.049 128.881  0.00  0.00    +0.000 A 
ATOM      2  C   UNL     1      -7.104  -2.049 127.929  0.00  0.00    +0.000 A 
ATOM      3  C   UNL     1      -7.710  -2.375 126.633  0.00  0.00    +0.000 A 
ATOM      4  C   UNL     1      -8.831  -3.200 126.723  0.00  0.00    +0.000 A 
ATOM      5  S   UNL     1      -8.716  -4.048 128.246  0.00  0.00    +0.000 S 
ATOM      6  C   UNL     1      -9.762  -3.287 125.624  0.00  0.00    +0.000 A 
ATOM      7  C   UNL     1      -9.374  -2.749 124.380  0.00  0.00    +0.000 A 
ATOM      8  C   UNL     1      -8.152  -2.126 124.234  0.00  0.00    +0.000 A 
ATOM      9  C   UNL     1      -7.367  -1.887 125.351  0.00  0.00    +0.000 A 
ENDROOT
BRANCH   1  13
ATOM     10  C   UNL     1      -6.127  -4.110 132.908  0.00  0.00    +0.000 A 
ATOM     11  C   UNL     1      -6.968  -3.019 132.794  0.00  0.00    +0.000 A 
ATOM     12  C   UNL     1      -7.381  -2.545 131.499  0.00  0.00    +0.000 A 
ATOM     13  C   UNL     1      -6.966  -3.190 130.315  0.00  0.00    +0.000 A 
ATOM     14  C   UNL     1      -5.994  -4.155 130.517  0.00  0.00    +0.000 A 
ATOM     15  C   UNL     1      -5.621  -4.651 131.763  0.00  0.00    +0.000 A 
BRANCH  10  16
ATOM     16  O   UNL     1      -5.686  -4.655 134.069  0.00  0.00    +0.000 OA
ATOM     17  H   UNL     1      -6.338  -4.538 134.774  0.00  0.00    +0.000 HD
ENDBRANCH  10  16
ENDBRANCH   1  13
BRANCH   2  18
ATOM     18  C   UNL     1      -6.346  -0.743 128.048  0.00  0.00    +0.000 C 
ATOM     19  O   UNL     1      -5.171  -0.674 127.623  0.00  0.00    +0.000 OA
BRANCH  18  20
ATOM     20  C   UNL     1      -6.867   0.570 128.523  0.00  0.00    +0.000 A 
ATOM     21  C   UNL     1      -7.884   0.649 129.474  0.00  0.00    +0.000 A 
ATOM     22  C   UNL     1      -8.585   1.861 129.660  0.00  0.00    +0.000 A 
ATOM     23  C   UNL     1      -8.267   3.015 128.927  0.00  0.00    +0.000 A 
ATOM     24  C   UNL     1      -7.227   2.942 127.991  0.00  0.00    +0.000 A 
ATOM     25  C   UNL     1      -6.524   1.737 127.795  0.00  0.00    +0.000 A 
BRANCH  23  26
ATOM     26  O   UNL     1      -9.039   4.154 128.848  0.00  0.00    +0.000 OA
BRANCH  26  27
ATOM     27  C   UNL     1      -9.339   4.822 130.081  0.00  0.00    +0.000 C 
BRANCH  27  28
ATOM     28  C   UNL     1     -10.847   5.105 130.207  0.00  0.00    +0.000 C 
BRANCH  28  29
ATOM     29  N   UNL     1     -11.282   6.131 129.237  0.00  0.00    +0.000 NA
ATOM     30  C   UNL     1     -12.699   6.473 129.418  0.00  0.00    +0.000 C 
ATOM     31  C   UNL     1     -13.152   7.426 128.308  0.00  0.00    +0.000 C 
ATOM     32  C   UNL     1     -12.301   8.691 128.272  0.00  0.00    +0.000 C 
ATOM     33  C   UNL     1     -10.823   8.336 128.223  0.00  0.00    +0.000 C 
ATOM     34  C   UNL     1     -10.464   7.350 129.330  0.00  0.00    +0.000 C 
ENDBRANCH  28  29
ENDBRANCH  27  28
ENDBRANCH  26  27
ENDBRANCH  23  26
ENDBRANCH  18  20
ENDBRANCH   2  18
BRANCH   7  35
ATOM     35  O   UNL     1     -10.100  -2.828 123.222  0.00  0.00    +0.000 OA
ATOM     36  H   UNL     1     -10.718  -3.573 123.221  0.00  0.00    +0.000 HD
ENDBRANCH   7  35
TORSDOF 9
ENDMDL
MODEL 5
REMARK VINA RESULT:      -8.5      1.404      2.430
REMARK  Name = Raloxifene
REMARK  9 active torsions:
REMARK  status: ('A' for Active; 'I' for Inactive)
REMARK    1  A    between atoms: O_1  and  C_2
REMARK    2  A    between atoms: C_5  and  C_8
REMARK    3  A    between atoms: C_9  and  C_10
REMARK    4  A    between atoms: C_10  and  C_12
REMARK    5  A    between atoms: C_15  and  O_16
REMARK    6  A    between atoms: O_16  and  C_17
REMARK    7  A    between atoms: C_17  and  C_18
REMARK    8  A    between atoms: C_18  and  N_19
REMARK    9  A    between atoms: C_31  and  O_32
REMARK                            x       y       z     vdW  Elec       q    Type
REMARK                         _______ _______ _______ _____ _____    ______ ____
ROOT
ATOM      1  C   UNL     1      -7.060   3.940 128.725  0.00  0.00    +0.000 A 
ATOM      2  C   UNL     1      -6.662   3.980 127.366  0.00  0.00    +0.000 A 
ATOM      3  C   UNL     1      -5.207   3.822 127.263  0.00  0.00    +0.000 A 
ATOM      4  C   UNL     1      -4.629   3.160 128.346  0.00  0.00    +0.000 A 
ATOM      5  S   UNL     1      -5.729   3.335 129.692  0.00  0.00    +0.000 S 
ATOM      6  C   UNL     1      -3.314   2.577 128.228  0.00  0.00    +0.000 A 
ATOM      7  C   UNL     1      -2.531   2.928 127.109  0.00  0.00    +0.000 A 
ATOM      8  C   UNL     1      -3.026   3.775 126.141  0.00  0.00    +0.000 A 
ATOM      9  C   UNL     1      -4.358   4.161 126.184  0.00  0.00    +0.000 A 
ENDROOT
BRANCH   1  13
ATOM     10  C   UNL     1     -10.754   5.032 130.772  0.00  0.00    +0.000 A 
ATOM     11  C   UNL     1     -10.491   3.681 130.644  0.00  0.00    +0.000 A 
ATOM     12  C   UNL     1      -9.339   3.226 129.912  0.00  0.00    +0.000 A 
ATOM     13  C   UNL     1      -8.432   4.136 129.330  0.00  0.00    +0.000 A 
ATOM     14  C   UNL     1      -8.866   5.450 129.358  0.00  0.00    +0.000 A 
ATOM     15  C   UNL     1      -9.953   5.907 130.100  0.00  0.00    +0.000 A 
BRANCH  10  16
ATOM     16  O   UNL     1     -11.794   5.578 131.451  0.00  0.00    +0.000 OA
ATOM     17  H   UNL     1     -11.480   6.098 132.203  0.00  0.00    +0.000 HD
ENDBRANCH  10  16
ENDBRANCH   1  13
BRANCH   2  18
ATOM     18  C   UNL     1      -7.456   4.077 126.080  0.00  0.00    +0.000 C 
ATOM     19  O   UNL     1      -7.767   5.206 125.635  0.00  0.00    +0.000 OA
BRANCH  18  20
ATOM     20  C   UNL     1      -7.845   2.967 125.166  0.00  0.00    +0.000 A 
ATOM     21  C   UNL     1      -8.782   2.005 125.544  0.00  0.00    +0.000 A 
ATOM     22  C   UNL     1      -8.886   0.797 124.821  0.00  0.00    +0.000 A 
ATOM     23  C   UNL     1      -8.085   0.542 123.696  0.00  0.00    +0.000 A 
ATOM     24  C   UNL     1      -7.165   1.520 123.300  0.00  0.00    +0.000 A 
ATOM     25  C   UNL     1      -7.049   2.727 124.018  0.00  0.00    +0.000 A 
BRANCH  23  26
ATOM     26  O   UNL     1      -7.930  -0.684 123.083  0.00  0.00    +0.000 OA
BRANCH  26  27
ATOM     27  C   UNL     1      -6.605  -1.233 123.059  0.00  0.00    +0.000 C 
BRANCH  27  28
ATOM     28  C   UNL     1      -6.525  -2.524 123.896  0.00  0.00    +0.000 C 
BRANCH  28  29
ATOM     29  N   UNL     1      -7.343  -2.419 125.122  0.00  0.00    +0.000 NA
ATOM     30  C   UNL     1      -8.235  -3.577 125.272  0.00  0.00    +0.000 C 
ATOM     31  C   UNL     1      -9.167  -3.365 126.468  0.00  0.00    +0.000 C 
ATOM     32  C   UNL     1      -8.385  -3.126 127.755  0.00  0.00    +0.000 C 
ATOM     33  C   UNL     1      -7.364  -2.017 127.559  0.00  0.00    +0.000 C 
ATOM     34  C   UNL     1      -6.507  -2.279 126.325  0.00  0.00    +0.000 C 
ENDBRANCH  28  29
ENDBRANCH  27  28
ENDBRANCH  26  27
ENDBRANCH  23  26
ENDBRANCH  18  20
ENDBRANCH   2  18
BRANCH   7  35
ATOM     35  O   UNL     1      -1.237   2.534 126.895  0.00  0.00    +0.000 OA
ATOM     36  H   UNL     1      -0.667   2.700 127.659  0.00  0.00    +0.000 HD
ENDBRANCH   7  35
TORSDOF 9
ENDMDL
MODEL 6
REMARK VINA RESULT:      -8.5      4.932      9.233
REMARK  Name = Raloxifene
REMARK  9 active torsions:
REMARK  status: ('A' for Active; 'I' for Inactive)
REMARK    1  A    between atoms: O_1  and  C_2
REMARK    2  A    between atoms: C_5  and  C_8
REMARK    3  A    between atoms: C_9  and  C_10
REMARK    4  A    between atoms: C_10  and  C_12
REMARK    5  A    between atoms: C_15  and  O_16
REMARK    6  A    between atoms: O_16  and  C_17
REMARK    7  A    between atoms: C_17  and  C_18
REMARK    8  A    between atoms: C_18  and  N_19
REMARK    9  A    between atoms: C_31  and  O_32
REMARK                            x       y       z     vdW  Elec       q    Type
REMARK                         _______ _______ _______ _____ _____    ______ ____
ROOT
ATOM      1  C   UNL     1      -7.389  -2.860 129.294  0.00  0.00    +0.000 A 
ATOM      2  C   UNL     1      -7.377  -1.602 128.643  0.00  0.00    +0.000 A 
ATOM      3  C   UNL     1      -7.793  -1.755 127.244  0.00  0.00    +0.000 A 
ATOM      4  C   UNL     1      -8.585  -2.878 127.008  0.00  0.00    +0.000 A 
ATOM      5  S   UNL     1      -8.258  -4.011 128.298  0.00  0.00    +0.000 S 
ATOM      6  C   UNL     1      -9.394  -2.962 125.815  0.00  0.00    +0.000 A 
ATOM      7  C   UNL     1      -9.155  -2.031 124.784  0.00  0.00    +0.000 A 
ATOM      8  C   UNL     1      -8.199  -1.048 124.931  0.00  0.00    +0.000 A 
ATOM      9  C   UNL     1      -7.579  -0.874 126.159  0.00  0.00    +0.000 A 
ENDROOT
BRANCH   1  13
ATOM     10  C   UNL     1      -6.150  -4.514 133.136  0.00  0.00    +0.000 A 
ATOM     11  C   UNL     1      -7.050  -3.467 133.172  0.00  0.00    +0.000 A 
ATOM     12  C   UNL     1      -7.452  -2.804 131.960  0.00  0.00    +0.000 A 
ATOM     13  C   UNL     1      -6.966  -3.217 130.702  0.00  0.00    +0.000 A 
ATOM     14  C   UNL     1      -5.945  -4.148 130.777  0.00  0.00    +0.000 A 
ATOM     15  C   UNL     1      -5.579  -4.826 131.937  0.00  0.00    +0.000 A 
BRANCH  10  16
ATOM     16  O   UNL     1      -5.712  -5.224 134.206  0.00  0.00    +0.000 OA
ATOM     17  H   UNL     1      -4.746  -5.236 134.239  0.00  0.00    +0.000 HD
ENDBRANCH  10  16
ENDBRANCH   1  13
BRANCH   2  18
ATOM     18  C   UNL     1      -7.093  -0.203 129.148  0.00  0.00    +0.000 C 
ATOM     19  O   UNL     1      -5.936   0.265 129.042  0.00  0.00    +0.000 OA
BRANCH  18  20
ATOM     20  C   UNL     1      -8.071   0.787 129.681  0.00  0.00    +0.000 A 
ATOM     21  C   UNL     1      -8.291   2.009 129.046  0.00  0.00    +0.000 A 
ATOM     22  C   UNL     1      -8.951   3.053 129.730  0.00  0.00    +0.000 A 
ATOM     23  C   UNL     1      -9.427   2.888 131.041  0.00  0.00    +0.000 A 
ATOM     24  C   UNL     1      -9.230   1.651 131.668  0.00  0.00    +0.000 A 
ATOM     25  C   UNL     1      -8.569   0.605 130.996  0.00  0.00    +0.000 A 
BRANCH  23  26
ATOM     26  O   UNL     1      -9.849   3.901 131.875  0.00  0.00    +0.000 OA
BRANCH  26  27
ATOM     27  C   UNL     1      -9.798   5.235 131.351  0.00  0.00    +0.000 C 
BRANCH  27  28
ATOM     28  C   UNL     1     -11.187   5.900 131.393  0.00  0.00    +0.000 C 
BRANCH  28  29
ATOM     29  N   UNL     1     -11.248   7.069 130.492  0.00  0.00    +0.000 NA
ATOM     30  C   UNL     1     -10.655   6.768 129.182  0.00  0.00    +0.000 C 
ATOM     31  C   UNL     1     -10.603   8.038 128.328  0.00  0.00    +0.000 C 
ATOM     32  C   UNL     1     -11.986   8.657 128.155  0.00  0.00    +0.000 C 
ATOM     33  C   UNL     1     -12.658   8.843 129.507  0.00  0.00    +0.000 C 
ATOM     34  C   UNL     1     -12.628   7.547 130.311  0.00  0.00    +0.000 C 
ENDBRANCH  28  29
ENDBRANCH  27  28
ENDBRANCH  26  27
ENDBRANCH  23  26
ENDBRANCH  18  20
ENDBRANCH   2  18
BRANCH   7  35
ATOM     35  O   UNL     1      -9.770  -2.030 123.561  0.00  0.00    +0.000 OA
ATOM     36  H   UNL     1     -10.605  -2.521 123.565  0.00  0.00    +0.000 HD
ENDBRANCH   7  35
TORSDOF 9
ENDMDL
MODEL 7
REMARK VINA RESULT:      -8.2      4.164      7.908
REMARK  Name = Raloxifene
REMARK  9 active torsions:
REMARK  status: ('A' for Active; 'I' for Inactive)
REMARK    1  A    between atoms: O_1  and  C_2
REMARK    2  A    between atoms: C_5  and  C_8
REMARK    3  A    between atoms: C_9  and  C_10
REMARK    4  A    between atoms: C_10  and  C_12
REMARK    5  A    between atoms: C_15  and  O_16
REMARK    6  A    between atoms: O_16  and  C_17
REMARK    7  A    between atoms: C_17  and  C_18
REMARK    8  A    between atoms: C_18  and  N_19
REMARK    9  A    between atoms: C_31  and  O_32
REMARK                            x       y       z     vdW  Elec       q    Type
REMARK                         _______ _______ _______ _____ _____    ______ ____
ROOT
ATOM      1  C   UNL     1      -4.435   4.428 128.300  0.00  0.00    +0.000 A 
ATOM      2  C   UNL     1      -4.599   4.298 129.702  0.00  0.00    +0.000 A 
ATOM      3  C   UNL     1      -3.377   4.726 130.393  0.00  0.00    +0.000 A 
ATOM      4  C   UNL     1      -2.595   5.621 129.662  0.00  0.00    +0.000 A 
ATOM      5  S   UNL     1      -3.014   5.402 127.979  0.00  0.00    +0.000 S 
ATOM      6  C   UNL     1      -1.604   6.433 130.325  0.00  0.00    +0.000 A 
ATOM      7  C   UNL     1      -1.258   6.107 131.652  0.00  0.00    +0.000 A 
ATOM      8  C   UNL     1      -1.879   5.064 132.305  0.00  0.00    +0.000 A 
ATOM      9  C   UNL     1      -2.960   4.430 131.711  0.00  0.00    +0.000 A 
ENDROOT
BRANCH   1  13
ATOM     10  C   UNL     1      -7.346   3.946 125.088  0.00  0.00    +0.000 A 
ATOM     11  C   UNL     1      -7.227   2.897 125.979  0.00  0.00    +0.000 A 
ATOM     12  C   UNL     1      -6.235   2.932 127.022  0.00  0.00    +0.000 A 
ATOM     13  C   UNL     1      -5.379   4.041 127.184  0.00  0.00    +0.000 A 
ATOM     14  C   UNL     1      -5.451   4.956 126.148  0.00  0.00    +0.000 A 
ATOM     15  C   UNL     1      -6.433   4.956 125.161  0.00  0.00    +0.000 A 
BRANCH  10  16
ATOM     16  O   UNL     1      -8.250   4.033 124.080  0.00  0.00    +0.000 OA
ATOM     17  H   UNL     1      -8.996   4.593 124.334  0.00  0.00    +0.000 HD
ENDBRANCH  10  16
ENDBRANCH   1  13
BRANCH   2  18
ATOM     18  C   UNL     1      -5.783   3.884 130.549  0.00  0.00    +0.000 C 
ATOM     19  O   UNL     1      -5.669   2.912 131.331  0.00  0.00    +0.000 OA
BRANCH  18  20
ATOM     20  C   UNL     1      -7.099   4.573 130.671  0.00  0.00    +0.000 A 
ATOM     21  C   UNL     1      -7.399   5.384 131.765  0.00  0.00    +0.000 A 
ATOM     22  C   UNL     1      -8.737   5.747 132.030  0.00  0.00    +0.000 A 
ATOM     23  C   UNL     1      -9.790   5.336 131.197  0.00  0.00    +0.000 A 
ATOM     24  C   UNL     1      -9.485   4.545 130.083  0.00  0.00    +0.000 A 
ATOM     25  C   UNL     1      -8.153   4.173 129.812  0.00  0.00    +0.000 A 
BRANCH  23  26
ATOM     26  O   UNL     1     -11.132   5.419 131.500  0.00  0.00    +0.000 OA
BRANCH  26  27
ATOM     27  C   UNL     1     -11.651   6.722 131.798  0.00  0.00    +0.000 C 
BRANCH  27  28
ATOM     28  C   UNL     1     -12.725   7.138 130.775  0.00  0.00    +0.000 C 
BRANCH  28  29
ATOM     29  N   UNL     1     -12.211   7.046 129.392  0.00  0.00    +0.000 NA
ATOM     30  C   UNL     1     -13.288   7.224 128.408  0.00  0.00    +0.000 C 
ATOM     31  C   UNL     1     -12.749   6.977 126.996  0.00  0.00    +0.000 C 
ATOM     32  C   UNL     1     -11.577   7.897 126.673  0.00  0.00    +0.000 C 
ATOM     33  C   UNL     1     -10.521   7.816 127.764  0.00  0.00    +0.000 C 
ATOM     34  C   UNL     1     -11.144   8.027 129.140  0.00  0.00    +0.000 C 
ENDBRANCH  28  29
ENDBRANCH  27  28
ENDBRANCH  26  27
ENDBRANCH  23  26
ENDBRANCH  18  20
ENDBRANCH   2  18
BRANCH   7  35
ATOM     35  O   UNL     1      -0.279   6.720 132.387  0.00  0.00    +0.000 OA
ATOM     36  H   UNL     1      -0.587   7.532 132.813  0.00  0.00    +0.000 HD
ENDBRANCH   7  35
TORSDOF 9
ENDMDL
MODEL 8
REMARK VINA RESULT:      -8.2      5.516      9.568
REMARK  Name = Raloxifene
REMARK  9 active torsions:
REMARK  status: ('A' for Active; 'I' for Inactive)
REMARK    1  A    between atoms: O_1  and  C_2
REMARK    2  A    between atoms: C_5  and  C_8
REMARK    3  A    between atoms: C_9  and  C_10
REMARK    4  A    between atoms: C_10  and  C_12
REMARK    5  A    between atoms: C_15  and  O_16
REMARK    6  A    between atoms: O_16  and  C_17
REMARK    7  A    between atoms: C_17  and  C_18
REMARK    8  A    between atoms: C_18  and  N_19
REMARK    9  A    between atoms: C_31  and  O_32
REMARK                            x       y       z     vdW  Elec       q    Type
REMARK                         _______ _______ _______ _____ _____    ______ ____
ROOT
ATOM      1  C   UNL     1      -6.631  -2.591 129.901  0.00  0.00    +0.000 A 
ATOM      2  C   UNL     1      -6.868  -1.858 131.091  0.00  0.00    +0.000 A 
ATOM      3  C   UNL     1      -6.921  -2.768 132.241  0.00  0.00    +0.000 A 
ATOM      4  C   UNL     1      -6.232  -3.966 132.049  0.00  0.00    +0.000 A 
ATOM      5  S   UNL     1      -6.113  -4.211 130.323  0.00  0.00    +0.000 S 
ATOM      6  C   UNL     1      -5.848  -4.776 133.180  0.00  0.00    +0.000 A 
ATOM      7  C   UNL     1      -6.418  -4.477 134.434  0.00  0.00    +0.000 A 
ATOM      8  C   UNL     1      -7.288  -3.417 134.577  0.00  0.00    +0.000 A 
ATOM      9  C   UNL     1      -7.484  -2.543 133.518  0.00  0.00    +0.000 A 
ENDROOT
BRANCH   1  13
ATOM     10  C   UNL     1      -6.989  -1.589 125.672  0.00  0.00    +0.000 A 
ATOM     11  C   UNL     1      -5.708  -1.685 126.180  0.00  0.00    +0.000 A 
ATOM     12  C   UNL     1      -5.493  -1.930 127.582  0.00  0.00    +0.000 A 
ATOM     13  C   UNL     1      -6.575  -2.106 128.470  0.00  0.00    +0.000 A 
ATOM     14  C   UNL     1      -7.808  -1.821 127.910  0.00  0.00    +0.000 A 
ATOM     15  C   UNL     1      -8.031  -1.627 126.550  0.00  0.00    +0.000 A 
BRANCH  10  16
ATOM     16  O   UNL     1      -7.314  -1.379 124.371  0.00  0.00    +0.000 OA
ATOM     17  H   UNL     1      -8.261  -1.209 124.276  0.00  0.00    +0.000 HD
ENDBRANCH  10  16
ENDBRANCH   1  13
BRANCH   2  18
ATOM     18  C   UNL     1      -6.993  -0.373 131.358  0.00  0.00    +0.000 C 
ATOM     19  O   UNL     1      -6.029   0.242 131.869  0.00  0.00    +0.000 OA
BRANCH  18  20
ATOM     20  C   UNL     1      -8.118   0.527 130.978  0.00  0.00    +0.000 A 
ATOM     21  C   UNL     1      -8.087   1.277 129.802  0.00  0.00    +0.000 A 
ATOM     22  C   UNL     1      -8.981   2.355 129.628  0.00  0.00    +0.000 A 
ATOM     23  C   UNL     1      -9.936   2.685 130.603  0.00  0.00    +0.000 A 
ATOM     24  C   UNL     1      -9.985   1.915 131.772  0.00  0.00    +0.000 A 
ATOM     25  C   UNL     1      -9.094   0.839 131.958  0.00  0.00    +0.000 A 
BRANCH  23  26
ATOM     26  O   UNL     1     -10.671   3.851 130.645  0.00  0.00    +0.000 OA
BRANCH  26  27
ATOM     27  C   UNL     1      -9.957   5.056 130.955  0.00  0.00    +0.000 C 
BRANCH  27  28
ATOM     28  C   UNL     1     -10.898   6.119 131.554  0.00  0.00    +0.000 C 
BRANCH  28  29
ATOM     29  N   UNL     1     -11.095   7.247 130.620  0.00  0.00    +0.000 NA
ATOM     30  C   UNL     1     -10.463   6.983 129.320  0.00  0.00    +0.000 C 
ATOM     31  C   UNL     1     -10.560   8.226 128.432  0.00  0.00    +0.000 C 
ATOM     32  C   UNL     1     -12.007   8.668 128.239  0.00  0.00    +0.000 C 
ATOM     33  C   UNL     1     -12.703   8.809 129.584  0.00  0.00    +0.000 C 
ATOM     34  C   UNL     1     -12.521   7.550 130.424  0.00  0.00    +0.000 C 
ENDBRANCH  28  29
ENDBRANCH  27  28
ENDBRANCH  26  27
ENDBRANCH  23  26
ENDBRANCH  18  20
ENDBRANCH   2  18
BRANCH   7  35
ATOM     35  O   UNL     1      -6.228  -5.199 135.582  0.00  0.00    +0.000 OA
ATOM     36  H   UNL     1      -6.854  -4.959 136.280  0.00  0.00    +0.000 HD
ENDBRANCH   7  35
TORSDOF 9
ENDMDL
MODEL 9
REMARK VINA RESULT:      -8.2      4.580      8.419
REMARK  Name = Raloxifene
REMARK  9 active torsions:
REMARK  status: ('A' for Active; 'I' for Inactive)
REMARK    1  A    between atoms: O_1  and  C_2
REMARK    2  A    between atoms: C_5  and  C_8
REMARK    3  A    between atoms: C_9  and  C_10
REMARK    4  A    between atoms: C_10  and  C_12
REMARK    5  A    between atoms: C_15  and  O_16
REMARK    6  A    between atoms: O_16  and  C_17
REMARK    7  A    between atoms: C_17  and  C_18
REMARK    8  A    between atoms: C_18  and  N_19
REMARK    9  A    between atoms: C_31  and  O_32
REMARK                            x       y       z     vdW  Elec       q    Type
REMARK                         _______ _______ _______ _____ _____    ______ ____
ROOT
ATOM      1  C   UNL     1      -2.871   5.865 130.442  0.00  0.00    +0.000 A 
ATOM      2  C   UNL     1      -3.799   4.837 130.742  0.00  0.00    +0.000 A 
ATOM      3  C   UNL     1      -4.117   4.076 129.529  0.00  0.00    +0.000 A 
ATOM      4  C   UNL     1      -3.126   4.130 128.549  0.00  0.00    +0.000 A 
ATOM      5  S   UNL     1      -2.188   5.571 128.855  0.00  0.00    +0.000 S 
ATOM      6  C   UNL     1      -3.090   3.145 127.494  0.00  0.00    +0.000 A 
ATOM      7  C   UNL     1      -4.216   2.316 127.320  0.00  0.00    +0.000 A 
ATOM      8  C   UNL     1      -5.304   2.422 128.161  0.00  0.00    +0.000 A 
ATOM      9  C   UNL     1      -5.229   3.239 129.279  0.00  0.00    +0.000 A 
ENDROOT
BRANCH   1  13
ATOM     10  C   UNL     1      -1.007   8.484 133.390  0.00  0.00    +0.000 A 
ATOM     11  C   UNL     1      -2.236   8.879 132.898  0.00  0.00    +0.000 A 
ATOM     12  C   UNL     1      -2.888   8.121 131.863  0.00  0.00    +0.000 A 
ATOM     13  C   UNL     1      -2.311   6.945 131.340  0.00  0.00    +0.000 A 
ATOM     14  C   UNL     1      -1.012   6.727 131.763  0.00  0.00    +0.000 A 
ATOM     15  C   UNL     1      -0.389   7.425 132.794  0.00  0.00    +0.000 A 
BRANCH  10  16
ATOM     16  O   UNL     1      -0.307   9.105 134.373  0.00  0.00    +0.000 OA
ATOM     17  H   UNL     1      -0.902   9.463 135.045  0.00  0.00    +0.000 HD
ENDBRANCH  10  16
ENDBRANCH   1  13
BRANCH   2  18
ATOM     18  C   UNL     1      -4.418   4.380 132.047  0.00  0.00    +0.000 C 
ATOM     19  O   UNL     1      -3.719   3.743 132.868  0.00  0.00    +0.000 OA
BRANCH  18  20
ATOM     20  C   UNL     1      -5.779   4.692 132.565  0.00  0.00    +0.000 A 
ATOM     21  C   UNL     1      -6.536   3.740 133.248  0.00  0.00    +0.000 A 
ATOM     22  C   UNL     1      -7.922   3.936 133.429  0.00  0.00    +0.000 A 
ATOM     23  C   UNL     1      -8.569   5.092 132.964  0.00  0.00    +0.000 A 
ATOM     24  C   UNL     1      -7.804   6.061 132.303  0.00  0.00    +0.000 A 
ATOM     25  C   UNL     1      -6.421   5.873 132.112  0.00  0.00    +0.000 A 
BRANCH  23  26
ATOM     26  O   UNL     1      -9.934   5.263 132.865  0.00  0.00    +0.000 OA
BRANCH  26  27
ATOM     27  C   UNL     1     -10.404   6.153 131.844  0.00  0.00    +0.000 C 
BRANCH  27  28
ATOM     28  C   UNL     1     -11.123   5.380 130.722  0.00  0.00    +0.000 C 
BRANCH  28  29
ATOM     29  N   UNL     1     -11.229   6.195 129.494  0.00  0.00    +0.000 NA
ATOM     30  C   UNL     1     -12.631   6.388 129.100  0.00  0.00    +0.000 C 
ATOM     31  C   UNL     1     -12.698   7.108 127.750  0.00  0.00    +0.000 C 
ATOM     32  C   UNL     1     -11.968   8.446 127.789  0.00  0.00    +0.000 C 
ATOM     33  C   UNL     1     -10.557   8.266 128.329  0.00  0.00    +0.000 C 
ATOM     34  C   UNL     1     -10.574   7.503 129.649  0.00  0.00    +0.000 C 
ENDBRANCH  28  29
ENDBRANCH  27  28
ENDBRANCH  26  27
ENDBRANCH  23  26
ENDBRANCH  18  20
ENDBRANCH   2  18
BRANCH   7  35
ATOM     35  O   UNL     1      -4.376   1.398 126.317  0.00  0.00    +0.000 OA
ATOM     36  H   UNL     1      -3.822   1.589 125.547  0.00  0.00    +0.000 HD
ENDBRANCH   7  35
TORSDOF 9
ENDMDL
