MODEL 1
REMARK VINA RESULT:      -8.4      0.000      0.000
REMARK  Name = Raltitrexed
REMARK  13 active torsions:
REMARK  status: ('A' for Active; 'I' for Inactive)
REMARK    1  A    between atoms: C_1  and  N_2
REMARK    2  A    between atoms: N_2  and  C_3
REMARK    3  A    between atoms: N_2  and  C_16
REMARK    4  A    between atoms: C_3  and  C_4
REMARK    5  A    between atoms: C_9  and  C_10
REMARK    6  A    between atoms: C_19  and  C_21
REMARK    7  A    between atoms: N_23  and  CA_24
REMARK    8  A    between atoms: CA_24  and  CB_25
REMARK    9  A    between atoms: CA_24  and  C_30
REMARK   10  A    between atoms: CB_25  and  CG_26
REMARK   11  A    between atoms: CG_26  and  CD_27
REMARK   12  A    between atoms: CD_27  and  OE1_28
REMARK   13  A    between atoms: C_30  and  O_31
REMARK                            x       y       z     vdW  Elec       q    Type
REMARK                         _______ _______ _______ _____ _____    ______ ____
ROOT
ATOM      1  C   UNK A   0      -7.769   0.367 131.199  0.00  0.00    +0.000 A 
ATOM      2  C   UNK A   0      -9.021   0.279 131.778  0.00  0.00    +0.000 A 
ATOM      3  C   UNK A   0      -9.714   1.515 131.837  0.00  0.00    +0.000 A 
ATOM      4  C   UNK A   0      -8.955   2.567 131.374  0.00  0.00    +0.000 A 
ATOM      5  S   UNK A   0      -7.431   2.007 130.800  0.00  0.00    +0.000 S 
ENDROOT
BRANCH   4   6
ATOM      6  C   UNK A   0      -9.266   3.990 131.340  0.00  0.00    +0.000 C 
ATOM      7  O   UNK A   0      -8.492   4.861 131.723  0.00  0.00    +0.000 OA
ATOM      8  N   GLU A   1     -10.523   4.313 130.824  0.00  0.00    +0.000 N 
ATOM      9  H   GLU A   1     -11.132   3.540 130.649  0.00  0.00    +0.000 HD
BRANCH   8  10
ATOM     10  CA  GLU A   1     -10.977   5.697 130.566  0.00  0.00    +0.000 C 
BRANCH  10  11
ATOM     11  C   GLU A   1     -11.534   6.481 131.788  0.00  0.00    +0.000 C 
ATOM     12  OXT GLU A   1     -12.676   6.925 131.821  0.00  0.00    +0.000 OA
BRANCH  11  13
ATOM     13  O   GLU A   1     -10.734   6.611 132.865  0.00  0.00    +0.000 OA
ATOM     14  H   GLU A   1     -10.890   7.336 133.484  0.00  0.00    +0.000 HD
ENDBRANCH  11  13
ENDBRANCH  10  11
BRANCH  10  15
ATOM     15  CB  GLU A   1     -12.093   5.759 129.488  0.00  0.00    +0.000 C 
BRANCH  15  16
ATOM     16  CG  GLU A   1     -11.928   6.889 128.479  0.00  0.00    +0.000 C 
BRANCH  16  17
ATOM     17  CD  GLU A   1     -10.555   7.264 128.001  0.00  0.00    +0.000 C 
ATOM     18  OE2 GLU A   1      -9.942   6.570 127.199  0.00  0.00    +0.000 OA
BRANCH  17  19
ATOM     19  OE1 GLU A   1     -10.062   8.432 128.442  0.00  0.00    +0.000 OA
ATOM     20  HE1 GLU A   1      -9.094   8.496 128.498  0.00  0.00    +0.000 HD
ENDBRANCH  17  19
ENDBRANCH  16  17
ENDBRANCH  15  16
ENDBRANCH  10  15
ENDBRANCH   8  10
ENDBRANCH   4   6
BRANCH   1  22
ATOM     21  C   UNK A   0      -5.508  -0.411 130.833  0.00  0.00    +0.000 C 
ATOM     22  N   UNK A   0      -6.934  -0.690 130.949  0.00  0.00    +0.000 N 
BRANCH  22  23
ATOM     23  C   UNK A   0      -7.492  -2.037 130.778  0.00  0.00    +0.000 C 
BRANCH  23  24
ATOM     24  C   UNK A   0      -7.921  -2.400 129.373  0.00  0.00    +0.000 A 
ATOM     25  C   UNK A   0      -7.768  -1.466 128.344  0.00  0.00    +0.000 A 
ATOM     26  C   UNK A   0      -8.135  -1.814 127.046  0.00  0.00    +0.000 A 
ATOM     27  C   UNK A   0      -8.762  -3.034 126.778  0.00  0.00    +0.000 A 
ATOM     28  N   UNK A   0      -9.127  -3.331 125.473  0.00  0.00    +0.000 N 
ATOM     29  C   UNK A   0      -8.791  -2.464 124.473  0.00  0.00    +0.000 A 
ATOM     30  C   UNK A   0      -9.157  -2.873 123.074  0.00  0.00    +0.000 C 
ATOM     31  N   UNK A   0      -8.190  -1.325 124.625  0.00  0.00    +0.000 NA
ATOM     32  C   UNK A   0      -7.847  -0.924 125.896  0.00  0.00    +0.000 A 
ATOM     33  O   UNK A   0      -7.277   0.147 126.121  0.00  0.00    +0.000 OA
ATOM     34  C   UNK A   0      -9.005  -3.926 127.813  0.00  0.00    +0.000 A 
ATOM     35  C   UNK A   0      -8.528  -3.638 129.085  0.00  0.00    +0.000 A 
ATOM     36  H   UNK A   0      -9.529  -4.237 125.274  0.00  0.00    +0.000 HD
ENDBRANCH  23  24
ENDBRANCH  22  23
ENDBRANCH   1  22
TORSDOF 11
ENDMDL
MODEL 2
REMARK VINA RESULT:      -8.3      3.476      4.591
REMARK  Name = Raltitrexed
REMARK  13 active torsions:
REMARK  status: ('A' for Active; 'I' for Inactive)
REMARK    1  A    between atoms: C_1  and  N_2
REMARK    2  A    between atoms: N_2  and  C_3
REMARK    3  A    between atoms: N_2  and  C_16
REMARK    4  A    between atoms: C_3  and  C_4
REMARK    5  A    between atoms: C_9  and  C_10
REMARK    6  A    between atoms: C_19  and  C_21
REMARK    7  A    between atoms: N_23  and  CA_24
REMARK    8  A    between atoms: CA_24  and  CB_25
REMARK    9  A    between atoms: CA_24  and  C_30
REMARK   10  A    between atoms: CB_25  and  CG_26
REMARK   11  A    between atoms: CG_26  and  CD_27
REMARK   12  A    between atoms: CD_27  and  OE1_28
REMARK   13  A    between atoms: C_30  and  O_31
REMARK                            x       y       z     vdW  Elec       q    Type
REMARK                         _______ _______ _______ _____ _____    ______ ____
ROOT
ATOM      1  C   UNK A   0      -7.097   2.712 128.663  0.00  0.00    +0.000 A 
ATOM      2  C   UNK A   0      -6.086   3.601 128.974  0.00  0.00    +0.000 A 
ATOM      3  C   UNK A   0      -6.517   4.721 129.729  0.00  0.00    +0.000 A 
ATOM      4  C   UNK A   0      -7.880   4.728 129.927  0.00  0.00    +0.000 A 
ATOM      5  S   UNK A   0      -8.598   3.317 129.250  0.00  0.00    +0.000 S 
ENDROOT
BRANCH   4   6
ATOM      6  C   UNK A   0      -8.716   5.730 130.576  0.00  0.00    +0.000 C 
ATOM      7  O   UNK A   0      -8.383   6.335 131.589  0.00  0.00    +0.000 OA
ATOM      8  N   GLU A   1      -9.943   5.975 129.954  0.00  0.00    +0.000 N 
ATOM      9  H   GLU A   1     -10.183   5.355 129.207  0.00  0.00    +0.000 HD
BRANCH   8  10
ATOM     10  CA  GLU A   1     -10.872   7.051 130.362  0.00  0.00    +0.000 C 
BRANCH  10  11
ATOM     11  C   GLU A   1     -11.845   6.719 131.529  0.00  0.00    +0.000 C 
ATOM     12  OXT GLU A   1     -13.037   7.003 131.494  0.00  0.00    +0.000 OA
BRANCH  11  13
ATOM     13  O   GLU A   1     -11.350   6.037 132.581  0.00  0.00    +0.000 OA
ATOM     14  H   GLU A   1     -10.849   5.225 132.425  0.00  0.00    +0.000 HD
ENDBRANCH  11  13
ENDBRANCH  10  11
BRANCH  10  15
ATOM     15  CB  GLU A   1     -11.775   7.524 129.190  0.00  0.00    +0.000 C 
BRANCH  15  16
ATOM     16  CG  GLU A   1     -11.034   8.281 128.095  0.00  0.00    +0.000 C 
BRANCH  16  17
ATOM     17  CD  GLU A   1     -10.626   7.565 126.840  0.00  0.00    +0.000 C 
ATOM     18  OE2 GLU A   1     -10.927   7.988 125.731  0.00  0.00    +0.000 OA
BRANCH  17  19
ATOM     19  OE1 GLU A   1      -9.858   6.474 126.993  0.00  0.00    +0.000 OA
ATOM     20  HE1 GLU A   1      -9.572   6.033 126.175  0.00  0.00    +0.000 HD
ENDBRANCH  17  19
ENDBRANCH  16  17
ENDBRANCH  15  16
ENDBRANCH  10  15
ENDBRANCH   8  10
ENDBRANCH   4   6
BRANCH   1  22
ATOM     21  C   UNK A   0      -7.746   0.391 128.459  0.00  0.00    +0.000 C 
ATOM     22  N   UNK A   0      -6.932   1.515 128.016  0.00  0.00    +0.000 N 
BRANCH  22  23
ATOM     23  C   UNK A   0      -5.941   1.399 126.939  0.00  0.00    +0.000 C 
BRANCH  23  24
ATOM     24  C   UNK A   0      -6.320   2.037 125.621  0.00  0.00    +0.000 A 
ATOM     25  C   UNK A   0      -7.409   1.536 124.902  0.00  0.00    +0.000 A 
ATOM     26  C   UNK A   0      -7.775   2.146 123.704  0.00  0.00    +0.000 A 
ATOM     27  C   UNK A   0      -7.001   3.170 123.152  0.00  0.00    +0.000 A 
ATOM     28  N   UNK A   0      -7.393   3.735 121.947  0.00  0.00    +0.000 N 
ATOM     29  C   UNK A   0      -8.567   3.337 121.374  0.00  0.00    +0.000 A 
ATOM     30  C   UNK A   0      -8.968   4.033 120.104  0.00  0.00    +0.000 C 
ATOM     31  N   UNK A   0      -9.358   2.414 121.826  0.00  0.00    +0.000 NA
ATOM     32  C   UNK A   0      -9.013   1.759 122.986  0.00  0.00    +0.000 A 
ATOM     33  O   UNK A   0      -9.712   0.868 123.476  0.00  0.00    +0.000 OA
ATOM     34  C   UNK A   0      -5.862   3.606 123.813  0.00  0.00    +0.000 A 
ATOM     35  C   UNK A   0      -5.565   3.089 125.068  0.00  0.00    +0.000 A 
ATOM     36  H   UNK A   0      -6.863   4.513 121.580  0.00  0.00    +0.000 HD
ENDBRANCH  23  24
ENDBRANCH  22  23
ENDBRANCH   1  22
TORSDOF 11
ENDMDL
MODEL 3
REMARK VINA RESULT:      -8.2      1.321      1.891
REMARK  Name = Raltitrexed
REMARK  13 active torsions:
REMARK  status: ('A' for Active; 'I' for Inactive)
REMARK    1  A    between atoms: C_1  and  N_2
REMARK    2  A    between atoms: N_2  and  C_3
REMARK    3  A    between atoms: N_2  and  C_16
REMARK    4  A    between atoms: C_3  and  C_4
REMARK    5  A    between atoms: C_9  and  C_10
REMARK    6  A    between atoms: C_19  and  C_21
REMARK    7  A    between atoms: N_23  and  CA_24
REMARK    8  A    between atoms: CA_24  and  CB_25
REMARK    9  A    between atoms: CA_24  and  C_30
REMARK   10  A    between atoms: CB_25  and  CG_26
REMARK   11  A    between atoms: CG_26  and  CD_27
REMARK   12  A    between atoms: CD_27  and  OE1_28
REMARK   13  A    between atoms: C_30  and  O_31
REMARK                            x       y       z     vdW  Elec       q    Type
REMARK                         _______ _______ _______ _____ _____    ______ ____
ROOT
ATOM      1  C   UNK A   0      -7.727   0.527 131.020  0.00  0.00    +0.000 A 
ATOM      2  C   UNK A   0      -8.693   0.455 132.004  0.00  0.00    +0.000 A 
ATOM      3  C   UNK A   0      -9.698   1.451 131.895  0.00  0.00    +0.000 A 
ATOM      4  C   UNK A   0      -9.452   2.336 130.869  0.00  0.00    +0.000 A 
ATOM      5  S   UNK A   0      -8.033   1.884 130.006  0.00  0.00    +0.000 S 
ENDROOT
BRANCH   4   6
ATOM      6  C   UNK A   0     -10.190   3.531 130.480  0.00  0.00    +0.000 C 
ATOM      7  O   UNK A   0     -11.362   3.514 130.118  0.00  0.00    +0.000 OA
ATOM      8  N   GLU A   1      -9.472   4.727 130.556  0.00  0.00    +0.000 N 
ATOM      9  H   GLU A   1      -8.494   4.634 130.744  0.00  0.00    +0.000 HD
BRANCH   8  10
ATOM     10  CA  GLU A   1     -10.071   6.062 130.349  0.00  0.00    +0.000 C 
BRANCH  10  11
ATOM     11  C   GLU A   1      -9.081   7.229 130.069  0.00  0.00    +0.000 C 
ATOM     12  OXT GLU A   1      -9.359   8.164 129.327  0.00  0.00    +0.000 OA
BRANCH  11  13
ATOM     13  O   GLU A   1      -7.904   7.221 130.726  0.00  0.00    +0.000 OA
ATOM     14  H   GLU A   1      -7.777   6.607 131.460  0.00  0.00    +0.000 HD
ENDBRANCH  11  13
ENDBRANCH  10  11
BRANCH  10  15
ATOM     15  CB  GLU A   1     -10.921   6.521 131.565  0.00  0.00    +0.000 C 
BRANCH  15  16
ATOM     16  CG  GLU A   1     -12.369   6.855 131.227  0.00  0.00    +0.000 C 
BRANCH  16  17
ATOM     17  CD  GLU A   1     -12.774   7.043 129.794  0.00  0.00    +0.000 C 
ATOM     18  OE2 GLU A   1     -12.992   8.154 129.327  0.00  0.00    +0.000 OA
BRANCH  17  19
ATOM     19  OE1 GLU A   1     -12.819   5.937 129.032  0.00  0.00    +0.000 OA
ATOM     20  HE1 GLU A   1     -13.680   5.726 128.633  0.00  0.00    +0.000 HD
ENDBRANCH  17  19
ENDBRANCH  16  17
ENDBRANCH  15  16
ENDBRANCH  10  15
ENDBRANCH   8  10
ENDBRANCH   4   6
BRANCH   1  22
ATOM     21  C   UNK A   0      -5.345   0.176 130.778  0.00  0.00    +0.000 C 
ATOM     22  N   UNK A   0      -6.697  -0.363 130.851  0.00  0.00    +0.000 N 
BRANCH  22  23
ATOM     23  C   UNK A   0      -6.985  -1.796 130.721  0.00  0.00    +0.000 C 
BRANCH  23  24
ATOM     24  C   UNK A   0      -7.569  -2.234 129.395  0.00  0.00    +0.000 A 
ATOM     25  C   UNK A   0      -7.457  -1.394 128.283  0.00  0.00    +0.000 A 
ATOM     26  C   UNK A   0      -7.967  -1.814 127.057  0.00  0.00    +0.000 A 
ATOM     27  C   UNK A   0      -8.694  -3.003 126.949  0.00  0.00    +0.000 A 
ATOM     28  N   UNK A   0      -9.201  -3.372 125.711  0.00  0.00    +0.000 N 
ATOM     29  C   UNK A   0      -8.908  -2.610 124.616  0.00  0.00    +0.000 A 
ATOM     30  C   UNK A   0      -9.431  -3.098 123.295  0.00  0.00    +0.000 C 
ATOM     31  N   UNK A   0      -8.223  -1.508 124.618  0.00  0.00    +0.000 NA
ATOM     32  C   UNK A   0      -7.735  -1.038 125.816  0.00  0.00    +0.000 A 
ATOM     33  O   UNK A   0      -7.079   0.004 125.899  0.00  0.00    +0.000 OA
ATOM     34  C   UNK A   0      -8.894  -3.794 128.071  0.00  0.00    +0.000 A 
ATOM     35  C   UNK A   0      -8.279  -3.443 129.266  0.00  0.00    +0.000 A 
ATOM     36  H   UNK A   0      -9.677  -4.260 125.625  0.00  0.00    +0.000 HD
ENDBRANCH  23  24
ENDBRANCH  22  23
ENDBRANCH   1  22
TORSDOF 11
ENDMDL
MODEL 4
REMARK VINA RESULT:      -8.2      4.352      5.051
REMARK  Name = Raltitrexed
REMARK  13 active torsions:
REMARK  status: ('A' for Active; 'I' for Inactive)
REMARK    1  A    between atoms: C_1  and  N_2
REMARK    2  A    between atoms: N_2  and  C_3
REMARK    3  A    between atoms: N_2  and  C_16
REMARK    4  A    between atoms: C_3  and  C_4
REMARK    5  A    between atoms: C_9  and  C_10
REMARK    6  A    between atoms: C_19  and  C_21
REMARK    7  A    between atoms: N_23  and  CA_24
REMARK    8  A    between atoms: CA_24  and  CB_25
REMARK    9  A    between atoms: CA_24  and  C_30
REMARK   10  A    between atoms: CB_25  and  CG_26
REMARK   11  A    between atoms: CG_26  and  CD_27
REMARK   12  A    between atoms: CD_27  and  OE1_28
REMARK   13  A    between atoms: C_30  and  O_31
REMARK                            x       y       z     vdW  Elec       q    Type
REMARK                         _______ _______ _______ _____ _____    ______ ____
ROOT
ATOM      1  C   UNK A   0      -5.427   5.326 130.834  0.00  0.00    +0.000 A 
ATOM      2  C   UNK A   0      -5.383   6.699 130.686  0.00  0.00    +0.000 A 
ATOM      3  C   UNK A   0      -6.637   7.336 130.868  0.00  0.00    +0.000 A 
ATOM      4  C   UNK A   0      -7.659   6.437 131.078  0.00  0.00    +0.000 A 
ATOM      5  S   UNK A   0      -7.049   4.828 131.125  0.00  0.00    +0.000 S 
ENDROOT
BRANCH   4   6
ATOM      6  C   UNK A   0      -9.089   6.677 131.228  0.00  0.00    +0.000 C 
ATOM      7  O   UNK A   0      -9.703   6.465 132.268  0.00  0.00    +0.000 OA
ATOM      8  N   GLU A   1      -9.730   7.187 130.097  0.00  0.00    +0.000 N 
ATOM      9  H   GLU A   1      -9.179   7.216 129.262  0.00  0.00    +0.000 HD
BRANCH   8  10
ATOM     10  CA  GLU A   1     -11.138   7.637 130.081  0.00  0.00    +0.000 C 
BRANCH  10  11
ATOM     11  C   GLU A   1     -12.221   6.523 130.155  0.00  0.00    +0.000 C 
ATOM     12  OXT GLU A   1     -12.823   6.123 129.165  0.00  0.00    +0.000 OA
BRANCH  11  13
ATOM     13  O   GLU A   1     -12.445   5.947 131.353  0.00  0.00    +0.000 OA
ATOM     14  H   GLU A   1     -12.364   6.479 132.155  0.00  0.00    +0.000 HD
ENDBRANCH  11  13
ENDBRANCH  10  11
BRANCH  10  15
ATOM     15  CB  GLU A   1     -11.477   8.464 128.811  0.00  0.00    +0.000 C 
BRANCH  15  16
ATOM     16  CG  GLU A   1     -10.503   8.267 127.656  0.00  0.00    +0.000 C 
BRANCH  16  17
ATOM     17  CD  GLU A   1     -10.510   6.978 126.888  0.00  0.00    +0.000 C 
ATOM     18  OE2 GLU A   1      -9.545   6.223 126.890  0.00  0.00    +0.000 OA
BRANCH  17  19
ATOM     19  OE1 GLU A   1     -11.651   6.660 126.256  0.00  0.00    +0.000 OA
ATOM     20  HE1 GLU A   1     -11.589   5.959 125.585  0.00  0.00    +0.000 HD
ENDBRANCH  17  19
ENDBRANCH  16  17
ENDBRANCH  15  16
ENDBRANCH  10  15
ENDBRANCH   8  10
ENDBRANCH   4   6
BRANCH   1  22
ATOM     21  C   UNK A   0      -4.028   3.727 131.992  0.00  0.00    +0.000 C 
ATOM     22  N   UNK A   0      -4.344   4.487 130.789  0.00  0.00    +0.000 N 
BRANCH  22  23
ATOM     23  C   UNK A   0      -3.535   4.404 129.566  0.00  0.00    +0.000 C 
BRANCH  23  24
ATOM     24  C   UNK A   0      -4.195   3.731 128.383  0.00  0.00    +0.000 A 
ATOM     25  C   UNK A   0      -4.895   4.506 127.453  0.00  0.00    +0.000 A 
ATOM     26  C   UNK A   0      -5.474   3.886 126.347  0.00  0.00    +0.000 A 
ATOM     27  C   UNK A   0      -5.471   2.495 126.218  0.00  0.00    +0.000 A 
ATOM     28  N   UNK A   0      -6.077   1.920 125.109  0.00  0.00    +0.000 N 
ATOM     29  C   UNK A   0      -6.587   2.729 124.134  0.00  0.00    +0.000 A 
ATOM     30  C   UNK A   0      -7.172   2.047 122.930  0.00  0.00    +0.000 C 
ATOM     31  N   UNK A   0      -6.614   4.026 124.160  0.00  0.00    +0.000 NA
ATOM     32  C   UNK A   0      -6.088   4.675 125.253  0.00  0.00    +0.000 A 
ATOM     33  O   UNK A   0      -6.080   5.905 125.351  0.00  0.00    +0.000 OA
ATOM     34  C   UNK A   0      -4.861   1.713 127.189  0.00  0.00    +0.000 A 
ATOM     35  C   UNK A   0      -4.173   2.332 128.225  0.00  0.00    +0.000 A 
ATOM     36  H   UNK A   0      -6.022   0.918 124.990  0.00  0.00    +0.000 HD
ENDBRANCH  23  24
ENDBRANCH  22  23
ENDBRANCH   1  22
TORSDOF 11
ENDMDL
MODEL 5
REMARK VINA RESULT:      -8.1      3.476      4.471
REMARK  Name = Raltitrexed
REMARK  13 active torsions:
REMARK  status: ('A' for Active; 'I' for Inactive)
REMARK    1  A    between atoms: C_1  and  N_2
REMARK    2  A    between atoms: N_2  and  C_3
REMARK    3  A    between atoms: N_2  and  C_16
REMARK    4  A    between atoms: C_3  and  C_4
REMARK    5  A    between atoms: C_9  and  C_10
REMARK    6  A    between atoms: C_19  and  C_21
REMARK    7  A    between atoms: N_23  and  CA_24
REMARK    8  A    between atoms: CA_24  and  CB_25
REMARK    9  A    between atoms: CA_24  and  C_30
REMARK   10  A    between atoms: CB_25  and  CG_26
REMARK   11  A    between atoms: CG_26  and  CD_27
REMARK   12  A    between atoms: CD_27  and  OE1_28
REMARK   13  A    between atoms: C_30  and  O_31
REMARK                            x       y       z     vdW  Elec       q    Type
REMARK                         _______ _______ _______ _____ _____    ______ ____
ROOT
ATOM      1  C   UNK A   0      -7.255   2.847 129.129  0.00  0.00    +0.000 A 
ATOM      2  C   UNK A   0      -6.251   3.695 129.555  0.00  0.00    +0.000 A 
ATOM      3  C   UNK A   0      -6.724   4.871 130.190  0.00  0.00    +0.000 A 
ATOM      4  C   UNK A   0      -8.099   4.960 130.178  0.00  0.00    +0.000 A 
ATOM      5  S   UNK A   0      -8.789   3.557 129.455  0.00  0.00    +0.000 S 
ENDROOT
BRANCH   4   6
ATOM      6  C   UNK A   0      -8.963   6.034 130.650  0.00  0.00    +0.000 C 
ATOM      7  O   UNK A   0      -8.619   6.856 131.493  0.00  0.00    +0.000 OA
ATOM      8  N   GLU A   1     -10.230   6.081 130.065  0.00  0.00    +0.000 N 
ATOM      9  H   GLU A   1     -10.467   5.305 129.480  0.00  0.00    +0.000 HD
BRANCH   8  10
ATOM     10  CA  GLU A   1     -11.202   7.172 130.292  0.00  0.00    +0.000 C 
BRANCH  10  11
ATOM     11  C   GLU A   1     -12.247   6.942 131.421  0.00  0.00    +0.000 C 
ATOM     12  OXT GLU A   1     -13.310   7.550 131.468  0.00  0.00    +0.000 OA
BRANCH  11  13
ATOM     13  O   GLU A   1     -11.980   5.989 132.337  0.00  0.00    +0.000 OA
ATOM     14  H   GLU A   1     -11.076   5.887 132.661  0.00  0.00    +0.000 HD
ENDBRANCH  11  13
ENDBRANCH  10  11
BRANCH  10  15
ATOM     15  CB  GLU A   1     -12.029   7.498 129.019  0.00  0.00    +0.000 C 
BRANCH  15  16
ATOM     16  CG  GLU A   1     -11.268   8.288 127.962  0.00  0.00    +0.000 C 
BRANCH  16  17
ATOM     17  CD  GLU A   1     -10.703   7.578 126.766  0.00  0.00    +0.000 C 
ATOM     18  OE2 GLU A   1     -10.913   7.973 125.626  0.00  0.00    +0.000 OA
BRANCH  17  19
ATOM     19  OE1 GLU A   1      -9.900   6.531 127.013  0.00  0.00    +0.000 OA
ATOM     20  HE1 GLU A   1      -9.911   5.817 126.353  0.00  0.00    +0.000 HD
ENDBRANCH  17  19
ENDBRANCH  16  17
ENDBRANCH  15  16
ENDBRANCH  10  15
ENDBRANCH   8  10
ENDBRANCH   4   6
BRANCH   1  22
ATOM     21  C   UNK A   0      -5.946   0.814 129.043  0.00  0.00    +0.000 C 
ATOM     22  N   UNK A   0      -7.066   1.613 128.563  0.00  0.00    +0.000 N 
BRANCH  22  23
ATOM     23  C   UNK A   0      -7.961   1.158 127.491  0.00  0.00    +0.000 C 
BRANCH  23  24
ATOM     24  C   UNK A   0      -7.544   1.524 126.084  0.00  0.00    +0.000 A 
ATOM     25  C   UNK A   0      -7.065   2.811 125.821  0.00  0.00    +0.000 A 
ATOM     26  C   UNK A   0      -6.652   3.135 124.531  0.00  0.00    +0.000 A 
ATOM     27  C   UNK A   0      -6.821   2.237 123.474  0.00  0.00    +0.000 A 
ATOM     28  N   UNK A   0      -6.412   2.610 122.201  0.00  0.00    +0.000 N 
ATOM     29  C   UNK A   0      -5.781   3.809 122.028  0.00  0.00    +0.000 A 
ATOM     30  C   UNK A   0      -5.306   4.126 120.638  0.00  0.00    +0.000 C 
ATOM     31  N   UNK A   0      -5.561   4.692 122.952  0.00  0.00    +0.000 NA
ATOM     32  C   UNK A   0      -5.990   4.428 124.233  0.00  0.00    +0.000 A 
ATOM     33  O   UNK A   0      -5.821   5.220 125.163  0.00  0.00    +0.000 OA
ATOM     34  C   UNK A   0      -7.386   0.992 123.710  0.00  0.00    +0.000 A 
ATOM     35  C   UNK A   0      -7.681   0.618 125.015  0.00  0.00    +0.000 A 
ATOM     36  H   UNK A   0      -6.484   1.937 121.450  0.00  0.00    +0.000 HD
ENDBRANCH  23  24
ENDBRANCH  22  23
ENDBRANCH   1  22
TORSDOF 11
ENDMDL
MODEL 6
REMARK VINA RESULT:      -8.0      1.631      2.519
REMARK  Name = Raltitrexed
REMARK  13 active torsions:
REMARK  status: ('A' for Active; 'I' for Inactive)
REMARK    1  A    between atoms: C_1  and  N_2
REMARK    2  A    between atoms: N_2  and  C_3
REMARK    3  A    between atoms: N_2  and  C_16
REMARK    4  A    between atoms: C_3  and  C_4
REMARK    5  A    between atoms: C_9  and  C_10
REMARK    6  A    between atoms: C_19  and  C_21
REMARK    7  A    between atoms: N_23  and  CA_24
REMARK    8  A    between atoms: CA_24  and  CB_25
REMARK    9  A    between atoms: CA_24  and  C_30
REMARK   10  A    between atoms: CB_25  and  CG_26
REMARK   11  A    between atoms: CG_26  and  CD_27
REMARK   12  A    between atoms: CD_27  and  OE1_28
REMARK   13  A    between atoms: C_30  and  O_31
REMARK                            x       y       z     vdW  Elec       q    Type
REMARK                         _______ _______ _______ _____ _____    ______ ____
ROOT
ATOM      1  C   UNK A   0      -7.808   0.503 130.985  0.00  0.00    +0.000 A 
ATOM      2  C   UNK A   0      -8.857   0.363 131.873  0.00  0.00    +0.000 A 
ATOM      3  C   UNK A   0      -9.840   1.380 131.766  0.00  0.00    +0.000 A 
ATOM      4  C   UNK A   0      -9.499   2.345 130.844  0.00  0.00    +0.000 A 
ATOM      5  S   UNK A   0      -8.014   1.946 130.070  0.00  0.00    +0.000 S 
ENDROOT
BRANCH   4   6
ATOM      6  C   UNK A   0     -10.191   3.581 130.498  0.00  0.00    +0.000 C 
ATOM      7  O   UNK A   0     -11.392   3.637 130.256  0.00  0.00    +0.000 OA
ATOM      8  N   GLU A   1      -9.390   4.724 130.468  0.00  0.00    +0.000 N 
ATOM      9  H   GLU A   1      -8.406   4.568 130.559  0.00  0.00    +0.000 HD
BRANCH   8  10
ATOM     10  CA  GLU A   1      -9.916   6.094 130.285  0.00  0.00    +0.000 C 
BRANCH  10  11
ATOM     11  C   GLU A   1     -10.472   6.438 128.873  0.00  0.00    +0.000 C 
ATOM     12  OXT GLU A   1      -9.760   6.864 127.971  0.00  0.00    +0.000 OA
BRANCH  11  13
ATOM     13  O   GLU A   1     -11.776   6.192 128.638  0.00  0.00    +0.000 OA
ATOM     14  H   GLU A   1     -12.160   6.451 127.790  0.00  0.00    +0.000 HD
ENDBRANCH  11  13
ENDBRANCH  10  11
BRANCH  10  15
ATOM     15  CB  GLU A   1      -8.848   7.180 130.588  0.00  0.00    +0.000 C 
BRANCH  15  16
ATOM     16  CG  GLU A   1      -7.702   6.703 131.470  0.00  0.00    +0.000 C 
BRANCH  16  17
ATOM     17  CD  GLU A   1      -6.316   6.606 130.901  0.00  0.00    +0.000 C 
ATOM     18  OE2 GLU A   1      -5.755   7.576 130.406  0.00  0.00    +0.000 OA
BRANCH  17  19
ATOM     19  OE1 GLU A   1      -5.697   5.421 131.024  0.00  0.00    +0.000 OA
ATOM     20  HE1 GLU A   1      -5.017   5.361 131.716  0.00  0.00    +0.000 HD
ENDBRANCH  17  19
ENDBRANCH  16  17
ENDBRANCH  15  16
ENDBRANCH  10  15
ENDBRANCH   8  10
ENDBRANCH   4   6
BRANCH   1  22
ATOM     21  C   UNK A   0      -5.423   0.156 130.770  0.00  0.00    +0.000 C 
ATOM     22  N   UNK A   0      -6.775  -0.385 130.829  0.00  0.00    +0.000 N 
BRANCH  22  23
ATOM     23  C   UNK A   0      -7.060  -1.819 130.697  0.00  0.00    +0.000 C 
BRANCH  23  24
ATOM     24  C   UNK A   0      -7.628  -2.259 129.366  0.00  0.00    +0.000 A 
ATOM     25  C   UNK A   0      -7.525  -1.411 128.259  0.00  0.00    +0.000 A 
ATOM     26  C   UNK A   0      -8.021  -1.833 127.028  0.00  0.00    +0.000 A 
ATOM     27  C   UNK A   0      -8.724  -3.034 126.908  0.00  0.00    +0.000 A 
ATOM     28  N   UNK A   0      -9.217  -3.405 125.665  0.00  0.00    +0.000 N 
ATOM     29  C   UNK A   0      -8.932  -2.631 124.577  0.00  0.00    +0.000 A 
ATOM     30  C   UNK A   0      -9.439  -3.120 123.249  0.00  0.00    +0.000 C 
ATOM     31  N   UNK A   0      -8.269  -1.516 124.590  0.00  0.00    +0.000 NA
ATOM     32  C   UNK A   0      -7.796  -1.044 125.793  0.00  0.00    +0.000 A 
ATOM     33  O   UNK A   0      -7.161   0.010 125.886  0.00  0.00    +0.000 OA
ATOM     34  C   UNK A   0      -8.915  -3.836 128.024  0.00  0.00    +0.000 A 
ATOM     35  C   UNK A   0      -8.313  -3.481 129.225  0.00  0.00    +0.000 A 
ATOM     36  H   UNK A   0      -9.676  -4.301 125.571  0.00  0.00    +0.000 HD
ENDBRANCH  23  24
ENDBRANCH  22  23
ENDBRANCH   1  22
TORSDOF 11
ENDMDL
MODEL 7
REMARK VINA RESULT:      -7.9      1.960      2.669
REMARK  Name = Raltitrexed
REMARK  13 active torsions:
REMARK  status: ('A' for Active; 'I' for Inactive)
REMARK    1  A    between atoms: C_1  and  N_2
REMARK    2  A    between atoms: N_2  and  C_3
REMARK    3  A    between atoms: N_2  and  C_16
REMARK    4  A    between atoms: C_3  and  C_4
REMARK    5  A    between atoms: C_9  and  C_10
REMARK    6  A    between atoms: C_19  and  C_21
REMARK    7  A    between atoms: N_23  and  CA_24
REMARK    8  A    between atoms: CA_24  and  CB_25
REMARK    9  A    between atoms: CA_24  and  C_30
REMARK   10  A    between atoms: CB_25  and  CG_26
REMARK   11  A    between atoms: CG_26  and  CD_27
REMARK   12  A    between atoms: CD_27  and  OE1_28
REMARK   13  A    between atoms: C_30  and  O_31
REMARK                            x       y       z     vdW  Elec       q    Type
REMARK                         _______ _______ _______ _____ _____    ______ ____
ROOT
ATOM      1  C   UNK A   0      -7.399   3.026 130.482  0.00  0.00    +0.000 A 
ATOM      2  C   UNK A   0      -6.714   4.156 130.078  0.00  0.00    +0.000 A 
ATOM      3  C   UNK A   0      -7.424   5.365 130.293  0.00  0.00    +0.000 A 
ATOM      4  C   UNK A   0      -8.691   5.150 130.789  0.00  0.00    +0.000 A 
ATOM      5  S   UNK A   0      -8.959   3.471 131.059  0.00  0.00    +0.000 S 
ENDROOT
BRANCH   4   6
ATOM      6  C   UNK A   0      -9.752   6.110 131.068  0.00  0.00    +0.000 C 
ATOM      7  O   UNK A   0     -10.031   6.500 132.196  0.00  0.00    +0.000 OA
ATOM      8  N   GLU A   1     -10.441   6.578 129.947  0.00  0.00    +0.000 N 
ATOM      9  H   GLU A   1     -10.230   6.119 129.084  0.00  0.00    +0.000 HD
BRANCH   8  10
ATOM     10  CA  GLU A   1     -11.449   7.659 129.992  0.00  0.00    +0.000 C 
BRANCH  10  11
ATOM     11  C   GLU A   1     -12.907   7.232 130.326  0.00  0.00    +0.000 C 
ATOM     12  OXT GLU A   1     -13.343   7.218 131.472  0.00  0.00    +0.000 OA
BRANCH  11  13
ATOM     13  O   GLU A   1     -13.722   6.930 129.296  0.00  0.00    +0.000 OA
ATOM     14  H   GLU A   1     -13.644   7.427 128.471  0.00  0.00    +0.000 HD
ENDBRANCH  11  13
ENDBRANCH  10  11
BRANCH  10  15
ATOM     15  CB  GLU A   1     -11.540   8.435 128.650  0.00  0.00    +0.000 C 
BRANCH  15  16
ATOM     16  CG  GLU A   1     -10.425   8.113 127.663  0.00  0.00    +0.000 C 
BRANCH  16  17
ATOM     17  CD  GLU A   1     -10.600   6.985 126.687  0.00  0.00    +0.000 C 
ATOM     18  OE2 GLU A   1      -9.651   6.308 126.311  0.00  0.00    +0.000 OA
BRANCH  17  19
ATOM     19  OE1 GLU A   1     -11.857   6.714 126.300  0.00  0.00    +0.000 OA
ATOM     20  HE1 GLU A   1     -11.973   5.925 125.744  0.00  0.00    +0.000 HD
ENDBRANCH  17  19
ENDBRANCH  16  17
ENDBRANCH  15  16
ENDBRANCH  10  15
ENDBRANCH   8  10
ENDBRANCH   4   6
BRANCH   1  22
ATOM     21  C   UNK A   0      -7.339   0.838 131.514  0.00  0.00    +0.000 C 
ATOM     22  N   UNK A   0      -6.905   1.748 130.461  0.00  0.00    +0.000 N 
BRANCH  22  23
ATOM     23  C   UNK A   0      -5.951   1.352 129.417  0.00  0.00    +0.000 C 
BRANCH  23  24
ATOM     24  C   UNK A   0      -6.440   0.306 128.439  0.00  0.00    +0.000 A 
ATOM     25  C   UNK A   0      -7.607   0.542 127.705  0.00  0.00    +0.000 A 
ATOM     26  C   UNK A   0      -8.036  -0.408 126.782  0.00  0.00    +0.000 A 
ATOM     27  C   UNK A   0      -7.390  -1.642 126.665  0.00  0.00    +0.000 A 
ATOM     28  N   UNK A   0      -7.865  -2.566 125.745  0.00  0.00    +0.000 N 
ATOM     29  C   UNK A   0      -8.896  -2.218 124.922  0.00  0.00    +0.000 A 
ATOM     30  C   UNK A   0      -9.322  -3.238 123.904  0.00  0.00    +0.000 C 
ATOM     31  N   UNK A   0      -9.539  -1.091 124.943  0.00  0.00    +0.000 NA
ATOM     32  C   UNK A   0      -9.171  -0.140 125.867  0.00  0.00    +0.000 A 
ATOM     33  O   UNK A   0      -9.737   0.954 125.952  0.00  0.00    +0.000 OA
ATOM     34  C   UNK A   0      -6.288  -1.921 127.461  0.00  0.00    +0.000 A 
ATOM     35  C   UNK A   0      -5.781  -0.929 128.290  0.00  0.00    +0.000 A 
ATOM     36  H   UNK A   0      -7.361  -3.434 125.624  0.00  0.00    +0.000 HD
ENDBRANCH  23  24
ENDBRANCH  22  23
ENDBRANCH   1  22
TORSDOF 11
ENDMDL
MODEL 8
REMARK VINA RESULT:      -7.8      1.959      2.735
REMARK  Name = Raltitrexed
REMARK  13 active torsions:
REMARK  status: ('A' for Active; 'I' for Inactive)
REMARK    1  A    between atoms: C_1  and  N_2
REMARK    2  A    between atoms: N_2  and  C_3
REMARK    3  A    between atoms: N_2  and  C_16
REMARK    4  A    between atoms: C_3  and  C_4
REMARK    5  A    between atoms: C_9  and  C_10
REMARK    6  A    between atoms: C_19  and  C_21
REMARK    7  A    between atoms: N_23  and  CA_24
REMARK    8  A    between atoms: CA_24  and  CB_25
REMARK    9  A    between atoms: CA_24  and  C_30
REMARK   10  A    between atoms: CB_25  and  CG_26
REMARK   11  A    between atoms: CG_26  and  CD_27
REMARK   12  A    between atoms: CD_27  and  OE1_28
REMARK   13  A    between atoms: C_30  and  O_31
REMARK                            x       y       z     vdW  Elec       q    Type
REMARK                         _______ _______ _______ _____ _____    ______ ____
ROOT
ATOM      1  C   UNK A   0      -6.493   2.894 130.092  0.00  0.00    +0.000 A 
ATOM      2  C   UNK A   0      -5.579   3.916 129.924  0.00  0.00    +0.000 A 
ATOM      3  C   UNK A   0      -6.136   5.213 130.064  0.00  0.00    +0.000 A 
ATOM      4  C   UNK A   0      -7.499   5.182 130.260  0.00  0.00    +0.000 A 
ATOM      5  S   UNK A   0      -8.061   3.557 130.348  0.00  0.00    +0.000 S 
ENDROOT
BRANCH   4   6
ATOM      6  C   UNK A   0      -8.445   6.286 130.369  0.00  0.00    +0.000 C 
ATOM      7  O   UNK A   0      -8.104   7.459 130.479  0.00  0.00    +0.000 OA
ATOM      8  N   GLU A   1      -9.793   5.922 130.329  0.00  0.00    +0.000 N 
ATOM      9  H   GLU A   1      -9.978   4.940 130.359  0.00  0.00    +0.000 HD
BRANCH   8  10
ATOM     10  CA  GLU A   1     -10.906   6.893 130.277  0.00  0.00    +0.000 C 
BRANCH  10  11
ATOM     11  C   GLU A   1     -12.048   6.693 131.315  0.00  0.00    +0.000 C 
ATOM     12  OXT GLU A   1     -13.177   7.137 131.145  0.00  0.00    +0.000 OA
BRANCH  11  13
ATOM     13  O   GLU A   1     -11.778   5.947 132.405  0.00  0.00    +0.000 OA
ATOM     14  H   GLU A   1     -11.882   6.338 133.282  0.00  0.00    +0.000 HD
ENDBRANCH  11  13
ENDBRANCH  10  11
BRANCH  10  15
ATOM     15  CB  GLU A   1     -11.604   6.914 128.890  0.00  0.00    +0.000 C 
BRANCH  15  16
ATOM     16  CG  GLU A   1     -11.001   7.903 127.900  0.00  0.00    +0.000 C 
BRANCH  16  17
ATOM     17  CD  GLU A   1     -10.571   7.428 126.542  0.00  0.00    +0.000 C 
ATOM     18  OE2 GLU A   1     -10.856   8.047 125.525  0.00  0.00    +0.000 OA
BRANCH  17  19
ATOM     19  OE1 GLU A   1      -9.802   6.328 126.506  0.00  0.00    +0.000 OA
ATOM     20  HE1 GLU A   1      -9.218   6.187 127.271  0.00  0.00    +0.000 HD
ENDBRANCH  17  19
ENDBRANCH  16  17
ENDBRANCH  15  16
ENDBRANCH  10  15
ENDBRANCH   8  10
ENDBRANCH   4   6
BRANCH   1  22
ATOM     21  C   UNK A   0      -4.792   1.174 130.092  0.00  0.00    +0.000 C 
ATOM     22  N   UNK A   0      -6.198   1.555 130.088  0.00  0.00    +0.000 N 
BRANCH  22  23
ATOM     23  C   UNK A   0      -7.285   0.569 130.050  0.00  0.00    +0.000 C 
BRANCH  23  24
ATOM     24  C   UNK A   0      -7.667   0.060 128.677  0.00  0.00    +0.000 A 
ATOM     25  C   UNK A   0      -7.805  -1.315 128.467  0.00  0.00    +0.000 A 
ATOM     26  C   UNK A   0      -8.188  -1.778 127.210  0.00  0.00    +0.000 A 
ATOM     27  C   UNK A   0      -8.317  -0.902 126.129  0.00  0.00    +0.000 A 
ATOM     28  N   UNK A   0      -8.681  -1.411 124.890  0.00  0.00    +0.000 N 
ATOM     29  C   UNK A   0      -8.985  -2.738 124.777  0.00  0.00    +0.000 A 
ATOM     30  C   UNK A   0      -9.435  -3.214 123.425  0.00  0.00    +0.000 C 
ATOM     31  N   UNK A   0      -8.916  -3.616 125.729  0.00  0.00    +0.000 NA
ATOM     32  C   UNK A   0      -8.504  -3.207 126.976  0.00  0.00    +0.000 A 
ATOM     33  O   UNK A   0      -8.409  -3.985 127.930  0.00  0.00    +0.000 OA
ATOM     34  C   UNK A   0      -8.085   0.454 126.308  0.00  0.00    +0.000 A 
ATOM     35  C   UNK A   0      -7.828   0.935 127.586  0.00  0.00    +0.000 A 
ATOM     36  H   UNK A   0      -8.829  -0.768 124.125  0.00  0.00    +0.000 HD
ENDBRANCH  23  24
ENDBRANCH  22  23
ENDBRANCH   1  22
TORSDOF 11
ENDMDL
MODEL 9
REMARK VINA RESULT:      -7.8      3.683      5.207
REMARK  Name = Raltitrexed
REMARK  13 active torsions:
REMARK  status: ('A' for Active; 'I' for Inactive)
REMARK    1  A    between atoms: C_1  and  N_2
REMARK    2  A    between atoms: N_2  and  C_3
REMARK    3  A    between atoms: N_2  and  C_16
REMARK    4  A    between atoms: C_3  and  C_4
REMARK    5  A    between atoms: C_9  and  C_10
REMARK    6  A    between atoms: C_19  and  C_21
REMARK    7  A    between atoms: N_23  and  CA_24
REMARK    8  A    between atoms: CA_24  and  CB_25
REMARK    9  A    between atoms: CA_24  and  C_30
REMARK   10  A    between atoms: CB_25  and  CG_26
REMARK   11  A    between atoms: CG_26  and  CD_27
REMARK   12  A    between atoms: CD_27  and  OE1_28
REMARK   13  A    between atoms: C_30  and  O_31
REMARK                            x       y       z     vdW  Elec       q    Type
REMARK                         _______ _______ _______ _____ _____    ______ ____
ROOT
ATOM      1  C   UNK A   0      -5.300   5.543 131.595  0.00  0.00    +0.000 A 
ATOM      2  C   UNK A   0      -5.443   6.787 131.011  0.00  0.00    +0.000 A 
ATOM      3  C   UNK A   0      -6.786   7.235 130.934  0.00  0.00    +0.000 A 
ATOM      4  C   UNK A   0      -7.682   6.292 131.389  0.00  0.00    +0.000 A 
ATOM      5  S   UNK A   0      -6.852   4.903 131.978  0.00  0.00    +0.000 S 
ENDROOT
BRANCH   4   6
ATOM      6  C   UNK A   0      -9.139   6.330 131.405  0.00  0.00    +0.000 C 
ATOM      7  O   UNK A   0      -9.814   5.956 132.358  0.00  0.00    +0.000 OA
ATOM      8  N   GLU A   1      -9.735   6.840 130.250  0.00  0.00    +0.000 N 
ATOM      9  H   GLU A   1      -9.117   7.008 129.481  0.00  0.00    +0.000 HD
BRANCH   8  10
ATOM     10  CA  GLU A   1     -11.184   7.101 130.117  0.00  0.00    +0.000 C 
BRANCH  10  11
ATOM     11  C   GLU A   1     -12.058   5.914 129.620  0.00  0.00    +0.000 C 
ATOM     12  OXT GLU A   1     -12.985   6.063 128.833  0.00  0.00    +0.000 OA
BRANCH  11  13
ATOM     13  O   GLU A   1     -11.725   4.676 130.037  0.00  0.00    +0.000 OA
ATOM     14  H   GLU A   1     -11.184   4.574 130.831  0.00  0.00    +0.000 HD
ENDBRANCH  11  13
ENDBRANCH  10  11
BRANCH  10  15
ATOM     15  CB  GLU A   1     -11.484   8.274 129.144  0.00  0.00    +0.000 C 
BRANCH  15  16
ATOM     16  CG  GLU A   1     -10.472   8.426 128.015  0.00  0.00    +0.000 C 
BRANCH  16  17
ATOM     17  CD  GLU A   1     -10.480   7.452 126.873  0.00  0.00    +0.000 C 
ATOM     18  OE2 GLU A   1     -11.099   7.676 125.840  0.00  0.00    +0.000 OA
BRANCH  17  19
ATOM     19  OE1 GLU A   1      -9.719   6.354 127.013  0.00  0.00    +0.000 OA
ATOM     20  HE1 GLU A   1      -8.910   6.458 127.543  0.00  0.00    +0.000 HD
ENDBRANCH  17  19
ENDBRANCH  16  17
ENDBRANCH  15  16
ENDBRANCH  10  15
ENDBRANCH   8  10
ENDBRANCH   4   6
BRANCH   1  22
ATOM     21  C   UNK A   0      -3.894   4.423 133.214  0.00  0.00    +0.000 C 
ATOM     22  N   UNK A   0      -4.108   4.922 131.862  0.00  0.00    +0.000 N 
BRANCH  22  23
ATOM     23  C   UNK A   0      -3.093   4.809 130.808  0.00  0.00    +0.000 C 
BRANCH  23  24
ATOM     24  C   UNK A   0      -3.460   3.936 129.628  0.00  0.00    +0.000 A 
ATOM     25  C   UNK A   0      -4.096   2.710 129.852  0.00  0.00    +0.000 A 
ATOM     26  C   UNK A   0      -4.461   1.923 128.762  0.00  0.00    +0.000 A 
ATOM     27  C   UNK A   0      -4.097   2.280 127.461  0.00  0.00    +0.000 A 
ATOM     28  N   UNK A   0      -4.467   1.455 126.408  0.00  0.00    +0.000 N 
ATOM     29  C   UNK A   0      -5.246   0.362 126.659  0.00  0.00    +0.000 A 
ATOM     30  C   UNK A   0      -5.666  -0.454 125.469  0.00  0.00    +0.000 C 
ATOM     31  N   UNK A   0      -5.649  -0.031 127.827  0.00  0.00    +0.000 NA
ATOM     32  C   UNK A   0      -5.276   0.696 128.934  0.00  0.00    +0.000 A 
ATOM     33  O   UNK A   0      -5.617   0.383 130.077  0.00  0.00    +0.000 OA
ATOM     34  C   UNK A   0      -3.381   3.448 127.242  0.00  0.00    +0.000 A 
ATOM     35  C   UNK A   0      -3.125   4.298 128.310  0.00  0.00    +0.000 A 
ATOM     36  H   UNK A   0      -4.251   1.746 125.464  0.00  0.00    +0.000 HD
ENDBRANCH  23  24
ENDBRANCH  22  23
ENDBRANCH   1  22
TORSDOF 11
ENDMDL
