MODEL 1
REMARK VINA RESULT:      -8.9      0.000      0.000
REMARK  Name = Raltegravir
REMARK  11 active torsions:
REMARK  status: ('A' for Active; 'I' for Inactive)
REMARK    1  A    between atoms: C_1  and  N_2
REMARK    2  A    between atoms: C_5  and  O_6
REMARK    3  A    between atoms: C_7  and  C_22
REMARK    4  A    between atoms: C_9  and  C_10
REMARK    5  A    between atoms: C_10  and  C_11
REMARK    6  A    between atoms: C_10  and  C_12
REMARK    7  A    between atoms: C_10  and  N_13
REMARK    8  A    between atoms: C_14  and  C_16
REMARK    9  A    between atoms: C_19  and  C_20
REMARK   10  A    between atoms: N_24  and  C_25
REMARK   11  A    between atoms: C_25  and  C_26
REMARK                            x       y       z     vdW  Elec       q    Type
REMARK                         _______ _______ _______ _____ _____    ______ ____
ROOT
ATOM      1  C   UNL     1      -5.783   4.476 130.218  0.00  0.00    +0.000 C 
ATOM      2  N   UNL     1      -6.531   3.945 129.092  0.00  0.00    +0.000 N 
ATOM      3  C   UNL     1      -5.746   3.710 127.987  0.00  0.00    +0.000 A 
ATOM      4  O   UNL     1      -4.532   3.920 127.915  0.00  0.00    +0.000 OA
ATOM      5  C   UNL     1      -6.390   3.164 126.790  0.00  0.00    +0.000 A 
ATOM      6  C   UNL     1      -7.708   2.932 126.850  0.00  0.00    +0.000 A 
ATOM      7  N   UNL     1      -8.480   3.193 127.983  0.00  0.00    +0.000 NA
ATOM      8  C   UNL     1      -7.893   3.669 129.063  0.00  0.00    +0.000 A 
ENDROOT
BRANCH   6   9
ATOM      9  C   UNL     1      -8.313   2.347 125.563  0.00  0.00    +0.000 C 
ATOM     10  O   UNL     1      -8.842   1.242 125.483  0.00  0.00    +0.000 OA
ATOM     11  N   UNL     1      -8.235   3.142 124.451  0.00  0.00    +0.000 N 
ATOM     12  H   UNL     1      -7.806   4.044 124.572  0.00  0.00    +0.000 HD
BRANCH  11  13
ATOM     13  C   UNL     1      -8.777   2.681 123.177  0.00  0.00    +0.000 C 
BRANCH  13  14
ATOM     14  C   UNL     1      -8.115   3.258 121.946  0.00  0.00    +0.000 A 
ATOM     15  C   UNL     1      -8.904   3.607 120.830  0.00  0.00    +0.000 A 
ATOM     16  C   UNL     1      -8.314   4.146 119.681  0.00  0.00    +0.000 A 
ATOM     17  C   UNL     1      -6.939   4.338 119.642  0.00  0.00    +0.000 A 
ATOM     18  F   UNL     1      -6.368   4.854 118.547  0.00  0.00    +0.000 F 
ATOM     19  C   UNL     1      -6.144   4.001 120.724  0.00  0.00    +0.000 A 
ATOM     20  C   UNL     1      -6.729   3.463 121.866  0.00  0.00    +0.000 A 
ENDBRANCH  13  14
ENDBRANCH  11  13
ENDBRANCH   6   9
BRANCH   8  21
ATOM     21  C   UNL     1      -8.828   3.924 130.374  0.00  0.00    +0.000 C 
ATOM     22  C   UNL     1     -10.227   3.355 130.063  0.00  0.00    +0.000 C 
ATOM     23  C   UNL     1      -8.198   3.060 131.471  0.00  0.00    +0.000 C 
BRANCH  21  24
ATOM     24  N   UNL     1      -8.998   5.343 130.849  0.00  0.00    +0.000 N 
ATOM     25  C   UNL     1      -9.129   6.524 130.145  0.00  0.00    +0.000 C 
ATOM     26  O   UNL     1      -8.402   7.451 130.536  0.00  0.00    +0.000 OA
ATOM     27  H   UNL     1      -8.396   5.626 131.597  0.00  0.00    +0.000 HD
BRANCH  25  28
ATOM     28  C   UNL     1     -10.130   6.658 129.128  0.00  0.00    +0.000 A 
ATOM     29  N   UNL     1      -9.937   6.478 127.840  0.00  0.00    +0.000 NA
ATOM     30  N   UNL     1     -11.107   6.772 127.215  0.00  0.00    +0.000 NA
ATOM     31  C   UNL     1     -11.987   6.940 128.173  0.00  0.00    +0.000 A 
ATOM     32  C   UNL     1     -13.434   7.078 128.032  0.00  0.00    +0.000 C 
ATOM     33  O   UNL     1     -11.447   6.890 129.430  0.00  0.00    +0.000 OA
ENDBRANCH  25  28
ENDBRANCH  21  24
ENDBRANCH   8  21
BRANCH   5  34
ATOM     34  O   UNL     1      -5.567   2.940 125.707  0.00  0.00    +0.000 OA
ATOM     35  H   UNL     1      -6.159   2.782 124.944  0.00  0.00    +0.000 HD
ENDBRANCH   5  34
TORSDOF 7
ENDMDL
MODEL 2
REMARK VINA RESULT:      -8.6      3.573      4.052
REMARK  Name = Raltegravir
REMARK  11 active torsions:
REMARK  status: ('A' for Active; 'I' for Inactive)
REMARK    1  A    between atoms: C_1  and  N_2
REMARK    2  A    between atoms: C_5  and  O_6
REMARK    3  A    between atoms: C_7  and  C_22
REMARK    4  A    between atoms: C_9  and  C_10
REMARK    5  A    between atoms: C_10  and  C_11
REMARK    6  A    between atoms: C_10  and  C_12
REMARK    7  A    between atoms: C_10  and  N_13
REMARK    8  A    between atoms: C_14  and  C_16
REMARK    9  A    between atoms: C_19  and  C_20
REMARK   10  A    between atoms: N_24  and  C_25
REMARK   11  A    between atoms: C_25  and  C_26
REMARK                            x       y       z     vdW  Elec       q    Type
REMARK                         _______ _______ _______ _____ _____    ______ ____
ROOT
ATOM      1  C   UNL     1      -6.405   4.763 130.494  0.00  0.00    +0.000 C 
ATOM      2  N   UNL     1      -7.098   3.902 129.553  0.00  0.00    +0.000 N 
ATOM      3  C   UNL     1      -6.270   3.386 128.583  0.00  0.00    +0.000 A 
ATOM      4  O   UNL     1      -5.061   3.611 128.483  0.00  0.00    +0.000 OA
ATOM      5  C   UNL     1      -6.858   2.494 127.580  0.00  0.00    +0.000 A 
ATOM      6  C   UNL     1      -8.170   2.242 127.672  0.00  0.00    +0.000 A 
ATOM      7  N   UNL     1      -8.987   2.791 128.662  0.00  0.00    +0.000 NA
ATOM      8  C   UNL     1      -8.450   3.580 129.571  0.00  0.00    +0.000 A 
ENDROOT
BRANCH   6   9
ATOM      9  C   UNL     1      -8.714   1.289 126.596  0.00  0.00    +0.000 C 
ATOM     10  O   UNL     1      -9.413   1.636 125.648  0.00  0.00    +0.000 OA
ATOM     11  N   UNL     1      -8.376  -0.031 126.738  0.00  0.00    +0.000 N 
ATOM     12  H   UNL     1      -7.789  -0.262 127.523  0.00  0.00    +0.000 HD
BRANCH  11  13
ATOM     13  C   UNL     1      -8.843  -1.018 125.772  0.00  0.00    +0.000 C 
BRANCH  13  14
ATOM     14  C   UNL     1      -7.764  -1.884 125.160  0.00  0.00    +0.000 A 
ATOM     15  C   UNL     1      -6.518  -1.312 124.827  0.00  0.00    +0.000 A 
ATOM     16  C   UNL     1      -5.504  -2.094 124.262  0.00  0.00    +0.000 A 
ATOM     17  C   UNL     1      -5.728  -3.445 124.031  0.00  0.00    +0.000 A 
ATOM     18  F   UNL     1      -4.761  -4.199 123.493  0.00  0.00    +0.000 F 
ATOM     19  C   UNL     1      -6.942  -4.028 124.348  0.00  0.00    +0.000 A 
ATOM     20  C   UNL     1      -7.952  -3.251 124.907  0.00  0.00    +0.000 A 
ENDBRANCH  13  14
ENDBRANCH  11  13
ENDBRANCH   6   9
BRANCH   8  21
ATOM     21  C   UNL     1      -9.436   4.169 130.729  0.00  0.00    +0.000 C 
ATOM     22  C   UNL     1     -10.876   3.751 130.368  0.00  0.00    +0.000 C 
ATOM     23  C   UNL     1      -9.029   3.419 132.000  0.00  0.00    +0.000 C 
BRANCH  21  24
ATOM     24  N   UNL     1      -9.429   5.657 130.966  0.00  0.00    +0.000 N 
ATOM     25  C   UNL     1      -9.389   6.715 130.079  0.00  0.00    +0.000 C 
ATOM     26  O   UNL     1      -8.556   7.594 130.349  0.00  0.00    +0.000 OA
ATOM     27  H   UNL     1      -8.812   5.979 131.684  0.00  0.00    +0.000 HD
BRANCH  25  28
ATOM     28  C   UNL     1     -10.341   6.807 129.012  0.00  0.00    +0.000 A 
ATOM     29  N   UNL     1     -10.095   6.548 127.746  0.00  0.00    +0.000 NA
ATOM     30  N   UNL     1     -11.231   6.826 127.054  0.00  0.00    +0.000 NA
ATOM     31  C   UNL     1     -12.148   7.065 127.959  0.00  0.00    +0.000 A 
ATOM     32  C   UNL     1     -13.585   7.220 127.746  0.00  0.00    +0.000 C 
ATOM     33  O   UNL     1     -11.666   7.079 129.241  0.00  0.00    +0.000 OA
ENDBRANCH  25  28
ENDBRANCH  21  24
ENDBRANCH   8  21
BRANCH   5  34
ATOM     34  O   UNL     1      -5.992   1.997 126.629  0.00  0.00    +0.000 OA
ATOM     35  H   UNL     1      -6.507   1.936 125.799  0.00  0.00    +0.000 HD
ENDBRANCH   5  34
TORSDOF 7
ENDMDL
MODEL 3
REMARK VINA RESULT:      -8.5      2.800      3.321
REMARK  Name = Raltegravir
REMARK  11 active torsions:
REMARK  status: ('A' for Active; 'I' for Inactive)
REMARK    1  A    between atoms: C_1  and  N_2
REMARK    2  A    between atoms: C_5  and  O_6
REMARK    3  A    between atoms: C_7  and  C_22
REMARK    4  A    between atoms: C_9  and  C_10
REMARK    5  A    between atoms: C_10  and  C_11
REMARK    6  A    between atoms: C_10  and  C_12
REMARK    7  A    between atoms: C_10  and  N_13
REMARK    8  A    between atoms: C_14  and  C_16
REMARK    9  A    between atoms: C_19  and  C_20
REMARK   10  A    between atoms: N_24  and  C_25
REMARK   11  A    between atoms: C_25  and  C_26
REMARK                            x       y       z     vdW  Elec       q    Type
REMARK                         _______ _______ _______ _____ _____    ______ ____
ROOT
ATOM      1  C   UNL     1      -6.982   4.236 132.343  0.00  0.00    +0.000 C 
ATOM      2  N   UNL     1      -7.306   4.222 130.928  0.00  0.00    +0.000 N 
ATOM      3  C   UNL     1      -6.227   4.511 130.125  0.00  0.00    +0.000 A 
ATOM      4  O   UNL     1      -5.089   4.769 130.524  0.00  0.00    +0.000 OA
ATOM      5  C   UNL     1      -6.432   4.518 128.674  0.00  0.00    +0.000 A 
ATOM      6  C   UNL     1      -7.663   4.243 128.224  0.00  0.00    +0.000 A 
ATOM      7  N   UNL     1      -8.741   3.964 129.065  0.00  0.00    +0.000 NA
ATOM      8  C   UNL     1      -8.548   3.944 130.369  0.00  0.00    +0.000 A 
ENDROOT
BRANCH   6   9
ATOM      9  C   UNL     1      -7.800   4.254 126.692  0.00  0.00    +0.000 C 
ATOM     10  O   UNL     1      -8.518   5.027 126.064  0.00  0.00    +0.000 OA
ATOM     11  N   UNL     1      -7.057   3.323 126.018  0.00  0.00    +0.000 N 
ATOM     12  H   UNL     1      -6.473   2.723 126.578  0.00  0.00    +0.000 HD
BRANCH  11  13
ATOM     13  C   UNL     1      -7.116   3.247 124.562  0.00  0.00    +0.000 C 
BRANCH  13  14
ATOM     14  C   UNL     1      -7.885   2.068 124.007  0.00  0.00    +0.000 A 
ATOM     15  C   UNL     1      -7.241   0.821 123.868  0.00  0.00    +0.000 A 
ATOM     16  C   UNL     1      -7.932  -0.284 123.360  0.00  0.00    +0.000 A 
ATOM     17  C   UNL     1      -9.264  -0.150 122.991  0.00  0.00    +0.000 A 
ATOM     18  F   UNL     1      -9.933  -1.204 122.506  0.00  0.00    +0.000 F 
ATOM     19  C   UNL     1      -9.917   1.064 123.118  0.00  0.00    +0.000 A 
ATOM     20  C   UNL     1      -9.230   2.164 123.620  0.00  0.00    +0.000 A 
ENDBRANCH  13  14
ENDBRANCH  11  13
ENDBRANCH   6   9
BRANCH   8  21
ATOM     21  C   UNL     1      -9.828   3.579 131.311  0.00  0.00    +0.000 C 
ATOM     22  C   UNL     1     -11.059   3.450 130.391  0.00  0.00    +0.000 C 
ATOM     23  C   UNL     1      -9.509   2.190 131.873  0.00  0.00    +0.000 C 
BRANCH  21  24
ATOM     24  N   UNL     1     -10.176   4.533 132.423  0.00  0.00    +0.000 N 
ATOM     25  C   UNL     1     -10.304   5.909 132.429  0.00  0.00    +0.000 C 
ATOM     26  O   UNL     1      -9.716   6.487 133.355  0.00  0.00    +0.000 OA
ATOM     27  H   UNL     1      -9.708   4.377 133.293  0.00  0.00    +0.000 HD
BRANCH  25  28
ATOM     28  C   UNL     1     -11.164   6.563 131.486  0.00  0.00    +0.000 A 
ATOM     29  N   UNL     1     -12.470   6.671 131.592  0.00  0.00    +0.000 NA
ATOM     30  N   UNL     1     -12.912   7.289 130.466  0.00  0.00    +0.000 NA
ATOM     31  C   UNL     1     -11.835   7.677 129.828  0.00  0.00    +0.000 A 
ATOM     32  C   UNL     1     -11.762   8.556 128.664  0.00  0.00    +0.000 C 
ATOM     33  O   UNL     1     -10.669   7.250 130.407  0.00  0.00    +0.000 OA
ENDBRANCH  25  28
ENDBRANCH  21  24
ENDBRANCH   8  21
BRANCH   5  34
ATOM     34  O   UNL     1      -5.325   4.810 127.906  0.00  0.00    +0.000 OA
ATOM     35  H   UNL     1      -4.549   4.536 128.435  0.00  0.00    +0.000 HD
ENDBRANCH   5  34
TORSDOF 7
ENDMDL
MODEL 4
REMARK VINA RESULT:      -8.1      3.260      7.811
REMARK  Name = Raltegravir
REMARK  11 active torsions:
REMARK  status: ('A' for Active; 'I' for Inactive)
REMARK    1  A    between atoms: C_1  and  N_2
REMARK    2  A    between atoms: C_5  and  O_6
REMARK    3  A    between atoms: C_7  and  C_22
REMARK    4  A    between atoms: C_9  and  C_10
REMARK    5  A    between atoms: C_10  and  C_11
REMARK    6  A    between atoms: C_10  and  C_12
REMARK    7  A    between atoms: C_10  and  N_13
REMARK    8  A    between atoms: C_14  and  C_16
REMARK    9  A    between atoms: C_19  and  C_20
REMARK   10  A    between atoms: N_24  and  C_25
REMARK   11  A    between atoms: C_25  and  C_26
REMARK                            x       y       z     vdW  Elec       q    Type
REMARK                         _______ _______ _______ _____ _____    ______ ____
ROOT
ATOM      1  C   UNL     1      -6.375   0.175 126.845  0.00  0.00    +0.000 C 
ATOM      2  N   UNL     1      -7.146   1.173 127.567  0.00  0.00    +0.000 N 
ATOM      3  C   UNL     1      -7.270   0.892 128.908  0.00  0.00    +0.000 A 
ATOM      4  O   UNL     1      -6.798  -0.095 129.477  0.00  0.00    +0.000 OA
ATOM      5  C   UNL     1      -8.021   1.835 129.741  0.00  0.00    +0.000 A 
ATOM      6  C   UNL     1      -8.543   2.911 129.138  0.00  0.00    +0.000 A 
ATOM      7  N   UNL     1      -8.410   3.162 127.771  0.00  0.00    +0.000 NA
ATOM      8  C   UNL     1      -7.719   2.319 127.029  0.00  0.00    +0.000 A 
ENDROOT
BRANCH   6   9
ATOM      9  C   UNL     1      -9.305   3.862 130.076  0.00  0.00    +0.000 C 
ATOM     10  O   UNL     1     -10.227   3.521 130.812  0.00  0.00    +0.000 OA
ATOM     11  N   UNL     1      -8.900   5.169 130.060  0.00  0.00    +0.000 N 
ATOM     12  H   UNL     1      -8.131   5.394 129.451  0.00  0.00    +0.000 HD
BRANCH  11  13
ATOM     13  C   UNL     1      -9.559   6.154 130.911  0.00  0.00    +0.000 C 
BRANCH  13  14
ATOM     14  C   UNL     1     -10.531   7.073 130.203  0.00  0.00    +0.000 A 
ATOM     15  C   UNL     1     -11.814   7.282 130.749  0.00  0.00    +0.000 A 
ATOM     16  C   UNL     1     -12.729   8.130 130.113  0.00  0.00    +0.000 A 
ATOM     17  C   UNL     1     -12.365   8.771 128.937  0.00  0.00    +0.000 A 
ATOM     18  F   UNL     1     -13.234   9.586 128.324  0.00  0.00    +0.000 F 
ATOM     19  C   UNL     1     -11.111   8.581 128.381  0.00  0.00    +0.000 A 
ATOM     20  C   UNL     1     -10.203   7.736 129.011  0.00  0.00    +0.000 A 
ENDBRANCH  13  14
ENDBRANCH  11  13
ENDBRANCH   6   9
BRANCH   8  21
ATOM     21  C   UNL     1      -7.560   2.672 125.446  0.00  0.00    +0.000 C 
ATOM     22  C   UNL     1      -8.242   4.034 125.203  0.00  0.00    +0.000 C 
ATOM     23  C   UNL     1      -6.053   2.854 125.240  0.00  0.00    +0.000 C 
BRANCH  21  24
ATOM     24  N   UNL     1      -8.116   1.689 124.448  0.00  0.00    +0.000 N 
ATOM     25  C   UNL     1      -8.767   1.889 123.247  0.00  0.00    +0.000 C 
ATOM     26  O   UNL     1      -9.806   1.227 123.097  0.00  0.00    +0.000 OA
ATOM     27  H   UNL     1      -8.642   0.931 124.833  0.00  0.00    +0.000 HD
BRANCH  25  28
ATOM     28  C   UNL     1      -8.184   2.715 122.231  0.00  0.00    +0.000 A 
ATOM     29  N   UNL     1      -8.847   3.507 121.418  0.00  0.00    +0.000 NA
ATOM     30  N   UNL     1      -7.942   4.052 120.564  0.00  0.00    +0.000 NA
ATOM     31  C   UNL     1      -6.766   3.698 121.021  0.00  0.00    +0.000 A 
ATOM     32  C   UNL     1      -5.461   4.184 120.581  0.00  0.00    +0.000 C 
ATOM     33  O   UNL     1      -6.825   2.836 122.084  0.00  0.00    +0.000 OA
ENDBRANCH  25  28
ENDBRANCH  21  24
ENDBRANCH   8  21
BRANCH   5  34
ATOM     34  O   UNL     1      -8.118   1.517 131.079  0.00  0.00    +0.000 OA
ATOM     35  H   UNL     1      -8.320   0.561 131.117  0.00  0.00    +0.000 HD
ENDBRANCH   5  34
TORSDOF 7
ENDMDL
MODEL 5
REMARK VINA RESULT:      -8.1      3.780      8.174
REMARK  Name = Raltegravir
REMARK  11 active torsions:
REMARK  status: ('A' for Active; 'I' for Inactive)
REMARK    1  A    between atoms: C_1  and  N_2
REMARK    2  A    between atoms: C_5  and  O_6
REMARK    3  A    between atoms: C_7  and  C_22
REMARK    4  A    between atoms: C_9  and  C_10
REMARK    5  A    between atoms: C_10  and  C_11
REMARK    6  A    between atoms: C_10  and  C_12
REMARK    7  A    between atoms: C_10  and  N_13
REMARK    8  A    between atoms: C_14  and  C_16
REMARK    9  A    between atoms: C_19  and  C_20
REMARK   10  A    between atoms: N_24  and  C_25
REMARK   11  A    between atoms: C_25  and  C_26
REMARK                            x       y       z     vdW  Elec       q    Type
REMARK                         _______ _______ _______ _____ _____    ______ ____
ROOT
ATOM      1  C   UNL     1      -6.833   2.316 122.831  0.00  0.00    +0.000 C 
ATOM      2  N   UNL     1      -7.127   2.788 124.172  0.00  0.00    +0.000 N 
ATOM      3  C   UNL     1      -6.368   3.875 124.540  0.00  0.00    +0.000 A 
ATOM      4  O   UNL     1      -5.511   4.418 123.838  0.00  0.00    +0.000 OA
ATOM      5  C   UNL     1      -6.584   4.445 125.872  0.00  0.00    +0.000 A 
ATOM      6  C   UNL     1      -7.509   3.865 126.649  0.00  0.00    +0.000 A 
ATOM      7  N   UNL     1      -8.255   2.755 126.252  0.00  0.00    +0.000 NA
ATOM      8  C   UNL     1      -8.068   2.255 125.046  0.00  0.00    +0.000 A 
ENDROOT
BRANCH   6   9
ATOM      9  C   UNL     1      -7.690   4.525 128.026  0.00  0.00    +0.000 C 
ATOM     10  O   UNL     1      -6.789   4.684 128.845  0.00  0.00    +0.000 OA
ATOM     11  N   UNL     1      -8.958   4.949 128.324  0.00  0.00    +0.000 N 
ATOM     12  H   UNL     1      -9.657   4.810 127.613  0.00  0.00    +0.000 HD
BRANCH  11  13
ATOM     13  C   UNL     1      -9.238   5.586 129.606  0.00  0.00    +0.000 C 
BRANCH  13  14
ATOM     14  C   UNL     1     -10.322   6.641 129.580  0.00  0.00    +0.000 A 
ATOM     15  C   UNL     1     -10.347   7.587 128.534  0.00  0.00    +0.000 A 
ATOM     16  C   UNL     1     -11.342   8.571 128.488  0.00  0.00    +0.000 A 
ATOM     17  C   UNL     1     -12.312   8.612 129.480  0.00  0.00    +0.000 A 
ATOM     18  F   UNL     1     -13.269   9.548 129.441  0.00  0.00    +0.000 F 
ATOM     19  C   UNL     1     -12.308   7.695 130.517  0.00  0.00    +0.000 A 
ATOM     20  C   UNL     1     -11.317   6.719 130.566  0.00  0.00    +0.000 A 
ENDBRANCH  13  14
ENDBRANCH  11  13
ENDBRANCH   6   9
BRANCH   8  21
ATOM     21  C   UNL     1      -8.988   0.981 124.612  0.00  0.00    +0.000 C 
ATOM     22  C   UNL     1      -9.781   0.536 125.857  0.00  0.00    +0.000 C 
ATOM     23  C   UNL     1      -9.982   1.551 123.596  0.00  0.00    +0.000 C 
BRANCH  21  24
ATOM     24  N   UNL     1      -8.290  -0.229 124.048  0.00  0.00    +0.000 N 
ATOM     25  C   UNL     1      -7.241  -0.981 124.541  0.00  0.00    +0.000 C 
ATOM     26  O   UNL     1      -6.336  -1.217 123.726  0.00  0.00    +0.000 OA
ATOM     27  H   UNL     1      -8.058  -0.183 123.076  0.00  0.00    +0.000 HD
BRANCH  25  28
ATOM     28  C   UNL     1      -7.297  -1.527 125.865  0.00  0.00    +0.000 A 
ATOM     29  N   UNL     1      -6.627  -1.080 126.904  0.00  0.00    +0.000 NA
ATOM     30  N   UNL     1      -6.898  -1.912 127.943  0.00  0.00    +0.000 NA
ATOM     31  C   UNL     1      -7.851  -2.707 127.521  0.00  0.00    +0.000 A 
ATOM     32  C   UNL     1      -8.633  -3.652 128.314  0.00  0.00    +0.000 C 
ATOM     33  O   UNL     1      -8.165  -2.535 126.199  0.00  0.00    +0.000 OA
ENDBRANCH  25  28
ENDBRANCH  21  24
ENDBRANCH   8  21
BRANCH   5  34
ATOM     34  O   UNL     1      -5.805   5.534 126.199  0.00  0.00    +0.000 OA
ATOM     35  H   UNL     1      -6.104   5.826 127.084  0.00  0.00    +0.000 HD
ENDBRANCH   5  34
TORSDOF 7
ENDMDL
MODEL 6
REMARK VINA RESULT:      -8.1      4.696      5.454
REMARK  Name = Raltegravir
REMARK  11 active torsions:
REMARK  status: ('A' for Active; 'I' for Inactive)
REMARK    1  A    between atoms: C_1  and  N_2
REMARK    2  A    between atoms: C_5  and  O_6
REMARK    3  A    between atoms: C_7  and  C_22
REMARK    4  A    between atoms: C_9  and  C_10
REMARK    5  A    between atoms: C_10  and  C_11
REMARK    6  A    between atoms: C_10  and  C_12
REMARK    7  A    between atoms: C_10  and  N_13
REMARK    8  A    between atoms: C_14  and  C_16
REMARK    9  A    between atoms: C_19  and  C_20
REMARK   10  A    between atoms: N_24  and  C_25
REMARK   11  A    between atoms: C_25  and  C_26
REMARK                            x       y       z     vdW  Elec       q    Type
REMARK                         _______ _______ _______ _____ _____    ______ ____
ROOT
ATOM      1  C   UNL     1      -8.271   2.838 133.206  0.00  0.00    +0.000 C 
ATOM      2  N   UNL     1      -7.671   2.075 132.126  0.00  0.00    +0.000 N 
ATOM      3  C   UNL     1      -7.184   0.855 132.534  0.00  0.00    +0.000 A 
ATOM      4  O   UNL     1      -7.225   0.419 133.688  0.00  0.00    +0.000 OA
ATOM      5  C   UNL     1      -6.562  -0.009 131.527  0.00  0.00    +0.000 A 
ATOM      6  C   UNL     1      -6.507   0.450 130.270  0.00  0.00    +0.000 A 
ATOM      7  N   UNL     1      -7.000   1.699 129.889  0.00  0.00    +0.000 NA
ATOM      8  C   UNL     1      -7.572   2.466 130.795  0.00  0.00    +0.000 A 
ENDROOT
BRANCH   6   9
ATOM      9  C   UNL     1      -5.854  -0.515 129.266  0.00  0.00    +0.000 C 
ATOM     10  O   UNL     1      -4.701  -0.929 129.348  0.00  0.00    +0.000 OA
ATOM     11  N   UNL     1      -6.644  -0.916 128.222  0.00  0.00    +0.000 N 
ATOM     12  H   UNL     1      -7.586  -0.561 128.209  0.00  0.00    +0.000 HD
BRANCH  11  13
ATOM     13  C   UNL     1      -6.120  -1.829 127.212  0.00  0.00    +0.000 C 
BRANCH  13  14
ATOM     14  C   UNL     1      -7.136  -2.341 126.215  0.00  0.00    +0.000 A 
ATOM     15  C   UNL     1      -8.486  -2.473 126.602  0.00  0.00    +0.000 A 
ATOM     16  C   UNL     1      -9.444  -2.942 125.696  0.00  0.00    +0.000 A 
ATOM     17  C   UNL     1      -9.060  -3.278 124.405  0.00  0.00    +0.000 A 
ATOM     18  F   UNL     1      -9.972  -3.725 123.532  0.00  0.00    +0.000 F 
ATOM     19  C   UNL     1      -7.741  -3.158 124.002  0.00  0.00    +0.000 A 
ATOM     20  C   UNL     1      -6.788  -2.695 124.903  0.00  0.00    +0.000 A 
ENDBRANCH  13  14
ENDBRANCH  11  13
ENDBRANCH   6   9
BRANCH   8  21
ATOM     21  C   UNL     1      -8.166   3.900 130.298  0.00  0.00    +0.000 C 
ATOM     22  C   UNL     1      -7.133   4.983 130.668  0.00  0.00    +0.000 C 
ATOM     23  C   UNL     1      -8.211   3.790 128.771  0.00  0.00    +0.000 C 
BRANCH  21  24
ATOM     24  N   UNL     1      -9.505   4.330 130.837  0.00  0.00    +0.000 N 
ATOM     25  C   UNL     1     -10.062   5.586 130.981  0.00  0.00    +0.000 C 
ATOM     26  O   UNL     1     -10.572   5.809 132.090  0.00  0.00    +0.000 OA
ATOM     27  H   UNL     1      -9.793   3.889 131.688  0.00  0.00    +0.000 HD
BRANCH  25  28
ATOM     28  C   UNL     1     -10.131   6.484 129.866  0.00  0.00    +0.000 A 
ATOM     29  N   UNL     1      -9.461   7.609 129.751  0.00  0.00    +0.000 NA
ATOM     30  N   UNL     1      -9.860   8.196 128.593  0.00  0.00    +0.000 NA
ATOM     31  C   UNL     1     -10.614   7.310 127.989  0.00  0.00    +0.000 A 
ATOM     32  C   UNL     1     -11.132   7.369 126.624  0.00  0.00    +0.000 C 
ATOM     33  O   UNL     1     -10.846   6.185 128.735  0.00  0.00    +0.000 OA
ENDBRANCH  25  28
ENDBRANCH  21  24
ENDBRANCH   8  21
BRANCH   5  34
ATOM     34  O   UNL     1      -6.090  -1.224 131.978  0.00  0.00    +0.000 OA
ATOM     35  H   UNL     1      -6.870  -1.811 132.040  0.00  0.00    +0.000 HD
ENDBRANCH   5  34
TORSDOF 7
ENDMDL
MODEL 7
REMARK VINA RESULT:      -8.0      5.269      6.345
REMARK  Name = Raltegravir
REMARK  11 active torsions:
REMARK  status: ('A' for Active; 'I' for Inactive)
REMARK    1  A    between atoms: C_1  and  N_2
REMARK    2  A    between atoms: C_5  and  O_6
REMARK    3  A    between atoms: C_7  and  C_22
REMARK    4  A    between atoms: C_9  and  C_10
REMARK    5  A    between atoms: C_10  and  C_11
REMARK    6  A    between atoms: C_10  and  C_12
REMARK    7  A    between atoms: C_10  and  N_13
REMARK    8  A    between atoms: C_14  and  C_16
REMARK    9  A    between atoms: C_19  and  C_20
REMARK   10  A    between atoms: N_24  and  C_25
REMARK   11  A    between atoms: C_25  and  C_26
REMARK                            x       y       z     vdW  Elec       q    Type
REMARK                         _______ _______ _______ _____ _____    ______ ____
ROOT
ATOM      1  C   UNL     1      -7.602   5.627 133.483  0.00  0.00    +0.000 C 
ATOM      2  N   UNL     1      -7.860   4.294 132.967  0.00  0.00    +0.000 N 
ATOM      3  C   UNL     1      -7.233   3.306 133.691  0.00  0.00    +0.000 A 
ATOM      4  O   UNL     1      -6.514   3.489 134.676  0.00  0.00    +0.000 OA
ATOM      5  C   UNL     1      -7.427   1.916 133.268  0.00  0.00    +0.000 A 
ATOM      6  C   UNL     1      -8.203   1.699 132.199  0.00  0.00    +0.000 A 
ATOM      7  N   UNL     1      -8.816   2.725 131.477  0.00  0.00    +0.000 NA
ATOM      8  C   UNL     1      -8.651   3.972 131.870  0.00  0.00    +0.000 A 
ENDROOT
BRANCH   6   9
ATOM      9  C   UNL     1      -8.372   0.218 131.822  0.00  0.00    +0.000 C 
ATOM     10  O   UNL     1      -9.425  -0.407 131.915  0.00  0.00    +0.000 OA
ATOM     11  N   UNL     1      -7.250  -0.413 131.357  0.00  0.00    +0.000 N 
ATOM     12  H   UNL     1      -6.417   0.147 131.285  0.00  0.00    +0.000 HD
BRANCH  11  13
ATOM     13  C   UNL     1      -7.302  -1.820 130.974  0.00  0.00    +0.000 C 
BRANCH  13  14
ATOM     14  C   UNL     1      -7.717  -2.085 129.543  0.00  0.00    +0.000 A 
ATOM     15  C   UNL     1      -8.361  -3.297 129.220  0.00  0.00    +0.000 A 
ATOM     16  C   UNL     1      -8.758  -3.564 127.904  0.00  0.00    +0.000 A 
ATOM     17  C   UNL     1      -8.514  -2.625 126.911  0.00  0.00    +0.000 A 
ATOM     18  F   UNL     1      -8.892  -2.871 125.651  0.00  0.00    +0.000 F 
ATOM     19  C   UNL     1      -7.882  -1.428 127.204  0.00  0.00    +0.000 A 
ATOM     20  C   UNL     1      -7.485  -1.164 128.511  0.00  0.00    +0.000 A 
ENDBRANCH  13  14
ENDBRANCH  11  13
ENDBRANCH   6   9
BRANCH   8  21
ATOM     21  C   UNL     1      -9.416   5.134 131.020  0.00  0.00    +0.000 C 
ATOM     22  C   UNL     1      -8.750   6.480 131.372  0.00  0.00    +0.000 C 
ATOM     23  C   UNL     1      -9.095   4.815 129.557  0.00  0.00    +0.000 C 
BRANCH  21  24
ATOM     24  N   UNL     1     -10.902   5.285 131.216  0.00  0.00    +0.000 N 
ATOM     25  C   UNL     1     -11.742   6.356 130.981  0.00  0.00    +0.000 C 
ATOM     26  O   UNL     1     -12.519   6.625 131.910  0.00  0.00    +0.000 OA
ATOM     27  H   UNL     1     -11.263   4.937 132.081  0.00  0.00    +0.000 HD
BRANCH  25  28
ATOM     28  C   UNL     1     -11.763   6.998 129.700  0.00  0.00    +0.000 A 
ATOM     29  N   UNL     1     -11.262   8.184 129.434  0.00  0.00    +0.000 NA
ATOM     30  N   UNL     1     -11.551   8.458 128.135  0.00  0.00    +0.000 NA
ATOM     31  C   UNL     1     -12.052   7.351 127.643  0.00  0.00    +0.000 A 
ATOM     32  C   UNL     1     -12.341   7.054 126.242  0.00  0.00    +0.000 C 
ATOM     33  O   UNL     1     -12.229   6.364 128.577  0.00  0.00    +0.000 OA
ENDBRANCH  25  28
ENDBRANCH  21  24
ENDBRANCH   8  21
BRANCH   5  34
ATOM     34  O   UNL     1      -6.784   0.958 134.023  0.00  0.00    +0.000 OA
ATOM     35  H   UNL     1      -7.453   0.609 134.646  0.00  0.00    +0.000 HD
ENDBRANCH   5  34
TORSDOF 7
ENDMDL
MODEL 8
REMARK VINA RESULT:      -8.0      5.480      7.897
REMARK  Name = Raltegravir
REMARK  11 active torsions:
REMARK  status: ('A' for Active; 'I' for Inactive)
REMARK    1  A    between atoms: C_1  and  N_2
REMARK    2  A    between atoms: C_5  and  O_6
REMARK    3  A    between atoms: C_7  and  C_22
REMARK    4  A    between atoms: C_9  and  C_10
REMARK    5  A    between atoms: C_10  and  C_11
REMARK    6  A    between atoms: C_10  and  C_12
REMARK    7  A    between atoms: C_10  and  N_13
REMARK    8  A    between atoms: C_14  and  C_16
REMARK    9  A    between atoms: C_19  and  C_20
REMARK   10  A    between atoms: N_24  and  C_25
REMARK   11  A    between atoms: C_25  and  C_26
REMARK                            x       y       z     vdW  Elec       q    Type
REMARK                         _______ _______ _______ _____ _____    ______ ____
ROOT
ATOM      1  C   UNL     1      -7.329   2.951 133.560  0.00  0.00    +0.000 C 
ATOM      2  N   UNL     1      -8.081   3.550 132.471  0.00  0.00    +0.000 N 
ATOM      3  C   UNL     1      -8.664   4.748 132.814  0.00  0.00    +0.000 A 
ATOM      4  O   UNL     1      -8.588   5.288 133.921  0.00  0.00    +0.000 OA
ATOM      5  C   UNL     1      -9.443   5.451 131.792  0.00  0.00    +0.000 A 
ATOM      6  C   UNL     1      -9.538   4.878 130.586  0.00  0.00    +0.000 A 
ATOM      7  N   UNL     1      -8.944   3.654 130.271  0.00  0.00    +0.000 NA
ATOM      8  C   UNL     1      -8.232   3.033 131.190  0.00  0.00    +0.000 A 
ENDROOT
BRANCH   6   9
ATOM      9  C   UNL     1     -10.358   5.678 129.560  0.00  0.00    +0.000 C 
ATOM     10  O   UNL     1      -9.890   6.205 128.554  0.00  0.00    +0.000 OA
ATOM     11  N   UNL     1     -11.697   5.791 129.822  0.00  0.00    +0.000 N 
ATOM     12  H   UNL     1     -12.034   5.329 130.650  0.00  0.00    +0.000 HD
BRANCH  11  13
ATOM     13  C   UNL     1     -12.565   6.532 128.913  0.00  0.00    +0.000 C 
BRANCH  13  14
ATOM     14  C   UNL     1     -12.880   7.951 129.333  0.00  0.00    +0.000 A 
ATOM     15  C   UNL     1     -13.300   8.886 128.365  0.00  0.00    +0.000 A 
ATOM     16  C   UNL     1     -13.600  10.203 128.730  0.00  0.00    +0.000 A 
ATOM     17  C   UNL     1     -13.483  10.590 130.059  0.00  0.00    +0.000 A 
ATOM     18  F   UNL     1     -13.771  11.848 130.416  0.00  0.00    +0.000 F 
ATOM     19  C   UNL     1     -13.071   9.690 131.027  0.00  0.00    +0.000 A 
ATOM     20  C   UNL     1     -12.770   8.381 130.664  0.00  0.00    +0.000 A 
ENDBRANCH  13  14
ENDBRANCH  11  13
ENDBRANCH   6   9
BRANCH   8  21
ATOM     21  C   UNL     1      -7.526   1.625 130.766  0.00  0.00    +0.000 C 
ATOM     22  C   UNL     1      -8.122   0.521 131.664  0.00  0.00    +0.000 C 
ATOM     23  C   UNL     1      -7.996   1.374 129.331  0.00  0.00    +0.000 C 
BRANCH  21  24
ATOM     24  N   UNL     1      -6.025   1.538 130.855  0.00  0.00    +0.000 N 
ATOM     25  C   UNL     1      -5.036   2.196 130.149  0.00  0.00    +0.000 C 
ATOM     26  O   UNL     1      -4.135   1.467 129.707  0.00  0.00    +0.000 OA
ATOM     27  H   UNL     1      -5.646   0.614 130.910  0.00  0.00    +0.000 HD
BRANCH  25  28
ATOM     28  C   UNL     1      -5.031   3.626 130.065  0.00  0.00    +0.000 A 
ATOM     29  N   UNL     1      -5.364   4.329 129.005  0.00  0.00    +0.000 NA
ATOM     30  N   UNL     1      -5.153   5.636 129.309  0.00  0.00    +0.000 NA
ATOM     31  C   UNL     1      -4.875   5.661 130.590  0.00  0.00    +0.000 A 
ATOM     32  C   UNL     1      -4.760   6.836 131.450  0.00  0.00    +0.000 C 
ATOM     33  O   UNL     1      -4.770   4.418 131.155  0.00  0.00    +0.000 OA
ENDBRANCH  25  28
ENDBRANCH  21  24
ENDBRANCH   8  21
BRANCH   5  34
ATOM     34  O   UNL     1     -10.007   6.649 132.177  0.00  0.00    +0.000 OA
ATOM     35  H   UNL     1     -10.926   6.443 132.442  0.00  0.00    +0.000 HD
ENDBRANCH   5  34
TORSDOF 7
ENDMDL
MODEL 9
REMARK VINA RESULT:      -7.9      3.648      7.722
REMARK  Name = Raltegravir
REMARK  11 active torsions:
REMARK  status: ('A' for Active; 'I' for Inactive)
REMARK    1  A    between atoms: C_1  and  N_2
REMARK    2  A    between atoms: C_5  and  O_6
REMARK    3  A    between atoms: C_7  and  C_22
REMARK    4  A    between atoms: C_9  and  C_10
REMARK    5  A    between atoms: C_10  and  C_11
REMARK    6  A    between atoms: C_10  and  C_12
REMARK    7  A    between atoms: C_10  and  N_13
REMARK    8  A    between atoms: C_14  and  C_16
REMARK    9  A    between atoms: C_19  and  C_20
REMARK   10  A    between atoms: N_24  and  C_25
REMARK   11  A    between atoms: C_25  and  C_26
REMARK                            x       y       z     vdW  Elec       q    Type
REMARK                         _______ _______ _______ _____ _____    ______ ____
ROOT
ATOM      1  C   UNL     1      -5.457   1.421 126.221  0.00  0.00    +0.000 C 
ATOM      2  N   UNL     1      -6.445   1.839 127.199  0.00  0.00    +0.000 N 
ATOM      3  C   UNL     1      -6.743   3.180 127.125  0.00  0.00    +0.000 A 
ATOM      4  O   UNL     1      -6.241   3.980 126.331  0.00  0.00    +0.000 OA
ATOM      5  C   UNL     1      -7.736   3.717 128.059  0.00  0.00    +0.000 A 
ATOM      6  C   UNL     1      -8.289   2.863 128.930  0.00  0.00    +0.000 A 
ATOM      7  N   UNL     1      -7.957   1.508 128.988  0.00  0.00    +0.000 NA
ATOM      8  C   UNL     1      -7.075   1.027 128.135  0.00  0.00    +0.000 A 
ENDROOT
BRANCH   6   9
ATOM      9  C   UNL     1      -9.331   3.493 129.869  0.00  0.00    +0.000 C 
ATOM     10  O   UNL     1     -10.498   3.121 129.962  0.00  0.00    +0.000 OA
ATOM     11  N   UNL     1      -8.890   4.537 130.636  0.00  0.00    +0.000 N 
ATOM     12  H   UNL     1      -7.922   4.793 130.534  0.00  0.00    +0.000 HD
BRANCH  11  13
ATOM     13  C   UNL     1      -9.800   5.207 131.559  0.00  0.00    +0.000 C 
BRANCH  13  14
ATOM     14  C   UNL     1     -10.662   6.289 130.946  0.00  0.00    +0.000 A 
ATOM     15  C   UNL     1     -10.175   7.028 129.849  0.00  0.00    +0.000 A 
ATOM     16  C   UNL     1     -10.955   8.032 129.263  0.00  0.00    +0.000 A 
ATOM     17  C   UNL     1     -12.220   8.299 129.769  0.00  0.00    +0.000 A 
ATOM     18  F   UNL     1     -12.974   9.256 129.213  0.00  0.00    +0.000 F 
ATOM     19  C   UNL     1     -12.719   7.588 130.847  0.00  0.00    +0.000 A 
ATOM     20  C   UNL     1     -11.943   6.592 131.431  0.00  0.00    +0.000 A 
ENDBRANCH  13  14
ENDBRANCH  11  13
ENDBRANCH   6   9
BRANCH   8  21
ATOM     21  C   UNL     1      -6.745  -0.568 128.217  0.00  0.00    +0.000 C 
ATOM     22  C   UNL     1      -5.404  -0.726 128.961  0.00  0.00    +0.000 C 
ATOM     23  C   UNL     1      -7.851  -1.145 129.105  0.00  0.00    +0.000 C 
BRANCH  21  24
ATOM     24  N   UNL     1      -6.652  -1.332 126.922  0.00  0.00    +0.000 N 
ATOM     25  C   UNL     1      -7.626  -1.688 126.008  0.00  0.00    +0.000 C 
ATOM     26  O   UNL     1      -7.596  -2.875 125.647  0.00  0.00    +0.000 OA
ATOM     27  H   UNL     1      -6.093  -2.161 126.945  0.00  0.00    +0.000 HD
BRANCH  25  28
ATOM     28  C   UNL     1      -8.504  -0.699 125.457  0.00  0.00    +0.000 A 
ATOM     29  N   UNL     1      -9.707  -0.413 125.903  0.00  0.00    +0.000 NA
ATOM     30  N   UNL     1     -10.233   0.520 125.067  0.00  0.00    +0.000 NA
ATOM     31  C   UNL     1      -9.253   0.873 124.270  0.00  0.00    +0.000 A 
ATOM     32  C   UNL     1      -9.240   1.983 123.320  0.00  0.00    +0.000 C 
ATOM     33  O   UNL     1      -8.110   0.140 124.445  0.00  0.00    +0.000 OA
ENDBRANCH  25  28
ENDBRANCH  21  24
ENDBRANCH   8  21
BRANCH   5  34
ATOM     34  O   UNL     1      -8.006   5.065 127.948  0.00  0.00    +0.000 OA
ATOM     35  H   UNL     1      -8.639   5.274 128.665  0.00  0.00    +0.000 HD
ENDBRANCH   5  34
TORSDOF 7
ENDMDL
