MODEL 1
REMARK VINA RESULT:      -6.2      0.000      0.000
REMARK  Name = Ramelteon
REMARK  5 active torsions:
REMARK  status: ('A' for Active; 'I' for Inactive)
REMARK    1  A    between atoms: C_1  and  C_2
REMARK    2  A    between atoms: C_2  and  C_3
REMARK    3  A    between atoms: N_5  and  C_6
REMARK    4  A    between atoms: C_6  and  C_7
REMARK    5  A    between atoms: C_7  and  C_8
REMARK                            x       y       z     vdW  Elec       q    Type
REMARK                         _______ _______ _______ _____ _____    ______ ____
ROOT
ATOM      1  C   UNL     1      -7.235  -1.841 123.383  0.00  0.00    +0.000 C 
ATOM      2  C   UNL     1      -8.483  -2.350 122.594  0.00  0.00    +0.000 C 
ATOM      3  C   UNL     1      -9.468  -3.011 123.591  0.00  0.00    +0.000 C 
ATOM      4  C   UNL     1      -8.770  -2.927 124.919  0.00  0.00    +0.000 A 
ATOM      5  C   UNL     1      -7.529  -2.286 124.779  0.00  0.00    +0.000 A 
ATOM      6  C   UNL     1      -6.788  -2.155 125.956  0.00  0.00    +0.000 A 
ATOM      7  C   UNL     1      -7.393  -2.659 127.101  0.00  0.00    +0.000 A 
ATOM      8  O   UNL     1      -6.585  -2.462 128.219  0.00  0.00    +0.000 OA
ATOM      9  C   UNL     1      -5.387  -1.786 127.746  0.00  0.00    +0.000 C 
ATOM     10  C   UNL     1      -5.480  -1.560 126.237  0.00  0.00    +0.000 C 
ATOM     11  C   UNL     1      -8.621  -3.283 127.229  0.00  0.00    +0.000 A 
ATOM     12  C   UNL     1      -9.353  -3.428 126.073  0.00  0.00    +0.000 A 
ENDROOT
BRANCH   1  13
ATOM     13  C   UNL     1      -6.931  -0.333 123.357  0.00  0.00    +0.000 C 
BRANCH  13  14
ATOM     14  C   UNL     1      -8.109   0.558 123.687  0.00  0.00    +0.000 C 
BRANCH  14  17
ATOM     15  C   UNL     1      -9.024   0.905 125.898  0.00  0.00    +0.000 C 
ATOM     16  O   UNL     1      -9.977   0.173 125.626  0.00  0.00    +0.000 OA
ATOM     17  N   UNL     1      -8.016   1.156 124.997  0.00  0.00    +0.000 N 
ATOM     18  H   UNL     1      -7.247   1.772 125.229  0.00  0.00    +0.000 HD
BRANCH  15  20
ATOM     19  C   UNL     1      -7.970   0.792 128.149  0.00  0.00    +0.000 C 
ATOM     20  C   UNL     1      -8.873   1.602 127.230  0.00  0.00    +0.000 C 
ENDBRANCH  15  20
ENDBRANCH  14  17
ENDBRANCH  13  14
ENDBRANCH   1  13
TORSDOF 4
ENDMDL
MODEL 2
REMARK VINA RESULT:      -6.2      3.234      4.597
REMARK  Name = Ramelteon
REMARK  5 active torsions:
REMARK  status: ('A' for Active; 'I' for Inactive)
REMARK    1  A    between atoms: C_1  and  C_2
REMARK    2  A    between atoms: C_2  and  C_3
REMARK    3  A    between atoms: N_5  and  C_6
REMARK    4  A    between atoms: C_6  and  C_7
REMARK    5  A    between atoms: C_7  and  C_8
REMARK                            x       y       z     vdW  Elec       q    Type
REMARK                         _______ _______ _______ _____ _____    ______ ____
ROOT
ATOM      1  C   UNL     1      -8.558   0.829 123.542  0.00  0.00    +0.000 C 
ATOM      2  C   UNL     1      -9.651   1.409 124.494  0.00  0.00    +0.000 C 
ATOM      3  C   UNL     1      -9.720   0.528 125.767  0.00  0.00    +0.000 C 
ATOM      4  C   UNL     1      -8.721  -0.566 125.521  0.00  0.00    +0.000 A 
ATOM      5  C   UNL     1      -8.096  -0.388 124.277  0.00  0.00    +0.000 A 
ATOM      6  C   UNL     1      -7.146  -1.354 123.942  0.00  0.00    +0.000 A 
ATOM      7  C   UNL     1      -6.938  -2.343 124.895  0.00  0.00    +0.000 A 
ATOM      8  O   UNL     1      -5.961  -3.243 124.475  0.00  0.00    +0.000 OA
ATOM      9  C   UNL     1      -5.521  -2.790 123.164  0.00  0.00    +0.000 C 
ATOM     10  C   UNL     1      -6.288  -1.528 122.768  0.00  0.00    +0.000 C 
ATOM     11  C   UNL     1      -7.554  -2.506 126.123  0.00  0.00    +0.000 A 
ATOM     12  C   UNL     1      -8.501  -1.565 126.458  0.00  0.00    +0.000 A 
ENDROOT
BRANCH   1  13
ATOM     13  C   UNL     1      -7.358   1.725 123.189  0.00  0.00    +0.000 C 
BRANCH  13  14
ATOM     14  C   UNL     1      -7.718   3.139 122.790  0.00  0.00    +0.000 C 
BRANCH  14  17
ATOM     15  C   UNL     1      -7.760   3.915 120.500  0.00  0.00    +0.000 C 
ATOM     16  O   UNL     1      -8.990   3.855 120.494  0.00  0.00    +0.000 OA
ATOM     17  N   UNL     1      -7.017   3.590 121.611  0.00  0.00    +0.000 N 
ATOM     18  H   UNL     1      -6.006   3.629 121.595  0.00  0.00    +0.000 HD
BRANCH  15  20
ATOM     19  C   UNL     1      -5.650   4.992 119.740  0.00  0.00    +0.000 C 
ATOM     20  C   UNL     1      -6.949   4.336 119.296  0.00  0.00    +0.000 C 
ENDBRANCH  15  20
ENDBRANCH  14  17
ENDBRANCH  13  14
ENDBRANCH   1  13
TORSDOF 4
ENDMDL
MODEL 3
REMARK VINA RESULT:      -6.2      2.396      4.336
REMARK  Name = Ramelteon
REMARK  5 active torsions:
REMARK  status: ('A' for Active; 'I' for Inactive)
REMARK    1  A    between atoms: C_1  and  C_2
REMARK    2  A    between atoms: C_2  and  C_3
REMARK    3  A    between atoms: N_5  and  C_6
REMARK    4  A    between atoms: C_6  and  C_7
REMARK    5  A    between atoms: C_7  and  C_8
REMARK                            x       y       z     vdW  Elec       q    Type
REMARK                         _______ _______ _______ _____ _____    ______ ____
ROOT
ATOM      1  C   UNL     1      -9.031  -1.633 125.957  0.00  0.00    +0.000 C 
ATOM      2  C   UNL     1      -8.785  -0.462 124.954  0.00  0.00    +0.000 C 
ATOM      3  C   UNL     1      -7.416   0.190 125.276  0.00  0.00    +0.000 C 
ATOM      4  C   UNL     1      -6.915  -0.562 126.475  0.00  0.00    +0.000 A 
ATOM      5  C   UNL     1      -7.831  -1.561 126.844  0.00  0.00    +0.000 A 
ATOM      6  C   UNL     1      -7.466  -2.324 127.954  0.00  0.00    +0.000 A 
ATOM      7  C   UNL     1      -6.241  -2.003 128.525  0.00  0.00    +0.000 A 
ATOM      8  O   UNL     1      -5.962  -2.832 129.609  0.00  0.00    +0.000 OA
ATOM      9  C   UNL     1      -7.091  -3.741 129.732  0.00  0.00    +0.000 C 
ATOM     10  C   UNL     1      -8.122  -3.438 128.644  0.00  0.00    +0.000 C 
ATOM     11  C   UNL     1      -5.342  -1.021 128.149  0.00  0.00    +0.000 A 
ATOM     12  C   UNL     1      -5.697  -0.254 127.062  0.00  0.00    +0.000 A 
ENDROOT
BRANCH   1  13
ATOM     13  C   UNL     1      -9.186  -3.053 125.384  0.00  0.00    +0.000 C 
BRANCH  13  14
ATOM     14  C   UNL     1      -8.433  -3.303 124.096  0.00  0.00    +0.000 C 
BRANCH  14  17
ATOM     15  C   UNL     1      -6.122  -2.868 123.532  0.00  0.00    +0.000 C 
ATOM     16  O   UNL     1      -6.475  -2.032 122.699  0.00  0.00    +0.000 OA
ATOM     17  N   UNL     1      -7.027  -3.559 124.303  0.00  0.00    +0.000 N 
ATOM     18  H   UNL     1      -6.723  -4.255 124.972  0.00  0.00    +0.000 HD
BRANCH  15  20
ATOM     19  C   UNL     1      -4.460  -4.719 123.589  0.00  0.00    +0.000 C 
ATOM     20  C   UNL     1      -4.675  -3.225 123.780  0.00  0.00    +0.000 C 
ENDBRANCH  15  20
ENDBRANCH  14  17
ENDBRANCH  13  14
ENDBRANCH   1  13
TORSDOF 4
ENDMDL
MODEL 4
REMARK VINA RESULT:      -6.0      2.785      3.911
REMARK  Name = Ramelteon
REMARK  5 active torsions:
REMARK  status: ('A' for Active; 'I' for Inactive)
REMARK    1  A    between atoms: C_1  and  C_2
REMARK    2  A    between atoms: C_2  and  C_3
REMARK    3  A    between atoms: N_5  and  C_6
REMARK    4  A    between atoms: C_6  and  C_7
REMARK    5  A    between atoms: C_7  and  C_8
REMARK                            x       y       z     vdW  Elec       q    Type
REMARK                         _______ _______ _______ _____ _____    ______ ____
ROOT
ATOM      1  C   UNL     1      -8.409   1.280 123.415  0.00  0.00    +0.000 C 
ATOM      2  C   UNL     1      -9.667   1.229 122.493  0.00  0.00    +0.000 C 
ATOM      3  C   UNL     1     -10.135  -0.244 122.369  0.00  0.00    +0.000 C 
ATOM      4  C   UNL     1      -9.128  -1.025 123.165  0.00  0.00    +0.000 A 
ATOM      5  C   UNL     1      -8.173  -0.163 123.726  0.00  0.00    +0.000 A 
ATOM      6  C   UNL     1      -7.182  -0.784 124.488  0.00  0.00    +0.000 A 
ATOM      7  C   UNL     1      -7.292  -2.165 124.600  0.00  0.00    +0.000 A 
ATOM      8  O   UNL     1      -6.271  -2.685 125.393  0.00  0.00    +0.000 OA
ATOM      9  C   UNL     1      -5.459  -1.552 125.811  0.00  0.00    +0.000 C 
ATOM     10  C   UNL     1      -6.032  -0.260 125.229  0.00  0.00    +0.000 C 
ATOM     11  C   UNL     1      -8.243  -3.005 124.048  0.00  0.00    +0.000 A 
ATOM     12  C   UNL     1      -9.217  -2.404 123.285  0.00  0.00    +0.000 A 
ENDROOT
BRANCH   1  13
ATOM     13  C   UNL     1      -8.500   2.097 124.716  0.00  0.00    +0.000 C 
BRANCH  13  14
ATOM     14  C   UNL     1      -8.059   3.539 124.592  0.00  0.00    +0.000 C 
BRANCH  14  17
ATOM     15  C   UNL     1      -5.984   3.947 123.419  0.00  0.00    +0.000 C 
ATOM     16  O   UNL     1      -5.356   3.822 124.471  0.00  0.00    +0.000 OA
ATOM     17  N   UNL     1      -7.351   3.810 123.363  0.00  0.00    +0.000 N 
ATOM     18  H   UNL     1      -7.855   3.932 122.494  0.00  0.00    +0.000 HD
BRANCH  15  20
ATOM     19  C   UNL     1      -5.651   3.200 121.069  0.00  0.00    +0.000 C 
ATOM     20  C   UNL     1      -5.324   4.272 122.099  0.00  0.00    +0.000 C 
ENDBRANCH  15  20
ENDBRANCH  14  17
ENDBRANCH  13  14
ENDBRANCH   1  13
TORSDOF 4
ENDMDL
MODEL 5
REMARK VINA RESULT:      -6.0      1.890      4.680
REMARK  Name = Ramelteon
REMARK  5 active torsions:
REMARK  status: ('A' for Active; 'I' for Inactive)
REMARK    1  A    between atoms: C_1  and  C_2
REMARK    2  A    between atoms: C_2  and  C_3
REMARK    3  A    between atoms: N_5  and  C_6
REMARK    4  A    between atoms: C_6  and  C_7
REMARK    5  A    between atoms: C_7  and  C_8
REMARK                            x       y       z     vdW  Elec       q    Type
REMARK                         _______ _______ _______ _____ _____    ______ ____
ROOT
ATOM      1  C   UNL     1      -8.126  -0.991 126.965  0.00  0.00    +0.000 C 
ATOM      2  C   UNL     1      -7.916  -2.334 127.732  0.00  0.00    +0.000 C 
ATOM      3  C   UNL     1      -8.309  -3.508 126.799  0.00  0.00    +0.000 C 
ATOM      4  C   UNL     1      -8.786  -2.843 125.540  0.00  0.00    +0.000 A 
ATOM      5  C   UNL     1      -8.688  -1.447 125.657  0.00  0.00    +0.000 A 
ATOM      6  C   UNL     1      -9.109  -0.723 124.540  0.00  0.00    +0.000 A 
ATOM      7  C   UNL     1      -9.547  -1.486 123.464  0.00  0.00    +0.000 A 
ATOM      8  O   UNL     1      -9.925  -0.674 122.397  0.00  0.00    +0.000 OA
ATOM      9  C   UNL     1      -9.711   0.699 122.830  0.00  0.00    +0.000 C 
ATOM     10  C   UNL     1      -9.166   0.713 124.258  0.00  0.00    +0.000 C 
ATOM     11  C   UNL     1      -9.632  -2.863 123.356  0.00  0.00    +0.000 A 
ATOM     12  C   UNL     1      -9.230  -3.585 124.456  0.00  0.00    +0.000 A 
ENDROOT
BRANCH   1  13
ATOM     13  C   UNL     1      -6.900  -0.092 126.733  0.00  0.00    +0.000 C 
BRANCH  13  14
ATOM     14  C   UNL     1      -5.635  -0.830 126.354  0.00  0.00    +0.000 C 
BRANCH  14  17
ATOM     15  C   UNL     1      -5.323  -2.470 124.605  0.00  0.00    +0.000 C 
ATOM     16  O   UNL     1      -5.177  -3.354 125.450  0.00  0.00    +0.000 OA
ATOM     17  N   UNL     1      -5.573  -1.163 124.951  0.00  0.00    +0.000 N 
ATOM     18  H   UNL     1      -5.674  -0.444 124.245  0.00  0.00    +0.000 HD
BRANCH  15  20
ATOM     19  C   UNL     1      -6.221  -1.846 122.370  0.00  0.00    +0.000 C 
ATOM     20  C   UNL     1      -5.232  -2.727 123.118  0.00  0.00    +0.000 C 
ENDBRANCH  15  20
ENDBRANCH  14  17
ENDBRANCH  13  14
ENDBRANCH   1  13
TORSDOF 4
ENDMDL
MODEL 6
REMARK VINA RESULT:      -6.0      1.389      2.262
REMARK  Name = Ramelteon
REMARK  5 active torsions:
REMARK  status: ('A' for Active; 'I' for Inactive)
REMARK    1  A    between atoms: C_1  and  C_2
REMARK    2  A    between atoms: C_2  and  C_3
REMARK    3  A    between atoms: N_5  and  C_6
REMARK    4  A    between atoms: C_6  and  C_7
REMARK    5  A    between atoms: C_7  and  C_8
REMARK                            x       y       z     vdW  Elec       q    Type
REMARK                         _______ _______ _______ _____ _____    ______ ____
ROOT
ATOM      1  C   UNL     1      -6.455  -2.004 125.097  0.00  0.00    +0.000 C 
ATOM      2  C   UNL     1      -7.536  -2.476 124.074  0.00  0.00    +0.000 C 
ATOM      3  C   UNL     1      -8.696  -3.151 124.850  0.00  0.00    +0.000 C 
ATOM      4  C   UNL     1      -8.258  -3.112 126.286  0.00  0.00    +0.000 A 
ATOM      5  C   UNL     1      -7.008  -2.483 126.400  0.00  0.00    +0.000 A 
ATOM      6  C   UNL     1      -6.500  -2.394 127.697  0.00  0.00    +0.000 A 
ATOM      7  C   UNL     1      -7.311  -2.922 128.694  0.00  0.00    +0.000 A 
ATOM      8  O   UNL     1      -6.726  -2.766 129.949  0.00  0.00    +0.000 OA
ATOM      9  C   UNL     1      -5.455  -2.093 129.728  0.00  0.00    +0.000 C 
ATOM     10  C   UNL     1      -5.263  -1.824 128.236  0.00  0.00    +0.000 C 
ATOM     11  C   UNL     1      -8.546  -3.533 128.572  0.00  0.00    +0.000 A 
ATOM     12  C   UNL     1      -9.051  -3.637 127.296  0.00  0.00    +0.000 A 
ENDROOT
BRANCH   1  13
ATOM     13  C   UNL     1      -6.141  -0.500 125.172  0.00  0.00    +0.000 C 
BRANCH  13  14
ATOM     14  C   UNL     1      -7.244   0.350 125.762  0.00  0.00    +0.000 C 
BRANCH  14  17
ATOM     15  C   UNL     1      -9.432   0.711 124.798  0.00  0.00    +0.000 C 
ATOM     16  O   UNL     1      -9.940   0.001 125.667  0.00  0.00    +0.000 OA
ATOM     17  N   UNL     1      -8.081   0.965 124.760  0.00  0.00    +0.000 N 
ATOM     18  H   UNL     1      -7.676   1.538 124.030  0.00  0.00    +0.000 HD
BRANCH  15  20
ATOM     19  C   UNL     1     -10.213   0.481 122.447  0.00  0.00    +0.000 C 
ATOM     20  C   UNL     1     -10.231   1.358 123.690  0.00  0.00    +0.000 C 
ENDBRANCH  15  20
ENDBRANCH  14  17
ENDBRANCH  13  14
ENDBRANCH   1  13
TORSDOF 4
ENDMDL
MODEL 7
REMARK VINA RESULT:      -5.9      2.239      3.278
REMARK  Name = Ramelteon
REMARK  5 active torsions:
REMARK  status: ('A' for Active; 'I' for Inactive)
REMARK    1  A    between atoms: C_1  and  C_2
REMARK    2  A    between atoms: C_2  and  C_3
REMARK    3  A    between atoms: N_5  and  C_6
REMARK    4  A    between atoms: C_6  and  C_7
REMARK    5  A    between atoms: C_7  and  C_8
REMARK                            x       y       z     vdW  Elec       q    Type
REMARK                         _______ _______ _______ _____ _____    ______ ____
ROOT
ATOM      1  C   UNL     1      -8.761  -0.216 123.978  0.00  0.00    +0.000 C 
ATOM      2  C   UNL     1      -9.130  -1.227 122.847  0.00  0.00    +0.000 C 
ATOM      3  C   UNL     1      -9.191  -2.652 123.453  0.00  0.00    +0.000 C 
ATOM      4  C   UNL     1      -8.811  -2.464 124.893  0.00  0.00    +0.000 A 
ATOM      5  C   UNL     1      -8.565  -1.108 125.161  0.00  0.00    +0.000 A 
ATOM      6  C   UNL     1      -8.198  -0.816 126.476  0.00  0.00    +0.000 A 
ATOM      7  C   UNL     1      -8.149  -1.904 127.338  0.00  0.00    +0.000 A 
ATOM      8  O   UNL     1      -7.795  -1.506 128.626  0.00  0.00    +0.000 OA
ATOM      9  C   UNL     1      -7.607  -0.064 128.572  0.00  0.00    +0.000 C 
ATOM     10  C   UNL     1      -7.868   0.441 127.153  0.00  0.00    +0.000 C 
ATOM     11  C   UNL     1      -8.401  -3.237 127.066  0.00  0.00    +0.000 A 
ATOM     12  C   UNL     1      -8.751  -3.537 125.769  0.00  0.00    +0.000 A 
ENDROOT
BRANCH   1  13
ATOM     13  C   UNL     1      -9.772   0.895 124.311  0.00  0.00    +0.000 C 
BRANCH  13  14
ATOM     14  C   UNL     1      -9.189   2.291 124.354  0.00  0.00    +0.000 C 
BRANCH  14  17
ATOM     15  C   UNL     1      -7.808   2.991 122.497  0.00  0.00    +0.000 C 
ATOM     16  O   UNL     1      -8.792   3.474 121.937  0.00  0.00    +0.000 OA
ATOM     17  N   UNL     1      -7.892   2.382 123.727  0.00  0.00    +0.000 N 
ATOM     18  H   UNL     1      -7.077   1.975 124.168  0.00  0.00    +0.000 HD
BRANCH  15  20
ATOM     19  C   UNL     1      -6.422   3.812 120.600  0.00  0.00    +0.000 C 
ATOM     20  C   UNL     1      -6.423   3.007 121.891  0.00  0.00    +0.000 C 
ENDBRANCH  15  20
ENDBRANCH  14  17
ENDBRANCH  13  14
ENDBRANCH   1  13
TORSDOF 4
ENDMDL
MODEL 8
REMARK VINA RESULT:      -5.8      1.418      1.595
REMARK  Name = Ramelteon
REMARK  5 active torsions:
REMARK  status: ('A' for Active; 'I' for Inactive)
REMARK    1  A    between atoms: C_1  and  C_2
REMARK    2  A    between atoms: C_2  and  C_3
REMARK    3  A    between atoms: N_5  and  C_6
REMARK    4  A    between atoms: C_6  and  C_7
REMARK    5  A    between atoms: C_7  and  C_8
REMARK                            x       y       z     vdW  Elec       q    Type
REMARK                         _______ _______ _______ _____ _____    ______ ____
ROOT
ATOM      1  C   UNL     1      -7.207  -1.974 123.427  0.00  0.00    +0.000 C 
ATOM      2  C   UNL     1      -8.457  -2.521 122.669  0.00  0.00    +0.000 C 
ATOM      3  C   UNL     1      -9.451  -3.105 123.704  0.00  0.00    +0.000 C 
ATOM      4  C   UNL     1      -8.756  -2.942 125.025  0.00  0.00    +0.000 A 
ATOM      5  C   UNL     1      -7.508  -2.324 124.848  0.00  0.00    +0.000 A 
ATOM      6  C   UNL     1      -6.769  -2.124 126.016  0.00  0.00    +0.000 A 
ATOM      7  C   UNL     1      -7.381  -2.547 127.190  0.00  0.00    +0.000 A 
ATOM      8  O   UNL     1      -6.575  -2.285 128.295  0.00  0.00    +0.000 OA
ATOM      9  C   UNL     1      -5.368  -1.654 127.783  0.00  0.00    +0.000 C 
ATOM     10  C   UNL     1      -5.455  -1.526 126.262  0.00  0.00    +0.000 C 
ATOM     11  C   UNL     1      -8.616  -3.148 127.354  0.00  0.00    +0.000 A 
ATOM     12  C   UNL     1      -9.347  -3.361 126.208  0.00  0.00    +0.000 A 
ENDROOT
BRANCH   1  13
ATOM     13  C   UNL     1      -6.887  -0.474 123.304  0.00  0.00    +0.000 C 
BRANCH  13  14
ATOM     14  C   UNL     1      -8.026   0.450 123.677  0.00  0.00    +0.000 C 
BRANCH  14  17
ATOM     15  C   UNL     1      -8.515   2.597 124.675  0.00  0.00    +0.000 C 
ATOM     16  O   UNL     1      -9.706   2.294 124.760  0.00  0.00    +0.000 OA
ATOM     17  N   UNL     1      -7.577   1.735 124.157  0.00  0.00    +0.000 N 
ATOM     18  H   UNL     1      -6.604   2.005 124.078  0.00  0.00    +0.000 HD
BRANCH  15  20
ATOM     19  C   UNL     1      -6.574   4.149 124.550  0.00  0.00    +0.000 C 
ATOM     20  C   UNL     1      -7.971   3.937 125.115  0.00  0.00    +0.000 C 
ENDBRANCH  15  20
ENDBRANCH  14  17
ENDBRANCH  13  14
ENDBRANCH   1  13
TORSDOF 4
ENDMDL
MODEL 9
REMARK VINA RESULT:      -5.8      2.268      3.937
REMARK  Name = Ramelteon
REMARK  5 active torsions:
REMARK  status: ('A' for Active; 'I' for Inactive)
REMARK    1  A    between atoms: C_1  and  C_2
REMARK    2  A    between atoms: C_2  and  C_3
REMARK    3  A    between atoms: N_5  and  C_6
REMARK    4  A    between atoms: C_6  and  C_7
REMARK    5  A    between atoms: C_7  and  C_8
REMARK                            x       y       z     vdW  Elec       q    Type
REMARK                         _______ _______ _______ _____ _____    ______ ____
ROOT
ATOM      1  C   UNL     1      -7.983  -2.292 126.422  0.00  0.00    +0.000 C 
ATOM      2  C   UNL     1      -8.937  -3.524 126.528  0.00  0.00    +0.000 C 
ATOM      3  C   UNL     1      -9.004  -3.976 128.008  0.00  0.00    +0.000 C 
ATOM      4  C   UNL     1      -8.063  -3.052 128.726  0.00  0.00    +0.000 A 
ATOM      5  C   UNL     1      -7.498  -2.133 127.827  0.00  0.00    +0.000 A 
ATOM      6  C   UNL     1      -6.601  -1.223 128.388  0.00  0.00    +0.000 A 
ATOM      7  C   UNL     1      -6.409  -1.340 129.759  0.00  0.00    +0.000 A 
ATOM      8  O   UNL     1      -5.515  -0.378 130.223  0.00  0.00    +0.000 OA
ATOM      9  C   UNL     1      -5.114   0.403 129.062  0.00  0.00    +0.000 C 
ATOM     10  C   UNL     1      -5.817  -0.128 127.812  0.00  0.00    +0.000 C 
ATOM     11  C   UNL     1      -6.977  -2.245 130.638  0.00  0.00    +0.000 A 
ATOM     12  C   UNL     1      -7.854  -3.155 130.094  0.00  0.00    +0.000 A 
ENDROOT
BRANCH   1  13
ATOM     13  C   UNL     1      -8.570  -0.966 125.908  0.00  0.00    +0.000 C 
BRANCH  13  14
ATOM     14  C   UNL     1      -7.872  -0.390 124.697  0.00  0.00    +0.000 C 
BRANCH  14  17
ATOM     15  C   UNL     1      -6.691  -1.882 123.206  0.00  0.00    +0.000 C 
ATOM     16  O   UNL     1      -7.685  -1.959 122.483  0.00  0.00    +0.000 OA
ATOM     17  N   UNL     1      -6.671  -1.107 124.342  0.00  0.00    +0.000 N 
ATOM     18  H   UNL     1      -5.851  -1.066 124.934  0.00  0.00    +0.000 HD
BRANCH  15  20
ATOM     19  C   UNL     1      -5.076  -3.555 124.091  0.00  0.00    +0.000 C 
ATOM     20  C   UNL     1      -5.409  -2.633 122.928  0.00  0.00    +0.000 C 
ENDBRANCH  15  20
ENDBRANCH  14  17
ENDBRANCH  13  14
ENDBRANCH   1  13
TORSDOF 4
ENDMDL
