MODEL 1
REMARK VINA RESULT:      -8.2      0.000      0.000
REMARK  Name = Ramipril
REMARK  13 active torsions:
REMARK  status: ('A' for Active; 'I' for Inactive)
REMARK    1  A    between atoms: C_9  and  C_11
REMARK    2  A    between atoms: C_11  and  O_12
REMARK    3  A    between atoms: C_14  and  C_16
REMARK    4  A    between atoms: C_16  and  C_17
REMARK    5  A    between atoms: C_16  and  N_18
REMARK    6  A    between atoms: N_18  and  C_19
REMARK    7  A    between atoms: C_19  and  C_20
REMARK    8  A    between atoms: C_19  and  C_28
REMARK    9  A    between atoms: C_20  and  C_21
REMARK   10  A    between atoms: C_21  and  C_22
REMARK   11  A    between atoms: C_28  and  O_30
REMARK   12  A    between atoms: O_30  and  C_31
REMARK   13  A    between atoms: C_31  and  C_32
REMARK                            x       y       z     vdW  Elec       q    Type
REMARK                         _______ _______ _______ _____ _____    ______ ____
ROOT
ATOM      1  C   UNK A   1      -8.270   1.411 125.808  0.00  0.00    +0.000 C 
ATOM      2  C   UNK A   1      -8.675   1.357 127.282  0.00  0.00    +0.000 C 
ENDROOT
BRANCH   1  11
ATOM      3  C   UNK A   1      -6.497  -1.530 122.866  0.00  0.00    +0.000 C 
ATOM      4  C   UNK A   1      -5.855  -2.729 123.534  0.00  0.00    +0.000 C 
ATOM      5  C   UNK A   1      -5.065  -2.088 124.653  0.00  0.00    +0.000 C 
ATOM      6  C   UNK A   1      -5.983  -1.017 125.195  0.00  0.00    +0.000 C 
ATOM      7  C   UNK A   1      -6.800  -0.538 124.012  0.00  0.00    +0.000 C 
ATOM      8  N   UNK A   1      -8.188  -0.727 124.372  0.00  0.00    +0.000 N 
ATOM      9  C   UNK A   1      -8.776  -1.739 123.464  0.00  0.00    +0.000 C 
ATOM     10  C   UNK A   1      -7.830  -1.892 122.272  0.00  0.00    +0.000 C 
ATOM     11  C   UNK A   1      -8.919   0.072 125.288  0.00  0.00    +0.000 C 
ATOM     12  O   UNK A   1     -10.043  -0.279 125.657  0.00  0.00    +0.000 OA
BRANCH   9  13
ATOM     13  C   UNK A   1      -9.275  -3.026 124.108  0.00  0.00    +0.000 C 
ATOM     14  O   UNK A   1      -8.845  -3.492 125.140  0.00  0.00    +0.000 OA
BRANCH  13  15
ATOM     15  O   UNK A   1     -10.253  -3.618 123.380  0.00  0.00    +0.000 OA
ATOM     16  H   UNK A   1     -10.573  -2.979 122.711  0.00  0.00    +0.000 HD
ENDBRANCH  13  15
ENDBRANCH   9  13
ENDBRANCH   1  11
BRANCH   1  17
ATOM     17  N   UNK A   1      -8.796   2.680 125.198  0.00  0.00    +0.000 NA
ATOM     18  H   UNK A   1      -9.159   3.273 125.954  0.00  0.00    +0.000 HD
BRANCH  17  19
ATOM     19  C   UNK A   0      -7.901   3.566 124.368  0.00  0.00    +0.000 C 
BRANCH  19  20
ATOM     20  C   UNK A   0      -7.971   3.161 122.859  0.00  0.00    +0.000 C 
ATOM     21  O   UNK A   0      -8.987   3.101 122.187  0.00  0.00    +0.000 OA
BRANCH  20  22
ATOM     22  O   UNK A   0      -6.707   2.895 122.375  0.00  0.00    +0.000 OA
BRANCH  22  23
ATOM     23  C   UNK A   0      -6.376   3.561 121.147  0.00  0.00    +0.000 C 
ATOM     24  C   UNK A   0      -5.054   4.302 121.298  0.00  0.00    +0.000 C 
ENDBRANCH  22  23
ENDBRANCH  20  22
ENDBRANCH  19  20
BRANCH  19  25
ATOM     25  C   UNK A   0      -6.408   3.463 124.699  0.00  0.00    +0.000 C 
BRANCH  25  26
ATOM     26  C   UNK A   0      -5.918   4.625 125.475  0.00  0.00    +0.000 C 
BRANCH  26  27
ATOM     27  C   UNK A   0      -4.803   4.334 126.435  0.00  0.00    +0.000 A 
ATOM     28  C   UNK A   0      -4.197   5.292 127.302  0.00  0.00    +0.000 A 
ATOM     29  C   UNK A   0      -2.899   5.058 127.788  0.00  0.00    +0.000 A 
ATOM     30  C   UNK A   0      -2.273   3.840 127.518  0.00  0.00    +0.000 A 
ATOM     31  C   UNK A   0      -2.892   2.895 126.699  0.00  0.00    +0.000 A 
ATOM     32  C   UNK A   0      -4.137   3.148 126.150  0.00  0.00    +0.000 A 
ENDBRANCH  26  27
ENDBRANCH  25  26
ENDBRANCH  19  25
ENDBRANCH  17  19
ENDBRANCH   1  17
TORSDOF 11
ENDMDL
MODEL 2
REMARK VINA RESULT:      -8.1      2.210      4.266
REMARK  Name = Ramipril
REMARK  13 active torsions:
REMARK  status: ('A' for Active; 'I' for Inactive)
REMARK    1  A    between atoms: C_9  and  C_11
REMARK    2  A    between atoms: C_11  and  O_12
REMARK    3  A    between atoms: C_14  and  C_16
REMARK    4  A    between atoms: C_16  and  C_17
REMARK    5  A    between atoms: C_16  and  N_18
REMARK    6  A    between atoms: N_18  and  C_19
REMARK    7  A    between atoms: C_19  and  C_20
REMARK    8  A    between atoms: C_19  and  C_28
REMARK    9  A    between atoms: C_20  and  C_21
REMARK   10  A    between atoms: C_21  and  C_22
REMARK   11  A    between atoms: C_28  and  O_30
REMARK   12  A    between atoms: O_30  and  C_31
REMARK   13  A    between atoms: C_31  and  C_32
REMARK                            x       y       z     vdW  Elec       q    Type
REMARK                         _______ _______ _______ _____ _____    ______ ____
ROOT
ATOM      1  C   UNK A   1      -7.905   1.005 126.219  0.00  0.00    +0.000 C 
ATOM      2  C   UNK A   1      -8.282   0.805 127.688  0.00  0.00    +0.000 C 
ENDROOT
BRANCH   1  11
ATOM      3  C   UNK A   1      -6.389  -1.639 122.878  0.00  0.00    +0.000 C 
ATOM      4  C   UNK A   1      -5.789  -2.940 123.372  0.00  0.00    +0.000 C 
ATOM      5  C   UNK A   1      -4.930  -2.479 124.528  0.00  0.00    +0.000 C 
ATOM      6  C   UNK A   1      -5.771  -1.438 125.229  0.00  0.00    +0.000 C 
ATOM      7  C   UNK A   1      -6.600  -0.780 124.145  0.00  0.00    +0.000 C 
ATOM      8  N   UNK A   1      -7.984  -0.943 124.535  0.00  0.00    +0.000 N 
ATOM      9  C   UNK A   1      -8.654  -1.808 123.536  0.00  0.00    +0.000 C 
ATOM     10  C   UNK A   1      -7.757  -1.860 122.297  0.00  0.00    +0.000 C 
ATOM     11  C   UNK A   1      -8.640  -0.227 125.568  0.00  0.00    +0.000 C 
ATOM     12  O   UNK A   1      -9.768  -0.565 125.936  0.00  0.00    +0.000 OA
BRANCH   9  13
ATOM     13  C   UNK A   1      -9.200  -3.138 124.039  0.00  0.00    +0.000 C 
ATOM     14  O   UNK A   1      -8.733  -3.769 124.962  0.00  0.00    +0.000 OA
BRANCH  13  15
ATOM     15  O   UNK A   1     -10.267  -3.560 123.320  0.00  0.00    +0.000 OA
ATOM     16  H   UNK A   1     -10.220  -4.534 123.235  0.00  0.00    +0.000 HD
ENDBRANCH  13  15
ENDBRANCH   9  13
ENDBRANCH   1  11
BRANCH   1  17
ATOM     17  N   UNK A   1      -8.369   2.363 125.771  0.00  0.00    +0.000 NA
ATOM     18  H   UNK A   1      -9.242   2.582 126.267  0.00  0.00    +0.000 HD
BRANCH  17  19
ATOM     19  C   UNK A   0      -7.484   3.573 125.933  0.00  0.00    +0.000 C 
BRANCH  19  20
ATOM     20  C   UNK A   0      -8.306   4.787 126.480  0.00  0.00    +0.000 C 
ATOM     21  O   UNK A   0      -8.887   5.614 125.798  0.00  0.00    +0.000 OA
BRANCH  20  22
ATOM     22  O   UNK A   0      -8.301   4.787 127.859  0.00  0.00    +0.000 OA
BRANCH  22  23
ATOM     23  C   UNK A   0      -7.122   4.233 128.462  0.00  0.00    +0.000 C 
ATOM     24  C   UNK A   0      -7.440   3.735 129.865  0.00  0.00    +0.000 C 
ENDBRANCH  22  23
ENDBRANCH  20  22
ENDBRANCH  19  20
BRANCH  19  25
ATOM     25  C   UNK A   0      -6.880   4.108 124.629  0.00  0.00    +0.000 C 
BRANCH  25  26
ATOM     26  C   UNK A   0      -6.415   3.024 123.734  0.00  0.00    +0.000 C 
BRANCH  26  27
ATOM     27  C   UNK A   0      -6.804   3.168 122.292  0.00  0.00    +0.000 A 
ATOM     28  C   UNK A   0      -5.955   3.667 121.260  0.00  0.00    +0.000 A 
ATOM     29  C   UNK A   0      -6.529   4.200 120.093  0.00  0.00    +0.000 A 
ATOM     30  C   UNK A   0      -7.910   4.122 119.908  0.00  0.00    +0.000 A 
ATOM     31  C   UNK A   0      -8.727   3.598 120.910  0.00  0.00    +0.000 A 
ATOM     32  C   UNK A   0      -8.180   3.141 122.096  0.00  0.00    +0.000 A 
ENDBRANCH  26  27
ENDBRANCH  25  26
ENDBRANCH  19  25
ENDBRANCH  17  19
ENDBRANCH   1  17
TORSDOF 11
ENDMDL
MODEL 3
REMARK VINA RESULT:      -7.7      2.994      7.294
REMARK  Name = Ramipril
REMARK  13 active torsions:
REMARK  status: ('A' for Active; 'I' for Inactive)
REMARK    1  A    between atoms: C_9  and  C_11
REMARK    2  A    between atoms: C_11  and  O_12
REMARK    3  A    between atoms: C_14  and  C_16
REMARK    4  A    between atoms: C_16  and  C_17
REMARK    5  A    between atoms: C_16  and  N_18
REMARK    6  A    between atoms: N_18  and  C_19
REMARK    7  A    between atoms: C_19  and  C_20
REMARK    8  A    between atoms: C_19  and  C_28
REMARK    9  A    between atoms: C_20  and  C_21
REMARK   10  A    between atoms: C_21  and  C_22
REMARK   11  A    between atoms: C_28  and  O_30
REMARK   12  A    between atoms: O_30  and  C_31
REMARK   13  A    between atoms: C_31  and  C_32
REMARK                            x       y       z     vdW  Elec       q    Type
REMARK                         _______ _______ _______ _____ _____    ______ ____
ROOT
ATOM      1  C   UNK A   1      -7.557   0.580 127.765  0.00  0.00    +0.000 C 
ATOM      2  C   UNK A   1      -7.931   0.850 129.224  0.00  0.00    +0.000 C 
ENDROOT
BRANCH   1  11
ATOM      3  C   UNK A   1      -7.473   1.974 123.464  0.00  0.00    +0.000 C 
ATOM      4  C   UNK A   1      -8.798   2.541 122.994  0.00  0.00    +0.000 C 
ATOM      5  C   UNK A   1      -9.787   1.527 123.525  0.00  0.00    +0.000 C 
ATOM      6  C   UNK A   1      -9.278   1.194 124.908  0.00  0.00    +0.000 C 
ATOM      7  C   UNK A   1      -7.770   1.325 124.835  0.00  0.00    +0.000 C 
ATOM      8  N   UNK A   1      -7.395   2.290 125.844  0.00  0.00    +0.000 N 
ATOM      9  C   UNK A   1      -6.821   3.477 125.169  0.00  0.00    +0.000 C 
ATOM     10  C   UNK A   1      -6.482   3.071 123.734  0.00  0.00    +0.000 C 
ATOM     11  C   UNK A   1      -7.376   2.056 127.243  0.00  0.00    +0.000 C 
ATOM     12  O   UNK A   1      -7.211   2.995 128.026  0.00  0.00    +0.000 OA
BRANCH   9  13
ATOM     13  C   UNK A   1      -7.569   4.793 125.347  0.00  0.00    +0.000 C 
ATOM     14  O   UNK A   1      -8.726   4.885 125.692  0.00  0.00    +0.000 OA
BRANCH  13  15
ATOM     15  O   UNK A   1      -6.797   5.866 125.051  0.00  0.00    +0.000 OA
ATOM     16  H   UNK A   1      -6.295   6.118 125.852  0.00  0.00    +0.000 HD
ENDBRANCH  13  15
ENDBRANCH   9  13
ENDBRANCH   1  11
BRANCH   1  17
ATOM     17  N   UNK A   1      -6.333  -0.290 127.722  0.00  0.00    +0.000 NA
ATOM     18  H   UNK A   1      -5.810  -0.151 128.595  0.00  0.00    +0.000 HD
BRANCH  17  19
ATOM     19  C   UNK A   0      -6.453  -1.783 127.544  0.00  0.00    +0.000 C 
BRANCH  19  20
ATOM     20  C   UNK A   0      -6.000  -2.531 128.841  0.00  0.00    +0.000 C 
ATOM     21  O   UNK A   0      -4.981  -2.304 129.471  0.00  0.00    +0.000 OA
BRANCH  20  22
ATOM     22  O   UNK A   0      -6.933  -3.482 129.196  0.00  0.00    +0.000 OA
BRANCH  22  23
ATOM     23  C   UNK A   0      -8.302  -3.083 129.029  0.00  0.00    +0.000 C 
ATOM     24  C   UNK A   0      -9.028  -4.079 128.134  0.00  0.00    +0.000 C 
ENDBRANCH  22  23
ENDBRANCH  20  22
ENDBRANCH  19  20
BRANCH  19  25
ATOM     25  C   UNK A   0      -5.551  -2.376 126.455  0.00  0.00    +0.000 C 
BRANCH  25  26
ATOM     26  C   UNK A   0      -5.719  -1.699 125.149  0.00  0.00    +0.000 C 
BRANCH  26  27
ATOM     27  C   UNK A   0      -6.782  -2.271 124.259  0.00  0.00    +0.000 A 
ATOM     28  C   UNK A   0      -7.260  -1.665 123.058  0.00  0.00    +0.000 A 
ATOM     29  C   UNK A   0      -8.533  -2.008 122.573  0.00  0.00    +0.000 A 
ATOM     30  C   UNK A   0      -9.259  -3.022 123.201  0.00  0.00    +0.000 A 
ATOM     31  C   UNK A   0      -8.765  -3.633 124.353  0.00  0.00    +0.000 A 
ATOM     32  C   UNK A   0      -7.546  -3.249 124.885  0.00  0.00    +0.000 A 
ENDBRANCH  26  27
ENDBRANCH  25  26
ENDBRANCH  19  25
ENDBRANCH  17  19
ENDBRANCH   1  17
TORSDOF 11
ENDMDL
MODEL 4
REMARK VINA RESULT:      -7.7      2.718      6.473
REMARK  Name = Ramipril
REMARK  13 active torsions:
REMARK  status: ('A' for Active; 'I' for Inactive)
REMARK    1  A    between atoms: C_9  and  C_11
REMARK    2  A    between atoms: C_11  and  O_12
REMARK    3  A    between atoms: C_14  and  C_16
REMARK    4  A    between atoms: C_16  and  C_17
REMARK    5  A    between atoms: C_16  and  N_18
REMARK    6  A    between atoms: N_18  and  C_19
REMARK    7  A    between atoms: C_19  and  C_20
REMARK    8  A    between atoms: C_19  and  C_28
REMARK    9  A    between atoms: C_20  and  C_21
REMARK   10  A    between atoms: C_21  and  C_22
REMARK   11  A    between atoms: C_28  and  O_30
REMARK   12  A    between atoms: O_30  and  C_31
REMARK   13  A    between atoms: C_31  and  C_32
REMARK                            x       y       z     vdW  Elec       q    Type
REMARK                         _______ _______ _______ _____ _____    ______ ____
ROOT
ATOM      1  C   UNK A   1      -8.907   0.501 123.497  0.00  0.00    +0.000 C 
ATOM      2  C   UNK A   1      -9.914   1.081 122.502  0.00  0.00    +0.000 C 
ENDROOT
BRANCH   1  11
ATOM      3  C   UNK A   1      -5.472   3.044 124.976  0.00  0.00    +0.000 C 
ATOM      4  C   UNK A   1      -5.448   4.429 124.363  0.00  0.00    +0.000 C 
ATOM      5  C   UNK A   1      -5.703   4.138 122.900  0.00  0.00    +0.000 C 
ATOM      6  C   UNK A   1      -6.771   3.070 122.911  0.00  0.00    +0.000 C 
ATOM      7  C   UNK A   1      -6.531   2.259 124.168  0.00  0.00    +0.000 C 
ATOM      8  N   UNK A   1      -7.760   2.310 124.929  0.00  0.00    +0.000 N 
ATOM      9  C   UNK A   1      -7.498   3.032 126.196  0.00  0.00    +0.000 C 
ATOM     10  C   UNK A   1      -5.982   3.087 126.389  0.00  0.00    +0.000 C 
ATOM     11  C   UNK A   1      -8.951   1.606 124.620  0.00  0.00    +0.000 C 
ATOM     12  O   UNK A   1      -9.994   1.855 125.231  0.00  0.00    +0.000 OA
BRANCH   9  13
ATOM     13  C   UNK A   1      -8.261   4.333 126.411  0.00  0.00    +0.000 C 
ATOM     14  O   UNK A   1      -8.370   4.899 127.476  0.00  0.00    +0.000 OA
BRANCH  13  15
ATOM     15  O   UNK A   1      -8.834   4.788 125.270  0.00  0.00    +0.000 OA
ATOM     16  H   UNK A   1      -9.401   4.079 124.904  0.00  0.00    +0.000 HD
ENDBRANCH  13  15
ENDBRANCH   9  13
ENDBRANCH   1  11
BRANCH   1  17
ATOM     17  N   UNK A   1      -9.354  -0.874 123.907  0.00  0.00    +0.000 NA
ATOM     18  H   UNK A   1      -9.572  -1.407 123.056  0.00  0.00    +0.000 HD
BRANCH  17  19
ATOM     19  C   UNK A   0      -8.460  -1.762 124.735  0.00  0.00    +0.000 C 
BRANCH  19  20
ATOM     20  C   UNK A   0      -8.454  -3.220 124.168  0.00  0.00    +0.000 C 
ATOM     21  O   UNK A   0      -9.392  -3.770 123.617  0.00  0.00    +0.000 OA
BRANCH  20  22
ATOM     22  O   UNK A   0      -7.219  -3.804 124.359  0.00  0.00    +0.000 OA
BRANCH  22  23
ATOM     23  C   UNK A   0      -6.098  -2.924 124.188  0.00  0.00    +0.000 C 
ATOM     24  C   UNK A   0      -4.896  -3.706 123.676  0.00  0.00    +0.000 C 
ENDBRANCH  22  23
ENDBRANCH  20  22
ENDBRANCH  19  20
BRANCH  19  25
ATOM     25  C   UNK A   0      -8.904  -1.946 126.191  0.00  0.00    +0.000 C 
BRANCH  25  26
ATOM     26  C   UNK A   0      -7.933  -1.379 127.155  0.00  0.00    +0.000 C 
BRANCH  26  27
ATOM     27  C   UNK A   0      -7.130  -2.384 127.926  0.00  0.00    +0.000 A 
ATOM     28  C   UNK A   0      -7.647  -3.239 128.944  0.00  0.00    +0.000 A 
ATOM     29  C   UNK A   0      -6.772  -3.775 129.904  0.00  0.00    +0.000 A 
ATOM     30  C   UNK A   0      -5.398  -3.564 129.777  0.00  0.00    +0.000 A 
ATOM     31  C   UNK A   0      -4.900  -2.756 128.754  0.00  0.00    +0.000 A 
ATOM     32  C   UNK A   0      -5.760  -2.158 127.849  0.00  0.00    +0.000 A 
ENDBRANCH  26  27
ENDBRANCH  25  26
ENDBRANCH  19  25
ENDBRANCH  17  19
ENDBRANCH   1  17
TORSDOF 11
ENDMDL
MODEL 5
REMARK VINA RESULT:      -7.5      3.307      7.468
REMARK  Name = Ramipril
REMARK  13 active torsions:
REMARK  status: ('A' for Active; 'I' for Inactive)
REMARK    1  A    between atoms: C_9  and  C_11
REMARK    2  A    between atoms: C_11  and  O_12
REMARK    3  A    between atoms: C_14  and  C_16
REMARK    4  A    between atoms: C_16  and  C_17
REMARK    5  A    between atoms: C_16  and  N_18
REMARK    6  A    between atoms: N_18  and  C_19
REMARK    7  A    between atoms: C_19  and  C_20
REMARK    8  A    between atoms: C_19  and  C_28
REMARK    9  A    between atoms: C_20  and  C_21
REMARK   10  A    between atoms: C_21  and  C_22
REMARK   11  A    between atoms: C_28  and  O_30
REMARK   12  A    between atoms: O_30  and  C_31
REMARK   13  A    between atoms: C_31  and  C_32
REMARK                            x       y       z     vdW  Elec       q    Type
REMARK                         _______ _______ _______ _____ _____    ______ ____
ROOT
ATOM      1  C   UNK A   1      -7.770   0.849 128.462  0.00  0.00    +0.000 C 
ATOM      2  C   UNK A   1      -8.271   1.330 129.824  0.00  0.00    +0.000 C 
ENDROOT
BRANCH   1  11
ATOM      3  C   UNK A   1      -7.480   1.554 124.004  0.00  0.00    +0.000 C 
ATOM      4  C   UNK A   1      -8.788   2.000 123.384  0.00  0.00    +0.000 C 
ATOM      5  C   UNK A   1      -9.783   1.053 124.017  0.00  0.00    +0.000 C 
ATOM      6  C   UNK A   1      -9.344   0.956 125.459  0.00  0.00    +0.000 C 
ATOM      7  C   UNK A   1      -7.838   1.119 125.443  0.00  0.00    +0.000 C 
ATOM      8  N   UNK A   1      -7.539   2.241 126.305  0.00  0.00    +0.000 N 
ATOM      9  C   UNK A   1      -6.955   3.324 125.481  0.00  0.00    +0.000 C 
ATOM     10  C   UNK A   1      -6.528   2.709 124.147  0.00  0.00    +0.000 C 
ATOM     11  C   UNK A   1      -7.591   2.230 127.723  0.00  0.00    +0.000 C 
ATOM     12  O   UNK A   1      -7.490   3.284 128.355  0.00  0.00    +0.000 OA
BRANCH   9  13
ATOM     13  C   UNK A   1      -7.739   4.628 125.410  0.00  0.00    +0.000 C 
ATOM     14  O   UNK A   1      -8.923   4.733 125.644  0.00  0.00    +0.000 OA
BRANCH  13  15
ATOM     15  O   UNK A   1      -6.965   5.673 125.030  0.00  0.00    +0.000 OA
ATOM     16  H   UNK A   1      -6.304   5.351 124.384  0.00  0.00    +0.000 HD
ENDBRANCH  13  15
ENDBRANCH   9  13
ENDBRANCH   1  11
BRANCH   1  17
ATOM     17  N   UNK A   1      -6.519   0.037 128.654  0.00  0.00    +0.000 NA
ATOM     18  H   UNK A   1      -6.110   0.290 129.562  0.00  0.00    +0.000 HD
BRANCH  17  19
ATOM     19  C   UNK A   0      -6.565  -1.469 128.624  0.00  0.00    +0.000 C 
BRANCH  19  20
ATOM     20  C   UNK A   0      -5.368  -2.073 129.430  0.00  0.00    +0.000 C 
ATOM     21  O   UNK A   0      -4.204  -2.089 129.065  0.00  0.00    +0.000 OA
BRANCH  20  22
ATOM     22  O   UNK A   0      -5.806  -2.575 130.637  0.00  0.00    +0.000 OA
BRANCH  22  23
ATOM     23  C   UNK A   0      -6.535  -3.809 130.552  0.00  0.00    +0.000 C 
ATOM     24  C   UNK A   0      -5.591  -4.986 130.756  0.00  0.00    +0.000 C 
ENDBRANCH  22  23
ENDBRANCH  20  22
ENDBRANCH  19  20
BRANCH  19  25
ATOM     25  C   UNK A   0      -6.410  -2.092 127.232  0.00  0.00    +0.000 C 
BRANCH  25  26
ATOM     26  C   UNK A   0      -7.700  -2.557 126.673  0.00  0.00    +0.000 C 
BRANCH  26  27
ATOM     27  C   UNK A   0      -7.755  -2.659 125.177  0.00  0.00    +0.000 A 
ATOM     28  C   UNK A   0      -6.754  -2.169 124.285  0.00  0.00    +0.000 A 
ATOM     29  C   UNK A   0      -7.098  -1.883 122.953  0.00  0.00    +0.000 A 
ATOM     30  C   UNK A   0      -8.377  -2.196 122.491  0.00  0.00    +0.000 A 
ATOM     31  C   UNK A   0      -9.337  -2.710 123.363  0.00  0.00    +0.000 A 
ATOM     32  C   UNK A   0      -9.032  -2.923 124.697  0.00  0.00    +0.000 A 
ENDBRANCH  26  27
ENDBRANCH  25  26
ENDBRANCH  19  25
ENDBRANCH  17  19
ENDBRANCH   1  17
TORSDOF 11
ENDMDL
MODEL 6
REMARK VINA RESULT:      -7.5      1.569      2.126
REMARK  Name = Ramipril
REMARK  13 active torsions:
REMARK  status: ('A' for Active; 'I' for Inactive)
REMARK    1  A    between atoms: C_9  and  C_11
REMARK    2  A    between atoms: C_11  and  O_12
REMARK    3  A    between atoms: C_14  and  C_16
REMARK    4  A    between atoms: C_16  and  C_17
REMARK    5  A    between atoms: C_16  and  N_18
REMARK    6  A    between atoms: N_18  and  C_19
REMARK    7  A    between atoms: C_19  and  C_20
REMARK    8  A    between atoms: C_19  and  C_28
REMARK    9  A    between atoms: C_20  and  C_21
REMARK   10  A    between atoms: C_21  and  C_22
REMARK   11  A    between atoms: C_28  and  O_30
REMARK   12  A    between atoms: O_30  and  C_31
REMARK   13  A    between atoms: C_31  and  C_32
REMARK                            x       y       z     vdW  Elec       q    Type
REMARK                         _______ _______ _______ _____ _____    ______ ____
ROOT
ATOM      1  C   UNK A   1      -8.160   1.610 123.628  0.00  0.00    +0.000 C 
ATOM      2  C   UNK A   1      -9.335   2.220 122.861  0.00  0.00    +0.000 C 
ENDROOT
BRANCH   1  11
ATOM      3  C   UNK A   1      -5.548  -1.916 124.719  0.00  0.00    +0.000 C 
ATOM      4  C   UNK A   1      -5.825  -2.457 126.107  0.00  0.00    +0.000 C 
ATOM      5  C   UNK A   1      -5.910  -1.192 126.933  0.00  0.00    +0.000 C 
ATOM      6  C   UNK A   1      -6.684  -0.228 126.066  0.00  0.00    +0.000 C 
ATOM      7  C   UNK A   1      -6.330  -0.586 124.636  0.00  0.00    +0.000 C 
ATOM      8  N   UNK A   1      -7.579  -0.877 123.967  0.00  0.00    +0.000 N 
ATOM      9  C   UNK A   1      -7.581  -2.306 123.576  0.00  0.00    +0.000 C 
ATOM     10  C   UNK A   1      -6.139  -2.808 123.664  0.00  0.00    +0.000 C 
ATOM     11  C   UNK A   1      -8.542   0.083 123.562  0.00  0.00    +0.000 C 
ATOM     12  O   UNK A   1      -9.650  -0.282 123.160  0.00  0.00    +0.000 OA
BRANCH   9  13
ATOM     13  C   UNK A   1      -8.650  -3.187 124.210  0.00  0.00    +0.000 C 
ATOM     14  O   UNK A   1      -8.462  -3.932 125.146  0.00  0.00    +0.000 OA
BRANCH  13  15
ATOM     15  O   UNK A   1      -9.849  -3.064 123.591  0.00  0.00    +0.000 OA
ATOM     16  H   UNK A   1     -10.525  -2.844 124.264  0.00  0.00    +0.000 HD
ENDBRANCH  13  15
ENDBRANCH   9  13
ENDBRANCH   1  11
BRANCH   1  17
ATOM     17  N   UNK A   1      -6.875   1.999 122.952  0.00  0.00    +0.000 NA
ATOM     18  H   UNK A   1      -6.774   1.428 122.104  0.00  0.00    +0.000 HD
BRANCH  17  19
ATOM     19  C   UNK A   0      -6.627   3.424 122.526  0.00  0.00    +0.000 C 
BRANCH  19  20
ATOM     20  C   UNK A   0      -5.955   3.467 121.114  0.00  0.00    +0.000 C 
ATOM     21  O   UNK A   0      -5.150   2.657 120.686  0.00  0.00    +0.000 OA
BRANCH  20  22
ATOM     22  O   UNK A   0      -6.416   4.551 120.396  0.00  0.00    +0.000 OA
BRANCH  22  23
ATOM     23  C   UNK A   0      -5.405   5.279 119.682  0.00  0.00    +0.000 C 
ATOM     24  C   UNK A   0      -5.971   5.799 118.367  0.00  0.00    +0.000 C 
ENDBRANCH  22  23
ENDBRANCH  20  22
ENDBRANCH  19  20
BRANCH  19  25
ATOM     25  C   UNK A   0      -5.647   4.201 123.413  0.00  0.00    +0.000 C 
BRANCH  25  26
ATOM     26  C   UNK A   0      -6.189   4.456 124.767  0.00  0.00    +0.000 C 
BRANCH  26  27
ATOM     27  C   UNK A   0      -5.277   4.100 125.904  0.00  0.00    +0.000 A 
ATOM     28  C   UNK A   0      -4.579   5.039 126.720  0.00  0.00    +0.000 A 
ATOM     29  C   UNK A   0      -3.425   4.628 127.409  0.00  0.00    +0.000 A 
ATOM     30  C   UNK A   0      -3.051   3.284 127.385  0.00  0.00    +0.000 A 
ATOM     31  C   UNK A   0      -3.764   2.367 126.613  0.00  0.00    +0.000 A 
ATOM     32  C   UNK A   0      -4.856   2.775 125.867  0.00  0.00    +0.000 A 
ENDBRANCH  26  27
ENDBRANCH  25  26
ENDBRANCH  19  25
ENDBRANCH  17  19
ENDBRANCH   1  17
TORSDOF 11
ENDMDL
MODEL 7
REMARK VINA RESULT:      -7.3      2.169      3.680
REMARK  Name = Ramipril
REMARK  13 active torsions:
REMARK  status: ('A' for Active; 'I' for Inactive)
REMARK    1  A    between atoms: C_9  and  C_11
REMARK    2  A    between atoms: C_11  and  O_12
REMARK    3  A    between atoms: C_14  and  C_16
REMARK    4  A    between atoms: C_16  and  C_17
REMARK    5  A    between atoms: C_16  and  N_18
REMARK    6  A    between atoms: N_18  and  C_19
REMARK    7  A    between atoms: C_19  and  C_20
REMARK    8  A    between atoms: C_19  and  C_28
REMARK    9  A    between atoms: C_20  and  C_21
REMARK   10  A    between atoms: C_21  and  C_22
REMARK   11  A    between atoms: C_28  and  O_30
REMARK   12  A    between atoms: O_30  and  C_31
REMARK   13  A    between atoms: C_31  and  C_32
REMARK                            x       y       z     vdW  Elec       q    Type
REMARK                         _______ _______ _______ _____ _____    ______ ____
ROOT
ATOM      1  C   UNK A   1      -6.422   0.717 126.591  0.00  0.00    +0.000 C 
ATOM      2  C   UNK A   1      -5.878   0.167 127.911  0.00  0.00    +0.000 C 
ENDROOT
BRANCH   1  11
ATOM      3  C   UNK A   1      -6.616  -1.848 122.871  0.00  0.00    +0.000 C 
ATOM      4  C   UNK A   1      -6.038  -3.234 123.071  0.00  0.00    +0.000 C 
ATOM      5  C   UNK A   1      -4.756  -2.943 123.820  0.00  0.00    +0.000 C 
ATOM      6  C   UNK A   1      -5.136  -1.868 124.810  0.00  0.00    +0.000 C 
ATOM      7  C   UNK A   1      -6.226  -1.056 124.140  0.00  0.00    +0.000 C 
ATOM      8  N   UNK A   1      -7.369  -1.098 125.026  0.00  0.00    +0.000 N 
ATOM      9  C   UNK A   1      -8.467  -1.820 124.342  0.00  0.00    +0.000 C 
ATOM     10  C   UNK A   1      -8.118  -1.885 122.854  0.00  0.00    +0.000 C 
ATOM     11  C   UNK A   1      -7.494  -0.386 126.246  0.00  0.00    +0.000 C 
ATOM     12  O   UNK A   1      -8.431  -0.627 127.011  0.00  0.00    +0.000 OA
BRANCH   9  13
ATOM     13  C   UNK A   1      -8.940  -3.115 124.989  0.00  0.00    +0.000 C 
ATOM     14  O   UNK A   1      -8.347  -4.170 124.933  0.00  0.00    +0.000 OA
BRANCH  13  15
ATOM     15  O   UNK A   1     -10.127  -2.967 125.626  0.00  0.00    +0.000 OA
ATOM     16  H   UNK A   1     -10.050  -2.223 126.258  0.00  0.00    +0.000 HD
ENDBRANCH  13  15
ENDBRANCH   9  13
ENDBRANCH   1  11
BRANCH   1  17
ATOM     17  N   UNK A   1      -6.952   2.105 126.815  0.00  0.00    +0.000 NA
ATOM     18  H   UNK A   1      -6.476   2.500 127.636  0.00  0.00    +0.000 HD
BRANCH  17  19
ATOM     19  C   UNK A   0      -6.855   3.152 125.734  0.00  0.00    +0.000 C 
BRANCH  19  20
ATOM     20  C   UNK A   0      -8.275   3.507 125.183  0.00  0.00    +0.000 C 
ATOM     21  O   UNK A   0      -8.982   4.420 125.578  0.00  0.00    +0.000 OA
BRANCH  20  22
ATOM     22  O   UNK A   0      -8.621   2.649 124.160  0.00  0.00    +0.000 OA
BRANCH  22  23
ATOM     23  C   UNK A   0      -9.869   1.962 124.341  0.00  0.00    +0.000 C 
ATOM     24  C   UNK A   0     -10.166   1.095 123.125  0.00  0.00    +0.000 C 
ENDBRANCH  22  23
ENDBRANCH  20  22
ENDBRANCH  19  20
BRANCH  19  25
ATOM     25  C   UNK A   0      -6.084   2.717 124.483  0.00  0.00    +0.000 C 
BRANCH  25  26
ATOM     26  C   UNK A   0      -5.256   3.808 123.920  0.00  0.00    +0.000 C 
BRANCH  26  27
ATOM     27  C   UNK A   0      -5.635   4.257 122.540  0.00  0.00    +0.000 A 
ATOM     28  C   UNK A   0      -6.673   3.682 121.747  0.00  0.00    +0.000 A 
ATOM     29  C   UNK A   0      -6.636   3.832 120.350  0.00  0.00    +0.000 A 
ATOM     30  C   UNK A   0      -5.659   4.643 119.770  0.00  0.00    +0.000 A 
ATOM     31  C   UNK A   0      -4.671   5.231 120.560  0.00  0.00    +0.000 A 
ATOM     32  C   UNK A   0      -4.650   5.025 121.929  0.00  0.00    +0.000 A 
ENDBRANCH  26  27
ENDBRANCH  25  26
ENDBRANCH  19  25
ENDBRANCH  17  19
ENDBRANCH   1  17
TORSDOF 11
ENDMDL
MODEL 8
REMARK VINA RESULT:      -7.2      2.235      4.379
REMARK  Name = Ramipril
REMARK  13 active torsions:
REMARK  status: ('A' for Active; 'I' for Inactive)
REMARK    1  A    between atoms: C_9  and  C_11
REMARK    2  A    between atoms: C_11  and  O_12
REMARK    3  A    between atoms: C_14  and  C_16
REMARK    4  A    between atoms: C_16  and  C_17
REMARK    5  A    between atoms: C_16  and  N_18
REMARK    6  A    between atoms: N_18  and  C_19
REMARK    7  A    between atoms: C_19  and  C_20
REMARK    8  A    between atoms: C_19  and  C_28
REMARK    9  A    between atoms: C_20  and  C_21
REMARK   10  A    between atoms: C_21  and  C_22
REMARK   11  A    between atoms: C_28  and  O_30
REMARK   12  A    between atoms: O_30  and  C_31
REMARK   13  A    between atoms: C_31  and  C_32
REMARK                            x       y       z     vdW  Elec       q    Type
REMARK                         _______ _______ _______ _____ _____    ______ ____
ROOT
ATOM      1  C   UNK A   1      -6.142  -0.215 127.568  0.00  0.00    +0.000 C 
ATOM      2  C   UNK A   1      -6.139  -0.907 128.933  0.00  0.00    +0.000 C 
ENDROOT
BRANCH   1  11
ATOM      3  C   UNK A   1      -6.842  -0.838 123.144  0.00  0.00    +0.000 C 
ATOM      4  C   UNK A   1      -6.446  -2.220 122.666  0.00  0.00    +0.000 C 
ATOM      5  C   UNK A   1      -5.105  -2.420 123.336  0.00  0.00    +0.000 C 
ATOM      6  C   UNK A   1      -5.293  -1.861 124.727  0.00  0.00    +0.000 C 
ATOM      7  C   UNK A   1      -6.294  -0.733 124.585  0.00  0.00    +0.000 C 
ATOM      8  N   UNK A   1      -7.391  -1.047 125.474  0.00  0.00    +0.000 N 
ATOM      9  C   UNK A   1      -8.605  -1.278 124.657  0.00  0.00    +0.000 C 
ATOM     10  C   UNK A   1      -8.335  -0.714 123.261  0.00  0.00    +0.000 C 
ATOM     11  C   UNK A   1      -7.365  -0.938 126.888  0.00  0.00    +0.000 C 
ATOM     12  O   UNK A   1      -8.292  -1.397 127.561  0.00  0.00    +0.000 OA
BRANCH   9  13
ATOM     13  C   UNK A   1      -9.218  -2.671 124.723  0.00  0.00    +0.000 C 
ATOM     14  O   UNK A   1      -8.947  -3.579 123.968  0.00  0.00    +0.000 OA
BRANCH  13  15
ATOM     15  O   UNK A   1     -10.131  -2.784 125.717  0.00  0.00    +0.000 OA
ATOM     16  H   UNK A   1     -10.800  -2.078 125.607  0.00  0.00    +0.000 HD
ENDBRANCH  13  15
ENDBRANCH   9  13
ENDBRANCH   1  11
BRANCH   1  17
ATOM     17  N   UNK A   1      -6.279   1.268 127.767  0.00  0.00    +0.000 NA
ATOM     18  H   UNK A   1      -5.921   1.500 128.702  0.00  0.00    +0.000 HD
BRANCH  17  19
ATOM     19  C   UNK A   0      -5.621   2.238 126.818  0.00  0.00    +0.000 C 
BRANCH  19  20
ATOM     20  C   UNK A   0      -5.141   3.516 127.582  0.00  0.00    +0.000 C 
ATOM     21  O   UNK A   0      -5.723   4.587 127.608  0.00  0.00    +0.000 OA
BRANCH  20  22
ATOM     22  O   UNK A   0      -3.962   3.261 128.249  0.00  0.00    +0.000 OA
BRANCH  22  23
ATOM     23  C   UNK A   0      -2.827   4.008 127.783  0.00  0.00    +0.000 C 
ATOM     24  C   UNK A   0      -1.967   3.136 126.879  0.00  0.00    +0.000 C 
ENDBRANCH  22  23
ENDBRANCH  20  22
ENDBRANCH  19  20
BRANCH  19  25
ATOM     25  C   UNK A   0      -6.543   2.798 125.728  0.00  0.00    +0.000 C 
BRANCH  25  26
ATOM     26  C   UNK A   0      -5.857   2.937 124.423  0.00  0.00    +0.000 C 
BRANCH  26  27
ATOM     27  C   UNK A   0      -6.722   3.392 123.285  0.00  0.00    +0.000 A 
ATOM     28  C   UNK A   0      -8.110   3.093 123.140  0.00  0.00    +0.000 A 
ATOM     29  C   UNK A   0      -8.696   3.144 121.864  0.00  0.00    +0.000 A 
ATOM     30  C   UNK A   0      -7.946   3.605 120.780  0.00  0.00    +0.000 A 
ATOM     31  C   UNK A   0      -6.599   3.930 120.942  0.00  0.00    +0.000 A 
ATOM     32  C   UNK A   0      -5.990   3.809 122.179  0.00  0.00    +0.000 A 
ENDBRANCH  26  27
ENDBRANCH  25  26
ENDBRANCH  19  25
ENDBRANCH  17  19
ENDBRANCH   1  17
TORSDOF 11
ENDMDL
MODEL 9
REMARK VINA RESULT:      -7.1      5.437      7.867
REMARK  Name = Ramipril
REMARK  13 active torsions:
REMARK  status: ('A' for Active; 'I' for Inactive)
REMARK    1  A    between atoms: C_9  and  C_11
REMARK    2  A    between atoms: C_11  and  O_12
REMARK    3  A    between atoms: C_14  and  C_16
REMARK    4  A    between atoms: C_16  and  C_17
REMARK    5  A    between atoms: C_16  and  N_18
REMARK    6  A    between atoms: N_18  and  C_19
REMARK    7  A    between atoms: C_19  and  C_20
REMARK    8  A    between atoms: C_19  and  C_28
REMARK    9  A    between atoms: C_20  and  C_21
REMARK   10  A    between atoms: C_21  and  C_22
REMARK   11  A    between atoms: C_28  and  O_30
REMARK   12  A    between atoms: O_30  and  C_31
REMARK   13  A    between atoms: C_31  and  C_32
REMARK                            x       y       z     vdW  Elec       q    Type
REMARK                         _______ _______ _______ _____ _____    ______ ____
ROOT
ATOM      1  C   UNK A   1      -8.853   4.258 129.586  0.00  0.00    +0.000 C 
ATOM      2  C   UNK A   1      -9.344   2.873 130.009  0.00  0.00    +0.000 C 
ENDROOT
BRANCH   1  11
ATOM      3  C   UNK A   1      -4.400   5.015 129.346  0.00  0.00    +0.000 C 
ATOM      4  C   UNK A   1      -3.569   3.805 129.722  0.00  0.00    +0.000 C 
ATOM      5  C   UNK A   1      -4.266   3.312 130.970  0.00  0.00    +0.000 C 
ATOM      6  C   UNK A   1      -5.738   3.452 130.659  0.00  0.00    +0.000 C 
ATOM      7  C   UNK A   1      -5.851   4.650 129.737  0.00  0.00    +0.000 C 
ATOM      8  N   UNK A   1      -6.502   4.179 128.534  0.00  0.00    +0.000 N 
ATOM      9  C   UNK A   1      -5.547   4.294 127.407  0.00  0.00    +0.000 C 
ATOM     10  C   UNK A   1      -4.415   5.219 127.857  0.00  0.00    +0.000 C 
ATOM     11  C   UNK A   1      -7.880   3.866 128.410  0.00  0.00    +0.000 C 
ATOM     12  O   UNK A   1      -8.299   3.306 127.394  0.00  0.00    +0.000 OA
BRANCH   9  13
ATOM     13  C   UNK A   1      -5.138   2.997 126.722  0.00  0.00    +0.000 C 
ATOM     14  O   UNK A   1      -4.587   2.931 125.646  0.00  0.00    +0.000 OA
BRANCH  13  15
ATOM     15  O   UNK A   1      -5.481   1.904 127.446  0.00  0.00    +0.000 OA
ATOM     16  H   UNK A   1      -4.950   1.144 127.132  0.00  0.00    +0.000 HD
ENDBRANCH  13  15
ENDBRANCH   9  13
ENDBRANCH   1  11
BRANCH   1  17
ATOM     17  N   UNK A   1     -10.035   5.108 129.210  0.00  0.00    +0.000 NA
ATOM     18  H   UNK A   1     -10.603   4.583 128.533  0.00  0.00    +0.000 HD
BRANCH  17  19
ATOM     19  C   UNK A   0     -10.994   5.605 130.261  0.00  0.00    +0.000 C 
BRANCH  19  20
ATOM     20  C   UNK A   0     -12.153   6.425 129.605  0.00  0.00    +0.000 C 
ATOM     21  O   UNK A   0     -13.081   6.944 130.203  0.00  0.00    +0.000 OA
BRANCH  20  22
ATOM     22  O   UNK A   0     -11.974   6.502 128.240  0.00  0.00    +0.000 OA
BRANCH  22  23
ATOM     23  C   UNK A   0     -11.961   7.834 127.704  0.00  0.00    +0.000 C 
ATOM     24  C   UNK A   0     -10.622   8.498 127.995  0.00  0.00    +0.000 C 
ENDBRANCH  22  23
ENDBRANCH  20  22
ENDBRANCH  19  20
BRANCH  19  25
ATOM     25  C   UNK A   0     -10.389   6.585 131.273  0.00  0.00    +0.000 C 
BRANCH  25  26
ATOM     26  C   UNK A   0     -10.317   6.016 132.639  0.00  0.00    +0.000 C 
BRANCH  26  27
ATOM     27  C   UNK A   0      -9.054   5.275 132.961  0.00  0.00    +0.000 A 
ATOM     28  C   UNK A   0      -8.976   4.101 133.768  0.00  0.00    +0.000 A 
ATOM     29  C   UNK A   0      -7.759   3.771 134.389  0.00  0.00    +0.000 A 
ATOM     30  C   UNK A   0      -6.617   4.524 134.109  0.00  0.00    +0.000 A 
ATOM     31  C   UNK A   0      -6.698   5.649 133.288  0.00  0.00    +0.000 A 
ATOM     32  C   UNK A   0      -7.908   6.029 132.733  0.00  0.00    +0.000 A 
ENDBRANCH  26  27
ENDBRANCH  25  26
ENDBRANCH  19  25
ENDBRANCH  17  19
ENDBRANCH   1  17
TORSDOF 11
ENDMDL
