MODEL 1
REMARK VINA RESULT:      -5.6      0.000      0.000
REMARK  Name = Ranitidine
REMARK  13 active torsions:
REMARK  status: ('A' for Active; 'I' for Inactive)
REMARK    1  A    between atoms: C_1  and  N_2
REMARK    2  A    between atoms: N_2  and  C_3
REMARK    3  A    between atoms: C_3  and  N_4
REMARK    4  A    between atoms: N_4  and  C_5
REMARK    5  A    between atoms: C_5  and  C_6
REMARK    6  A    between atoms: C_6  and  S_7
REMARK    7  A    between atoms: S_7  and  C_8
REMARK    8  A    between atoms: C_8  and  C_9
REMARK    9  A    between atoms: C_12  and  C_13
REMARK   10  A    between atoms: C_13  and  N_14
REMARK   11  A    between atoms: N_14  and  C_15
REMARK   12  A    between atoms: N_14  and  C_16
REMARK   13  A    between atoms: C_18  and  N_19
REMARK                            x       y       z     vdW  Elec       q    Type
REMARK                         _______ _______ _______ _____ _____    ______ ____
ROOT
ATOM      1  C   UNL     1      -8.263   2.803 128.590  0.00  0.00    +0.000 C 
ENDROOT
BRANCH   1   2
ATOM      2  C   UNL     1      -6.803   2.850 128.175  0.00  0.00    +0.000 C 
BRANCH   2   3
ATOM      3  N   UNL     1      -6.545   2.872 126.757  0.00  0.00    +0.000 N 
ATOM      4  H   UNL     1      -6.740   2.010 126.241  0.00  0.00    +0.000 HD
BRANCH   3   5
ATOM      5  C   UNL     1      -6.071   3.928 125.993  0.00  0.00    +0.000 C 
ATOM      6  C   UNL     1      -6.909   4.829 125.430  0.00  0.00    +0.000 C 
BRANCH   5   8
ATOM      7  C   UNL     1      -3.585   3.493 126.475  0.00  0.00    +0.000 C 
ATOM      8  N   UNL     1      -4.701   4.097 125.775  0.00  0.00    +0.000 N 
ATOM      9  H   UNL     1      -4.426   4.730 125.029  0.00  0.00    +0.000 HD
ENDBRANCH   5   8
BRANCH   6  10
ATOM     10  N   UNL     1      -8.350   4.777 125.572  0.00  0.00    +0.000 N 
ATOM     11  O   UNL     1      -8.962   5.754 126.046  0.00  0.00    +0.000 OA
ATOM     12  O   UNL     1      -8.892   3.734 125.200  0.00  0.00    +0.000 OA
ENDBRANCH   6  10
ENDBRANCH   3   5
ENDBRANCH   2   3
ENDBRANCH   1   2
BRANCH   1  13
ATOM     13  S   UNL     1      -8.543   4.443 129.369  0.00  0.00    +0.000 S 
BRANCH  13  14
ATOM     14  C   UNL     1      -9.926   4.070 130.462  0.00  0.00    +0.000 C 
BRANCH  14  15
ATOM     15  C   UNL     1     -10.889   5.202 130.478  0.00  0.00    +0.000 A 
ATOM     16  C   UNL     1     -11.174   6.080 131.497  0.00  0.00    +0.000 A 
ATOM     17  C   UNL     1     -12.225   6.877 131.045  0.00  0.00    +0.000 A 
ATOM     18  C   UNL     1     -12.445   6.567 129.717  0.00  0.00    +0.000 A 
ATOM     19  O   UNL     1     -11.649   5.498 129.366  0.00  0.00    +0.000 OA
BRANCH  18  20
ATOM     20  C   UNL     1     -13.347   7.217 128.697  0.00  0.00    +0.000 C 
BRANCH  20  21
ATOM     21  N   UNL     1     -12.770   8.507 128.224  0.00  0.00    +0.000 NA
ATOM     22  C   UNL     1     -13.002   9.601 129.177  0.00  0.00    +0.000 C 
ATOM     23  C   UNL     1     -11.330   8.405 127.992  0.00  0.00    +0.000 C 
ENDBRANCH  20  21
ENDBRANCH  18  20
ENDBRANCH  14  15
ENDBRANCH  13  14
ENDBRANCH   1  13
TORSDOF 10
ENDMDL
MODEL 2
REMARK VINA RESULT:      -5.6      3.478      7.036
REMARK  Name = Ranitidine
REMARK  13 active torsions:
REMARK  status: ('A' for Active; 'I' for Inactive)
REMARK    1  A    between atoms: C_1  and  N_2
REMARK    2  A    between atoms: N_2  and  C_3
REMARK    3  A    between atoms: C_3  and  N_4
REMARK    4  A    between atoms: N_4  and  C_5
REMARK    5  A    between atoms: C_5  and  C_6
REMARK    6  A    between atoms: C_6  and  S_7
REMARK    7  A    between atoms: S_7  and  C_8
REMARK    8  A    between atoms: C_8  and  C_9
REMARK    9  A    between atoms: C_12  and  C_13
REMARK   10  A    between atoms: C_13  and  N_14
REMARK   11  A    between atoms: N_14  and  C_15
REMARK   12  A    between atoms: N_14  and  C_16
REMARK   13  A    between atoms: C_18  and  N_19
REMARK                            x       y       z     vdW  Elec       q    Type
REMARK                         _______ _______ _______ _____ _____    ______ ____
ROOT
ATOM      1  C   UNL     1     -10.127   4.859 130.060  0.00  0.00    +0.000 C 
ENDROOT
BRANCH   1   2
ATOM      2  C   UNL     1     -11.401   5.647 130.305  0.00  0.00    +0.000 C 
BRANCH   2   3
ATOM      3  N   UNL     1     -11.927   6.374 129.177  0.00  0.00    +0.000 N 
ATOM      4  H   UNL     1     -12.392   5.822 128.451  0.00  0.00    +0.000 HD
BRANCH   3   5
ATOM      5  C   UNL     1     -11.891   7.742 128.951  0.00  0.00    +0.000 C 
ATOM      6  C   UNL     1     -11.314   8.264 127.844  0.00  0.00    +0.000 C 
BRANCH   5   8
ATOM      7  C   UNL     1     -13.052   9.933 129.625  0.00  0.00    +0.000 C 
ATOM      8  N   UNL     1     -12.454   8.635 129.868  0.00  0.00    +0.000 N 
ATOM      9  H   UNL     1     -12.451   8.358 130.845  0.00  0.00    +0.000 HD
ENDBRANCH   5   8
BRANCH   6  10
ATOM     10  N   UNL     1     -10.692   7.459 126.812  0.00  0.00    +0.000 N 
ATOM     11  O   UNL     1     -11.008   7.630 125.618  0.00  0.00    +0.000 OA
ATOM     12  O   UNL     1      -9.864   6.631 127.198  0.00  0.00    +0.000 OA
ENDBRANCH   6  10
ENDBRANCH   3   5
ENDBRANCH   2   3
ENDBRANCH   1   2
BRANCH   1  13
ATOM     13  S   UNL     1      -9.123   5.184 131.564  0.00  0.00    +0.000 S 
BRANCH  13  14
ATOM     14  C   UNL     1      -8.499   6.836 131.208  0.00  0.00    +0.000 C 
BRANCH  14  15
ATOM     15  C   UNL     1      -7.013   6.843 131.241  0.00  0.00    +0.000 A 
ATOM     16  C   UNL     1      -6.165   6.193 132.107  0.00  0.00    +0.000 A 
ATOM     17  C   UNL     1      -4.876   6.618 131.784  0.00  0.00    +0.000 A 
ATOM     18  C   UNL     1      -4.962   7.387 130.640  0.00  0.00    +0.000 A 
ATOM     19  O   UNL     1      -6.290   7.569 130.319  0.00  0.00    +0.000 OA
BRANCH  18  20
ATOM     20  C   UNL     1      -3.877   7.972 129.770  0.00  0.00    +0.000 C 
BRANCH  20  21
ATOM     21  N   UNL     1      -3.211   6.909 128.966  0.00  0.00    +0.000 NA
ATOM     22  C   UNL     1      -2.067   6.314 129.672  0.00  0.00    +0.000 C 
ATOM     23  C   UNL     1      -4.137   5.833 128.616  0.00  0.00    +0.000 C 
ENDBRANCH  20  21
ENDBRANCH  18  20
ENDBRANCH  14  15
ENDBRANCH  13  14
ENDBRANCH   1  13
TORSDOF 10
ENDMDL
MODEL 3
REMARK VINA RESULT:      -5.4      1.517      1.858
REMARK  Name = Ranitidine
REMARK  13 active torsions:
REMARK  status: ('A' for Active; 'I' for Inactive)
REMARK    1  A    between atoms: C_1  and  N_2
REMARK    2  A    between atoms: N_2  and  C_3
REMARK    3  A    between atoms: C_3  and  N_4
REMARK    4  A    between atoms: N_4  and  C_5
REMARK    5  A    between atoms: C_5  and  C_6
REMARK    6  A    between atoms: C_6  and  S_7
REMARK    7  A    between atoms: S_7  and  C_8
REMARK    8  A    between atoms: C_8  and  C_9
REMARK    9  A    between atoms: C_12  and  C_13
REMARK   10  A    between atoms: C_13  and  N_14
REMARK   11  A    between atoms: N_14  and  C_15
REMARK   12  A    between atoms: N_14  and  C_16
REMARK   13  A    between atoms: C_18  and  N_19
REMARK                            x       y       z     vdW  Elec       q    Type
REMARK                         _______ _______ _______ _____ _____    ______ ____
ROOT
ATOM      1  C   UNL     1      -7.633   4.293 129.283  0.00  0.00    +0.000 C 
ENDROOT
BRANCH   1   2
ATOM      2  C   UNL     1      -7.864   2.957 128.600  0.00  0.00    +0.000 C 
BRANCH   2   3
ATOM      3  N   UNL     1      -7.254   2.791 127.305  0.00  0.00    +0.000 N 
ATOM      4  H   UNL     1      -6.231   2.818 127.272  0.00  0.00    +0.000 HD
BRANCH   3   5
ATOM      5  C   UNL     1      -7.883   2.586 126.086  0.00  0.00    +0.000 C 
ATOM      6  C   UNL     1      -8.260   3.620 125.299  0.00  0.00    +0.000 C 
BRANCH   5   8
ATOM      7  C   UNL     1      -7.673   0.637 124.425  0.00  0.00    +0.000 C 
ATOM      8  N   UNL     1      -8.151   1.294 125.625  0.00  0.00    +0.000 N 
ATOM      9  H   UNL     1      -8.767   0.719 126.193  0.00  0.00    +0.000 HD
ENDBRANCH   5   8
BRANCH   6  10
ATOM     10  N   UNL     1      -8.046   5.010 125.649  0.00  0.00    +0.000 N 
ATOM     11  O   UNL     1      -9.016   5.725 125.968  0.00  0.00    +0.000 OA
ATOM     12  O   UNL     1      -6.878   5.404 125.607  0.00  0.00    +0.000 OA
ENDBRANCH   6  10
ENDBRANCH   3   5
ENDBRANCH   2   3
ENDBRANCH   1   2
BRANCH   1  13
ATOM     13  S   UNL     1      -8.478   4.101 130.904  0.00  0.00    +0.000 S 
BRANCH  13  14
ATOM     14  C   UNL     1     -10.165   3.759 130.372  0.00  0.00    +0.000 C 
BRANCH  14  15
ATOM     15  C   UNL     1     -10.985   4.997 130.434  0.00  0.00    +0.000 A 
ATOM     16  C   UNL     1     -11.062   5.933 131.438  0.00  0.00    +0.000 A 
ATOM     17  C   UNL     1     -12.056   6.834 131.057  0.00  0.00    +0.000 A 
ATOM     18  C   UNL     1     -12.443   6.512 129.771  0.00  0.00    +0.000 A 
ATOM     19  O   UNL     1     -11.814   5.347 129.390  0.00  0.00    +0.000 OA
BRANCH  18  20
ATOM     20  C   UNL     1     -13.363   7.232 128.816  0.00  0.00    +0.000 C 
BRANCH  20  21
ATOM     21  N   UNL     1     -12.740   8.496 128.331  0.00  0.00    +0.000 NA
ATOM     22  C   UNL     1     -12.928   9.607 129.274  0.00  0.00    +0.000 C 
ATOM     23  C   UNL     1     -11.306   8.338 128.095  0.00  0.00    +0.000 C 
ENDBRANCH  20  21
ENDBRANCH  18  20
ENDBRANCH  14  15
ENDBRANCH  13  14
ENDBRANCH   1  13
TORSDOF 10
ENDMDL
MODEL 4
REMARK VINA RESULT:      -5.4      2.700      3.277
REMARK  Name = Ranitidine
REMARK  13 active torsions:
REMARK  status: ('A' for Active; 'I' for Inactive)
REMARK    1  A    between atoms: C_1  and  N_2
REMARK    2  A    between atoms: N_2  and  C_3
REMARK    3  A    between atoms: C_3  and  N_4
REMARK    4  A    between atoms: N_4  and  C_5
REMARK    5  A    between atoms: C_5  and  C_6
REMARK    6  A    between atoms: C_6  and  S_7
REMARK    7  A    between atoms: S_7  and  C_8
REMARK    8  A    between atoms: C_8  and  C_9
REMARK    9  A    between atoms: C_12  and  C_13
REMARK   10  A    between atoms: C_13  and  N_14
REMARK   11  A    between atoms: N_14  and  C_15
REMARK   12  A    between atoms: N_14  and  C_16
REMARK   13  A    between atoms: C_18  and  N_19
REMARK                            x       y       z     vdW  Elec       q    Type
REMARK                         _______ _______ _______ _____ _____    ______ ____
ROOT
ATOM      1  C   UNL     1      -8.195   1.938 127.733  0.00  0.00    +0.000 C 
ENDROOT
BRANCH   1   2
ATOM      2  C   UNL     1      -7.936   1.588 126.279  0.00  0.00    +0.000 C 
BRANCH   2   3
ATOM      3  N   UNL     1      -8.869   2.126 125.320  0.00  0.00    +0.000 N 
ATOM      4  H   UNL     1      -9.826   2.284 125.648  0.00  0.00    +0.000 HD
BRANCH   3   5
ATOM      5  C   UNL     1      -8.630   2.471 123.998  0.00  0.00    +0.000 C 
ATOM      6  C   UNL     1      -9.105   1.727 122.973  0.00  0.00    +0.000 C 
BRANCH   5   8
ATOM      7  C   UNL     1      -6.449   3.808 123.755  0.00  0.00    +0.000 C 
ATOM      8  N   UNL     1      -7.882   3.608 123.677  0.00  0.00    +0.000 N 
ATOM      9  H   UNL     1      -8.395   4.419 123.344  0.00  0.00    +0.000 HD
ENDBRANCH   5   8
BRANCH   6  10
ATOM     10  N   UNL     1      -9.893   0.525 123.157  0.00  0.00    +0.000 N 
ATOM     11  O   UNL     1      -9.449  -0.406 123.856  0.00  0.00    +0.000 OA
ATOM     12  O   UNL     1     -10.988   0.505 122.590  0.00  0.00    +0.000 OA
ENDBRANCH   6  10
ENDBRANCH   3   5
ENDBRANCH   2   3
ENDBRANCH   1   2
BRANCH   1  13
ATOM     13  S   UNL     1      -7.811   3.733 127.820  0.00  0.00    +0.000 S 
BRANCH  13  14
ATOM     14  C   UNL     1      -8.437   4.137 129.461  0.00  0.00    +0.000 C 
BRANCH  14  15
ATOM     15  C   UNL     1      -9.063   5.485 129.455  0.00  0.00    +0.000 A 
ATOM     16  C   UNL     1      -9.105   6.422 130.460  0.00  0.00    +0.000 A 
ATOM     17  C   UNL     1      -9.906   7.463 129.990  0.00  0.00    +0.000 A 
ATOM     18  C   UNL     1     -10.198   7.202 128.666  0.00  0.00    +0.000 A 
ATOM     19  O   UNL     1      -9.715   5.955 128.335  0.00  0.00    +0.000 OA
BRANCH  18  20
ATOM     20  C   UNL     1     -10.893   8.053 127.631  0.00  0.00    +0.000 C 
BRANCH  20  21
ATOM     21  N   UNL     1     -12.364   8.081 127.868  0.00  0.00    +0.000 NA
ATOM     22  C   UNL     1     -12.872   6.794 128.362  0.00  0.00    +0.000 C 
ATOM     23  C   UNL     1     -12.739   9.116 128.830  0.00  0.00    +0.000 C 
ENDBRANCH  20  21
ENDBRANCH  18  20
ENDBRANCH  14  15
ENDBRANCH  13  14
ENDBRANCH   1  13
TORSDOF 10
ENDMDL
MODEL 5
REMARK VINA RESULT:      -5.4      6.562      8.607
REMARK  Name = Ranitidine
REMARK  13 active torsions:
REMARK  status: ('A' for Active; 'I' for Inactive)
REMARK    1  A    between atoms: C_1  and  N_2
REMARK    2  A    between atoms: N_2  and  C_3
REMARK    3  A    between atoms: C_3  and  N_4
REMARK    4  A    between atoms: N_4  and  C_5
REMARK    5  A    between atoms: C_5  and  C_6
REMARK    6  A    between atoms: C_6  and  S_7
REMARK    7  A    between atoms: S_7  and  C_8
REMARK    8  A    between atoms: C_8  and  C_9
REMARK    9  A    between atoms: C_12  and  C_13
REMARK   10  A    between atoms: C_13  and  N_14
REMARK   11  A    between atoms: N_14  and  C_15
REMARK   12  A    between atoms: N_14  and  C_16
REMARK   13  A    between atoms: C_18  and  N_19
REMARK                            x       y       z     vdW  Elec       q    Type
REMARK                         _______ _______ _______ _____ _____    ______ ____
ROOT
ATOM      1  C   UNL     1      -8.069   1.366 123.282  0.00  0.00    +0.000 C 
ENDROOT
BRANCH   1   2
ATOM      2  C   UNL     1      -8.542   2.648 122.622  0.00  0.00    +0.000 C 
BRANCH   2   3
ATOM      3  N   UNL     1      -7.690   3.799 122.784  0.00  0.00    +0.000 N 
ATOM      4  H   UNL     1      -8.152   4.686 123.006  0.00  0.00    +0.000 HD
BRANCH   3   5
ATOM      5  C   UNL     1      -6.308   3.857 122.688  0.00  0.00    +0.000 C 
ATOM      6  C   UNL     1      -5.537   4.215 123.741  0.00  0.00    +0.000 C 
BRANCH   5   8
ATOM      7  C   UNL     1      -5.380   4.403 120.355  0.00  0.00    +0.000 C 
ATOM      8  N   UNL     1      -5.658   3.546 121.490  0.00  0.00    +0.000 N 
ATOM      9  H   UNL     1      -5.329   2.591 121.377  0.00  0.00    +0.000 HD
ENDBRANCH   5   8
BRANCH   6  10
ATOM     10  N   UNL     1      -6.074   4.565 125.042  0.00  0.00    +0.000 N 
ATOM     11  O   UNL     1      -6.127   5.760 125.389  0.00  0.00    +0.000 OA
ATOM     12  O   UNL     1      -6.454   3.622 125.740  0.00  0.00    +0.000 OA
ENDBRANCH   6  10
ENDBRANCH   3   5
ENDBRANCH   2   3
ENDBRANCH   1   2
BRANCH   1  13
ATOM     13  S   UNL     1      -9.631   0.477 123.668  0.00  0.00    +0.000 S 
BRANCH  13  14
ATOM     14  C   UNL     1      -9.346  -1.093 122.831  0.00  0.00    +0.000 C 
BRANCH  14  15
ATOM     15  C   UNL     1      -8.893  -2.120 123.804  0.00  0.00    +0.000 A 
ATOM     16  C   UNL     1      -7.972  -3.126 123.633  0.00  0.00    +0.000 A 
ATOM     17  C   UNL     1      -7.994  -3.880 124.806  0.00  0.00    +0.000 A 
ATOM     18  C   UNL     1      -8.808  -3.226 125.710  0.00  0.00    +0.000 A 
ATOM     19  O   UNL     1      -9.405  -2.154 125.084  0.00  0.00    +0.000 OA
BRANCH  18  20
ATOM     20  C   UNL     1      -9.072  -3.505 127.169  0.00  0.00    +0.000 C 
BRANCH  20  21
ATOM     21  N   UNL     1      -7.903  -3.110 128.005  0.00  0.00    +0.000 NA
ATOM     22  C   UNL     1      -7.496  -1.718 127.768  0.00  0.00    +0.000 C 
ATOM     23  C   UNL     1      -8.181  -3.265 129.432  0.00  0.00    +0.000 C 
ENDBRANCH  20  21
ENDBRANCH  18  20
ENDBRANCH  14  15
ENDBRANCH  13  14
ENDBRANCH   1  13
TORSDOF 10
ENDMDL
MODEL 6
REMARK VINA RESULT:      -5.3      5.466      8.012
REMARK  Name = Ranitidine
REMARK  13 active torsions:
REMARK  status: ('A' for Active; 'I' for Inactive)
REMARK    1  A    between atoms: C_1  and  N_2
REMARK    2  A    between atoms: N_2  and  C_3
REMARK    3  A    between atoms: C_3  and  N_4
REMARK    4  A    between atoms: N_4  and  C_5
REMARK    5  A    between atoms: C_5  and  C_6
REMARK    6  A    between atoms: C_6  and  S_7
REMARK    7  A    between atoms: S_7  and  C_8
REMARK    8  A    between atoms: C_8  and  C_9
REMARK    9  A    between atoms: C_12  and  C_13
REMARK   10  A    between atoms: C_13  and  N_14
REMARK   11  A    between atoms: N_14  and  C_15
REMARK   12  A    between atoms: N_14  and  C_16
REMARK   13  A    between atoms: C_18  and  N_19
REMARK                            x       y       z     vdW  Elec       q    Type
REMARK                         _______ _______ _______ _____ _____    ______ ____
ROOT
ATOM      1  C   UNL     1      -7.569   2.894 126.633  0.00  0.00    +0.000 C 
ENDROOT
BRANCH   1   2
ATOM      2  C   UNL     1      -6.864   2.052 125.586  0.00  0.00    +0.000 C 
BRANCH   2   3
ATOM      3  N   UNL     1      -7.669   1.616 124.473  0.00  0.00    +0.000 N 
ATOM      4  H   UNL     1      -7.903   0.620 124.436  0.00  0.00    +0.000 HD
BRANCH   3   5
ATOM      5  C   UNL     1      -8.184   2.384 123.439  0.00  0.00    +0.000 C 
ATOM      6  C   UNL     1      -9.396   2.125 122.897  0.00  0.00    +0.000 C 
BRANCH   5   8
ATOM      7  C   UNL     1      -6.243   3.446 122.133  0.00  0.00    +0.000 C 
ATOM      8  N   UNL     1      -7.461   3.461 122.917  0.00  0.00    +0.000 N 
ATOM      9  H   UNL     1      -7.821   4.393 123.103  0.00  0.00    +0.000 HD
ENDBRANCH   5   8
BRANCH   6  10
ATOM     10  N   UNL     1     -10.253   1.042 123.338  0.00  0.00    +0.000 N 
ATOM     11  O   UNL     1     -10.805   0.307 122.496  0.00  0.00    +0.000 OA
ATOM     12  O   UNL     1     -10.382   0.917 124.557  0.00  0.00    +0.000 OA
ENDBRANCH   6  10
ENDBRANCH   3   5
ENDBRANCH   2   3
ENDBRANCH   1   2
BRANCH   1  13
ATOM     13  S   UNL     1      -8.466   1.655 127.651  0.00  0.00    +0.000 S 
BRANCH  13  14
ATOM     14  C   UNL     1      -7.202   0.384 127.834  0.00  0.00    +0.000 C 
BRANCH  14  15
ATOM     15  C   UNL     1      -7.738  -0.939 127.418  0.00  0.00    +0.000 A 
ATOM     16  C   UNL     1      -7.832  -2.101 128.146  0.00  0.00    +0.000 A 
ATOM     17  C   UNL     1      -8.298  -3.077 127.266  0.00  0.00    +0.000 A 
ATOM     18  C   UNL     1      -8.620  -2.451 126.077  0.00  0.00    +0.000 A 
ATOM     19  O   UNL     1      -8.236  -1.130 126.146  0.00  0.00    +0.000 OA
BRANCH  18  20
ATOM     20  C   UNL     1      -9.301  -2.987 124.843  0.00  0.00    +0.000 C 
BRANCH  20  21
ATOM     21  N   UNL     1      -8.320  -3.183 123.738  0.00  0.00    +0.000 NA
ATOM     22  C   UNL     1      -8.133  -1.965 122.938  0.00  0.00    +0.000 C 
ATOM     23  C   UNL     1      -7.013  -3.601 124.242  0.00  0.00    +0.000 C 
ENDBRANCH  20  21
ENDBRANCH  18  20
ENDBRANCH  14  15
ENDBRANCH  13  14
ENDBRANCH   1  13
TORSDOF 10
ENDMDL
MODEL 7
REMARK VINA RESULT:      -5.3      2.340      6.936
REMARK  Name = Ranitidine
REMARK  13 active torsions:
REMARK  status: ('A' for Active; 'I' for Inactive)
REMARK    1  A    between atoms: C_1  and  N_2
REMARK    2  A    between atoms: N_2  and  C_3
REMARK    3  A    between atoms: C_3  and  N_4
REMARK    4  A    between atoms: N_4  and  C_5
REMARK    5  A    between atoms: C_5  and  C_6
REMARK    6  A    between atoms: C_6  and  S_7
REMARK    7  A    between atoms: S_7  and  C_8
REMARK    8  A    between atoms: C_8  and  C_9
REMARK    9  A    between atoms: C_12  and  C_13
REMARK   10  A    between atoms: C_13  and  N_14
REMARK   11  A    between atoms: N_14  and  C_15
REMARK   12  A    between atoms: N_14  and  C_16
REMARK   13  A    between atoms: C_18  and  N_19
REMARK                            x       y       z     vdW  Elec       q    Type
REMARK                         _______ _______ _______ _____ _____    ______ ____
ROOT
ATOM      1  C   UNL     1     -11.065   4.367 130.436  0.00  0.00    +0.000 C 
ENDROOT
BRANCH   1   2
ATOM      2  C   UNL     1     -11.383   5.851 130.481  0.00  0.00    +0.000 C 
BRANCH   2   3
ATOM      3  N   UNL     1     -11.901   6.427 129.266  0.00  0.00    +0.000 N 
ATOM      4  H   UNL     1     -12.236   5.773 128.553  0.00  0.00    +0.000 HD
BRANCH   3   5
ATOM      5  C   UNL     1     -12.015   7.770 128.939  0.00  0.00    +0.000 C 
ATOM      6  C   UNL     1     -11.473   8.275 127.807  0.00  0.00    +0.000 C 
BRANCH   5   8
ATOM      7  C   UNL     1     -13.112  10.021 129.516  0.00  0.00    +0.000 C 
ATOM      8  N   UNL     1     -12.700   8.657 129.777  0.00  0.00    +0.000 N 
ATOM      9  H   UNL     1     -12.950   8.319 130.701  0.00  0.00    +0.000 HD
ENDBRANCH   5   8
BRANCH   6  10
ATOM     10  N   UNL     1     -10.736   7.474 126.849  0.00  0.00    +0.000 N 
ATOM     11  O   UNL     1     -10.961   7.605 125.630  0.00  0.00    +0.000 OA
ATOM     12  O   UNL     1      -9.909   6.692 127.322  0.00  0.00    +0.000 OA
ENDBRANCH   6  10
ENDBRANCH   3   5
ENDBRANCH   2   3
ENDBRANCH   1   2
BRANCH   1  13
ATOM     13  S   UNL     1      -9.275   4.323 130.022  0.00  0.00    +0.000 S 
BRANCH  13  14
ATOM     14  C   UNL     1      -9.054   2.574 129.649  0.00  0.00    +0.000 C 
BRANCH  14  15
ATOM     15  C   UNL     1      -8.338   2.410 128.357  0.00  0.00    +0.000 A 
ATOM     16  C   UNL     1      -7.075   2.828 128.010  0.00  0.00    +0.000 A 
ATOM     17  C   UNL     1      -6.923   2.531 126.655  0.00  0.00    +0.000 A 
ATOM     18  C   UNL     1      -8.030   1.807 126.258  0.00  0.00    +0.000 A 
ATOM     19  O   UNL     1      -8.935   1.762 127.296  0.00  0.00    +0.000 OA
BRANCH  18  20
ATOM     20  C   UNL     1      -8.323   1.103 124.957  0.00  0.00    +0.000 C 
BRANCH  20  21
ATOM     21  N   UNL     1      -9.227   1.923 124.102  0.00  0.00    +0.000 NA
ATOM     22  C   UNL     1      -8.488   2.894 123.284  0.00  0.00    +0.000 C 
ATOM     23  C   UNL     1     -10.027   1.090 123.205  0.00  0.00    +0.000 C 
ENDBRANCH  20  21
ENDBRANCH  18  20
ENDBRANCH  14  15
ENDBRANCH  13  14
ENDBRANCH   1  13
TORSDOF 10
ENDMDL
MODEL 8
REMARK VINA RESULT:      -5.2      6.017      8.193
REMARK  Name = Ranitidine
REMARK  13 active torsions:
REMARK  status: ('A' for Active; 'I' for Inactive)
REMARK    1  A    between atoms: C_1  and  N_2
REMARK    2  A    between atoms: N_2  and  C_3
REMARK    3  A    between atoms: C_3  and  N_4
REMARK    4  A    between atoms: N_4  and  C_5
REMARK    5  A    between atoms: C_5  and  C_6
REMARK    6  A    between atoms: C_6  and  S_7
REMARK    7  A    between atoms: S_7  and  C_8
REMARK    8  A    between atoms: C_8  and  C_9
REMARK    9  A    between atoms: C_12  and  C_13
REMARK   10  A    between atoms: C_13  and  N_14
REMARK   11  A    between atoms: N_14  and  C_15
REMARK   12  A    between atoms: N_14  and  C_16
REMARK   13  A    between atoms: C_18  and  N_19
REMARK                            x       y       z     vdW  Elec       q    Type
REMARK                         _______ _______ _______ _____ _____    ______ ____
ROOT
ATOM      1  C   UNL     1      -6.823   1.056 124.984  0.00  0.00    +0.000 C 
ENDROOT
BRANCH   1   2
ATOM      2  C   UNL     1      -7.315  -0.288 125.490  0.00  0.00    +0.000 C 
BRANCH   2   3
ATOM      3  N   UNL     1      -8.538  -0.779 124.907  0.00  0.00    +0.000 N 
ATOM      4  H   UNL     1      -9.404  -0.570 125.411  0.00  0.00    +0.000 HD
BRANCH   3   5
ATOM      5  C   UNL     1      -8.694  -1.497 123.731  0.00  0.00    +0.000 C 
ATOM      6  C   UNL     1      -9.393  -1.001 122.683  0.00  0.00    +0.000 C 
BRANCH   5   8
ATOM      7  C   UNL     1      -8.045  -3.842 124.556  0.00  0.00    +0.000 C 
ATOM      8  N   UNL     1      -8.131  -2.768 123.586  0.00  0.00    +0.000 N 
ATOM      9  H   UNL     1      -7.718  -2.992 122.686  0.00  0.00    +0.000 HD
ENDBRANCH   5   8
BRANCH   6  10
ATOM     10  N   UNL     1     -10.030   0.301 122.692  0.00  0.00    +0.000 N 
ATOM     11  O   UNL     1     -11.271   0.384 122.615  0.00  0.00    +0.000 OA
ATOM     12  O   UNL     1      -9.274   1.271 122.780  0.00  0.00    +0.000 OA
ENDBRANCH   6  10
ENDBRANCH   3   5
ENDBRANCH   2   3
ENDBRANCH   1   2
BRANCH   1  13
ATOM     13  S   UNL     1      -7.449   2.245 126.238  0.00  0.00    +0.000 S 
BRANCH  13  14
ATOM     14  C   UNL     1      -7.907   3.637 125.190  0.00  0.00    +0.000 C 
BRANCH  14  15
ATOM     15  C   UNL     1      -6.899   3.825 124.114  0.00  0.00    +0.000 A 
ATOM     16  C   UNL     1      -5.599   4.263 124.215  0.00  0.00    +0.000 A 
ATOM     17  C   UNL     1      -5.121   4.371 122.909  0.00  0.00    +0.000 A 
ATOM     18  C   UNL     1      -6.084   3.852 122.066  0.00  0.00    +0.000 A 
ATOM     19  O   UNL     1      -7.210   3.549 122.800  0.00  0.00    +0.000 OA
BRANCH  18  20
ATOM     20  C   UNL     1      -6.041   3.578 120.583  0.00  0.00    +0.000 C 
BRANCH  20  21
ATOM     21  N   UNL     1      -6.591   4.730 119.814  0.00  0.00    +0.000 NA
ATOM     22  C   UNL     1      -5.540   5.488 119.120  0.00  0.00    +0.000 C 
ATOM     23  C   UNL     1      -7.571   4.299 118.819  0.00  0.00    +0.000 C 
ENDBRANCH  20  21
ENDBRANCH  18  20
ENDBRANCH  14  15
ENDBRANCH  13  14
ENDBRANCH   1  13
TORSDOF 10
ENDMDL
MODEL 9
REMARK VINA RESULT:      -5.1      6.152      8.110
REMARK  Name = Ranitidine
REMARK  13 active torsions:
REMARK  status: ('A' for Active; 'I' for Inactive)
REMARK    1  A    between atoms: C_1  and  N_2
REMARK    2  A    between atoms: N_2  and  C_3
REMARK    3  A    between atoms: C_3  and  N_4
REMARK    4  A    between atoms: N_4  and  C_5
REMARK    5  A    between atoms: C_5  and  C_6
REMARK    6  A    between atoms: C_6  and  S_7
REMARK    7  A    between atoms: S_7  and  C_8
REMARK    8  A    between atoms: C_8  and  C_9
REMARK    9  A    between atoms: C_12  and  C_13
REMARK   10  A    between atoms: C_13  and  N_14
REMARK   11  A    between atoms: N_14  and  C_15
REMARK   12  A    between atoms: N_14  and  C_16
REMARK   13  A    between atoms: C_18  and  N_19
REMARK                            x       y       z     vdW  Elec       q    Type
REMARK                         _______ _______ _______ _____ _____    ______ ____
ROOT
ATOM      1  C   UNL     1      -5.607   0.524 127.751  0.00  0.00    +0.000 C 
ENDROOT
BRANCH   1   2
ATOM      2  C   UNL     1      -5.812   1.716 126.833  0.00  0.00    +0.000 C 
BRANCH   2   3
ATOM      3  N   UNL     1      -6.028   1.415 125.441  0.00  0.00    +0.000 N 
ATOM      4  H   UNL     1      -5.193   1.256 124.870  0.00  0.00    +0.000 HD
BRANCH   3   5
ATOM      5  C   UNL     1      -7.236   1.303 124.769  0.00  0.00    +0.000 C 
ATOM      6  C   UNL     1      -7.484   1.995 123.633  0.00  0.00    +0.000 C 
BRANCH   5   8
ATOM      7  C   UNL     1      -9.657   0.749 125.428  0.00  0.00    +0.000 C 
ATOM      8  N   UNL     1      -8.248   0.464 125.247  0.00  0.00    +0.000 N 
ATOM      9  H   UNL     1      -7.980  -0.479 125.512  0.00  0.00    +0.000 HD
ENDBRANCH   5   8
BRANCH   6  10
ATOM     10  N   UNL     1      -6.529   2.900 123.024  0.00  0.00    +0.000 N 
ATOM     11  O   UNL     1      -6.210   2.751 121.829  0.00  0.00    +0.000 OA
ATOM     12  O   UNL     1      -6.083   3.786 123.756  0.00  0.00    +0.000 OA
ENDBRANCH   6  10
ENDBRANCH   3   5
ENDBRANCH   2   3
ENDBRANCH   1   2
BRANCH   1  13
ATOM     13  S   UNL     1      -7.157   0.468 128.738  0.00  0.00    +0.000 S 
BRANCH  13  14
ATOM     14  C   UNL     1      -7.040  -1.176 129.465  0.00  0.00    +0.000 C 
BRANCH  14  15
ATOM     15  C   UNL     1      -7.807  -2.155 128.651  0.00  0.00    +0.000 A 
ATOM     16  C   UNL     1      -8.306  -3.382 129.019  0.00  0.00    +0.000 A 
ATOM     17  C   UNL     1      -8.843  -3.948 127.863  0.00  0.00    +0.000 A 
ATOM     18  C   UNL     1      -8.796  -2.993 126.867  0.00  0.00    +0.000 A 
ATOM     19  O   UNL     1      -8.116  -1.889 127.334  0.00  0.00    +0.000 OA
BRANCH  18  20
ATOM     20  C   UNL     1      -9.371  -3.003 125.473  0.00  0.00    +0.000 C 
BRANCH  20  21
ATOM     21  N   UNL     1      -8.355  -2.565 124.476  0.00  0.00    +0.000 NA
ATOM     22  C   UNL     1      -7.249  -3.524 124.351  0.00  0.00    +0.000 C 
ATOM     23  C   UNL     1      -8.942  -2.375 123.150  0.00  0.00    +0.000 C 
ENDBRANCH  20  21
ENDBRANCH  18  20
ENDBRANCH  14  15
ENDBRANCH  13  14
ENDBRANCH   1  13
TORSDOF 10
ENDMDL
