MODEL 1
REMARK VINA RESULT:      -6.3      0.000      0.000
REMARK  Name = Rasagiline
REMARK  3 active torsions:
REMARK  status: ('A' for Active; 'I' for Inactive)
REMARK    1  A    between atoms: C_2  and  C_3
REMARK    2  A    between atoms: C_3  and  N_4
REMARK    3  A    between atoms: N_4  and  C_5
REMARK                            x       y       z     vdW  Elec       q    Type
REMARK                         _______ _______ _______ _____ _____    ______ ____
ROOT
ATOM      1  C   UNL     1      -7.288   3.228 122.451  0.00  0.00    +0.000 C 
ATOM      2  C   UNL     1      -5.832   3.777 122.551  0.00  0.00    +0.000 C 
ATOM      3  C   UNL     1      -5.280   3.852 121.132  0.00  0.00    +0.000 C 
ATOM      4  C   UNL     1      -6.534   4.066 120.345  0.00  0.00    +0.000 A 
ATOM      5  C   UNL     1      -6.636   4.531 119.044  0.00  0.00    +0.000 A 
ATOM      6  C   UNL     1      -7.905   4.612 118.467  0.00  0.00    +0.000 A 
ATOM      7  C   UNL     1      -9.043   4.209 119.176  0.00  0.00    +0.000 A 
ATOM      8  C   UNL     1      -8.932   3.736 120.486  0.00  0.00    +0.000 A 
ATOM      9  C   UNL     1      -7.672   3.698 121.072  0.00  0.00    +0.000 A 
ENDROOT
BRANCH   1  10
ATOM     10  N   UNL     1      -8.214   3.643 123.508  0.00  0.00    +0.000 NA
ATOM     11  H   UNL     1      -7.741   4.268 124.157  0.00  0.00    +0.000 HD
BRANCH  10  12
ATOM     12  C   UNL     1      -8.718   2.514 124.249  0.00  0.00    +0.000 C 
BRANCH  12  14
ATOM     13  C   UNL     1     -10.176   0.734 122.612  0.00  0.00    +0.000 C 
ATOM     14  C   UNL     1      -9.503   1.556 123.368  0.00  0.00    +0.000 C 
ENDBRANCH  12  14
ENDBRANCH  10  12
ENDBRANCH   1  10
TORSDOF 3
ENDMDL
MODEL 2
REMARK VINA RESULT:      -5.8      1.319      2.127
REMARK  Name = Rasagiline
REMARK  3 active torsions:
REMARK  status: ('A' for Active; 'I' for Inactive)
REMARK    1  A    between atoms: C_2  and  C_3
REMARK    2  A    between atoms: C_3  and  N_4
REMARK    3  A    between atoms: N_4  and  C_5
REMARK                            x       y       z     vdW  Elec       q    Type
REMARK                         _______ _______ _______ _____ _____    ______ ____
ROOT
ATOM      1  C   UNL     1      -6.868   3.419 122.211  0.00  0.00    +0.000 C 
ATOM      2  C   UNL     1      -5.675   4.140 122.910  0.00  0.00    +0.000 C 
ATOM      3  C   UNL     1      -4.673   4.512 121.824  0.00  0.00    +0.000 C 
ATOM      4  C   UNL     1      -5.576   4.672 120.641  0.00  0.00    +0.000 A 
ATOM      5  C   UNL     1      -5.286   5.317 119.449  0.00  0.00    +0.000 A 
ATOM      6  C   UNL     1      -6.253   5.312 118.442  0.00  0.00    +0.000 A 
ATOM      7  C   UNL     1      -7.474   4.650 118.621  0.00  0.00    +0.000 A 
ATOM      8  C   UNL     1      -7.756   3.997 119.825  0.00  0.00    +0.000 A 
ATOM      9  C   UNL     1      -6.809   4.042 120.841  0.00  0.00    +0.000 A 
ENDROOT
BRANCH   1  10
ATOM     10  N   UNL     1      -8.172   3.531 122.868  0.00  0.00    +0.000 NA
ATOM     11  H   UNL     1      -8.370   4.507 123.080  0.00  0.00    +0.000 HD
BRANCH  10  12
ATOM     12  C   UNL     1      -8.217   2.781 124.098  0.00  0.00    +0.000 C 
BRANCH  12  14
ATOM     13  C   UNL     1      -7.935   4.441 126.365  0.00  0.00    +0.000 C 
ATOM     14  C   UNL     1      -8.065   3.675 125.319  0.00  0.00    +0.000 C 
ENDBRANCH  12  14
ENDBRANCH  10  12
ENDBRANCH   1  10
TORSDOF 3
ENDMDL
MODEL 3
REMARK VINA RESULT:      -5.7      8.066      9.958
REMARK  Name = Rasagiline
REMARK  3 active torsions:
REMARK  status: ('A' for Active; 'I' for Inactive)
REMARK    1  A    between atoms: C_2  and  C_3
REMARK    2  A    between atoms: C_3  and  N_4
REMARK    3  A    between atoms: N_4  and  C_5
REMARK                            x       y       z     vdW  Elec       q    Type
REMARK                         _______ _______ _______ _____ _____    ______ ____
ROOT
ATOM      1  C   UNL     1     -10.143   7.267 130.205  0.00  0.00    +0.000 C 
ATOM      2  C   UNL     1     -11.108   6.625 131.248  0.00  0.00    +0.000 C 
ATOM      3  C   UNL     1     -12.531   6.920 130.787  0.00  0.00    +0.000 C 
ATOM      4  C   UNL     1     -12.341   7.014 129.306  0.00  0.00    +0.000 A 
ATOM      5  C   UNL     1     -13.323   6.942 128.330  0.00  0.00    +0.000 A 
ATOM      6  C   UNL     1     -12.944   7.105 126.996  0.00  0.00    +0.000 A 
ATOM      7  C   UNL     1     -11.610   7.360 126.654  0.00  0.00    +0.000 A 
ATOM      8  C   UNL     1     -10.627   7.436 127.644  0.00  0.00    +0.000 A 
ATOM      9  C   UNL     1     -11.001   7.230 128.967  0.00  0.00    +0.000 A 
ENDROOT
BRANCH   1  10
ATOM     10  N   UNL     1      -8.834   6.628 130.050  0.00  0.00    +0.000 NA
ATOM     11  H   UNL     1      -8.952   5.672 129.723  0.00  0.00    +0.000 HD
BRANCH  10  12
ATOM     12  C   UNL     1      -8.105   6.596 131.293  0.00  0.00    +0.000 C 
BRANCH  12  14
ATOM     13  C   UNL     1      -5.352   7.103 130.923  0.00  0.00    +0.000 C 
ATOM     14  C   UNL     1      -6.623   6.869 131.094  0.00  0.00    +0.000 C 
ENDBRANCH  12  14
ENDBRANCH  10  12
ENDBRANCH   1  10
TORSDOF 3
ENDMDL
MODEL 4
REMARK VINA RESULT:      -5.7      1.750      2.946
REMARK  Name = Rasagiline
REMARK  3 active torsions:
REMARK  status: ('A' for Active; 'I' for Inactive)
REMARK    1  A    between atoms: C_2  and  C_3
REMARK    2  A    between atoms: C_3  and  N_4
REMARK    3  A    between atoms: N_4  and  C_5
REMARK                            x       y       z     vdW  Elec       q    Type
REMARK                         _______ _______ _______ _____ _____    ______ ____
ROOT
ATOM      1  C   UNL     1      -5.958   3.816 122.231  0.00  0.00    +0.000 C 
ATOM      2  C   UNL     1      -4.825   4.691 121.613  0.00  0.00    +0.000 C 
ATOM      3  C   UNL     1      -4.983   4.630 120.098  0.00  0.00    +0.000 C 
ATOM      4  C   UNL     1      -6.457   4.406 119.971  0.00  0.00    +0.000 A 
ATOM      5  C   UNL     1      -7.236   4.590 118.840  0.00  0.00    +0.000 A 
ATOM      6  C   UNL     1      -8.594   4.274 118.913  0.00  0.00    +0.000 A 
ATOM      7  C   UNL     1      -9.149   3.758 120.090  0.00  0.00    +0.000 A 
ATOM      8  C   UNL     1      -8.355   3.569 121.225  0.00  0.00    +0.000 A 
ATOM      9  C   UNL     1      -7.014   3.927 121.162  0.00  0.00    +0.000 A 
ENDROOT
BRANCH   1  10
ATOM     10  N   UNL     1      -6.415   4.194 123.570  0.00  0.00    +0.000 NA
ATOM     11  H   UNL     1      -5.970   5.064 123.855  0.00  0.00    +0.000 HD
BRANCH  10  12
ATOM     12  C   UNL     1      -6.102   3.182 124.547  0.00  0.00    +0.000 C 
BRANCH  12  14
ATOM     13  C   UNL     1      -3.911   3.916 126.170  0.00  0.00    +0.000 C 
ATOM     14  C   UNL     1      -4.923   3.577 125.421  0.00  0.00    +0.000 C 
ENDBRANCH  12  14
ENDBRANCH  10  12
ENDBRANCH   1  10
TORSDOF 3
ENDMDL
MODEL 5
REMARK VINA RESULT:      -5.6      6.840      8.967
REMARK  Name = Rasagiline
REMARK  3 active torsions:
REMARK  status: ('A' for Active; 'I' for Inactive)
REMARK    1  A    between atoms: C_2  and  C_3
REMARK    2  A    between atoms: C_3  and  N_4
REMARK    3  A    between atoms: N_4  and  C_5
REMARK                            x       y       z     vdW  Elec       q    Type
REMARK                         _______ _______ _______ _____ _____    ______ ____
ROOT
ATOM      1  C   UNL     1      -7.004  -1.742 125.379  0.00  0.00    +0.000 C 
ATOM      2  C   UNL     1      -5.673  -1.184 125.969  0.00  0.00    +0.000 C 
ATOM      3  C   UNL     1      -5.888  -0.991 127.466  0.00  0.00    +0.000 C 
ATOM      4  C   UNL     1      -6.915  -2.043 127.746  0.00  0.00    +0.000 A 
ATOM      5  C   UNL     1      -7.262  -2.564 128.983  0.00  0.00    +0.000 A 
ATOM      6  C   UNL     1      -8.289  -3.508 129.039  0.00  0.00    +0.000 A 
ATOM      7  C   UNL     1      -8.969  -3.899 127.879  0.00  0.00    +0.000 A 
ATOM      8  C   UNL     1      -8.617  -3.365 126.637  0.00  0.00    +0.000 A 
ATOM      9  C   UNL     1      -7.565  -2.459 126.579  0.00  0.00    +0.000 A 
ENDROOT
BRANCH   1  10
ATOM     10  N   UNL     1      -6.885  -2.576 124.181  0.00  0.00    +0.000 NA
ATOM     11  H   UNL     1      -7.015  -3.555 124.426  0.00  0.00    +0.000 HD
BRANCH  10  12
ATOM     12  C   UNL     1      -5.595  -2.431 123.555  0.00  0.00    +0.000 C 
BRANCH  12  14
ATOM     13  C   UNL     1      -4.155  -4.860 123.517  0.00  0.00    +0.000 C 
ATOM     14  C   UNL     1      -4.820  -3.738 123.535  0.00  0.00    +0.000 C 
ENDBRANCH  12  14
ENDBRANCH  10  12
ENDBRANCH   1  10
TORSDOF 3
ENDMDL
MODEL 6
REMARK VINA RESULT:      -5.4      9.937     10.503
REMARK  Name = Rasagiline
REMARK  3 active torsions:
REMARK  status: ('A' for Active; 'I' for Inactive)
REMARK    1  A    between atoms: C_2  and  C_3
REMARK    2  A    between atoms: C_3  and  N_4
REMARK    3  A    between atoms: N_4  and  C_5
REMARK                            x       y       z     vdW  Elec       q    Type
REMARK                         _______ _______ _______ _____ _____    ______ ____
ROOT
ATOM      1  C   UNL     1      -9.260   5.246 132.006  0.00  0.00    +0.000 C 
ATOM      2  C   UNL     1      -8.047   6.225 132.040  0.00  0.00    +0.000 C 
ATOM      3  C   UNL     1      -8.052   6.996 130.726  0.00  0.00    +0.000 C 
ATOM      4  C   UNL     1      -9.511   6.989 130.393  0.00  0.00    +0.000 A 
ATOM      5  C   UNL     1     -10.167   7.809 129.488  0.00  0.00    +0.000 A 
ATOM      6  C   UNL     1     -11.533   7.609 129.281  0.00  0.00    +0.000 A 
ATOM      7  C   UNL     1     -12.218   6.588 129.951  0.00  0.00    +0.000 A 
ATOM      8  C   UNL     1     -11.549   5.761 130.858  0.00  0.00    +0.000 A 
ATOM      9  C   UNL     1     -10.199   5.992 131.093  0.00  0.00    +0.000 A 
ENDROOT
BRANCH   1  10
ATOM     10  N   UNL     1      -9.841   4.883 133.300  0.00  0.00    +0.000 NA
ATOM     11  H   UNL     1      -9.663   5.620 133.979  0.00  0.00    +0.000 HD
BRANCH  10  12
ATOM     12  C   UNL     1      -9.286   3.654 133.809  0.00  0.00    +0.000 C 
BRANCH  12  14
ATOM     13  C   UNL     1      -9.568   1.523 131.978  0.00  0.00    +0.000 C 
ATOM     14  C   UNL     1      -9.438   2.507 132.823  0.00  0.00    +0.000 C 
ENDBRANCH  12  14
ENDBRANCH  10  12
ENDBRANCH   1  10
TORSDOF 3
ENDMDL
MODEL 7
REMARK VINA RESULT:      -5.4      1.391      2.332
REMARK  Name = Rasagiline
REMARK  3 active torsions:
REMARK  status: ('A' for Active; 'I' for Inactive)
REMARK    1  A    between atoms: C_2  and  C_3
REMARK    2  A    between atoms: C_3  and  N_4
REMARK    3  A    between atoms: N_4  and  C_5
REMARK                            x       y       z     vdW  Elec       q    Type
REMARK                         _______ _______ _______ _____ _____    ______ ____
ROOT
ATOM      1  C   UNL     1      -7.365   3.102 124.127  0.00  0.00    +0.000 C 
ATOM      2  C   UNL     1      -6.498   3.923 125.130  0.00  0.00    +0.000 C 
ATOM      3  C   UNL     1      -5.151   4.174 124.461  0.00  0.00    +0.000 C 
ATOM      4  C   UNL     1      -5.542   4.172 123.017  0.00  0.00    +0.000 A 
ATOM      5  C   UNL     1      -4.807   4.669 121.952  0.00  0.00    +0.000 A 
ATOM      6  C   UNL     1      -5.328   4.525 120.664  0.00  0.00    +0.000 A 
ATOM      7  C   UNL     1      -6.547   3.871 120.451  0.00  0.00    +0.000 A 
ATOM      8  C   UNL     1      -7.279   3.367 121.530  0.00  0.00    +0.000 A 
ATOM      9  C   UNL     1      -6.779   3.552 122.814  0.00  0.00    +0.000 A 
ENDROOT
BRANCH   1  10
ATOM     10  N   UNL     1      -8.816   3.274 124.229  0.00  0.00    +0.000 NA
ATOM     11  H   UNL     1      -9.033   3.988 124.922  0.00  0.00    +0.000 HD
BRANCH  10  12
ATOM     12  C   UNL     1      -9.474   2.051 124.616  0.00  0.00    +0.000 C 
BRANCH  12  14
ATOM     13  C   UNL     1     -10.200   0.484 122.382  0.00  0.00    +0.000 C 
ATOM     14  C   UNL     1      -9.864   1.208 123.413  0.00  0.00    +0.000 C 
ENDBRANCH  12  14
ENDBRANCH  10  12
ENDBRANCH   1  10
TORSDOF 3
ENDMDL
MODEL 8
REMARK VINA RESULT:      -5.4      6.208      9.169
REMARK  Name = Rasagiline
REMARK  3 active torsions:
REMARK  status: ('A' for Active; 'I' for Inactive)
REMARK    1  A    between atoms: C_2  and  C_3
REMARK    2  A    between atoms: C_3  and  N_4
REMARK    3  A    between atoms: N_4  and  C_5
REMARK                            x       y       z     vdW  Elec       q    Type
REMARK                         _______ _______ _______ _____ _____    ______ ____
ROOT
ATOM      1  C   UNL     1      -7.417  -2.528 125.275  0.00  0.00    +0.000 C 
ATOM      2  C   UNL     1      -8.972  -2.637 125.283  0.00  0.00    +0.000 C 
ATOM      3  C   UNL     1      -9.365  -3.384 126.553  0.00  0.00    +0.000 C 
ATOM      4  C   UNL     1      -8.236  -3.018 127.464  0.00  0.00    +0.000 A 
ATOM      5  C   UNL     1      -8.206  -3.130 128.845  0.00  0.00    +0.000 A 
ATOM      6  C   UNL     1      -7.031  -2.780 129.512  0.00  0.00    +0.000 A 
ATOM      7  C   UNL     1      -5.902  -2.351 128.803  0.00  0.00    +0.000 A 
ATOM      8  C   UNL     1      -5.939  -2.245 127.409  0.00  0.00    +0.000 A 
ATOM      9  C   UNL     1      -7.125  -2.553 126.753  0.00  0.00    +0.000 A 
ENDROOT
BRANCH   1  10
ATOM     10  N   UNL     1      -6.849  -1.377 124.568  0.00  0.00    +0.000 NA
ATOM     11  H   UNL     1      -7.578  -0.693 124.378  0.00  0.00    +0.000 HD
BRANCH  10  12
ATOM     12  C   UNL     1      -6.249  -1.762 123.316  0.00  0.00    +0.000 C 
BRANCH  12  14
ATOM     13  C   UNL     1      -4.463  -3.928 123.615  0.00  0.00    +0.000 C 
ATOM     14  C   UNL     1      -5.288  -2.928 123.477  0.00  0.00    +0.000 C 
ENDBRANCH  12  14
ENDBRANCH  10  12
ENDBRANCH   1  10
TORSDOF 3
ENDMDL
MODEL 9
REMARK VINA RESULT:      -5.4      4.795      7.054
REMARK  Name = Rasagiline
REMARK  3 active torsions:
REMARK  status: ('A' for Active; 'I' for Inactive)
REMARK    1  A    between atoms: C_2  and  C_3
REMARK    2  A    between atoms: C_3  and  N_4
REMARK    3  A    between atoms: N_4  and  C_5
REMARK                            x       y       z     vdW  Elec       q    Type
REMARK                         _______ _______ _______ _____ _____    ______ ____
ROOT
ATOM      1  C   UNL     1      -9.068  -2.142 123.775  0.00  0.00    +0.000 C 
ATOM      2  C   UNL     1      -9.250  -2.875 125.139  0.00  0.00    +0.000 C 
ATOM      3  C   UNL     1      -8.222  -4.000 125.187  0.00  0.00    +0.000 C 
ATOM      4  C   UNL     1      -7.138  -3.437 124.323  0.00  0.00    +0.000 A 
ATOM      5  C   UNL     1      -5.819  -3.858 124.255  0.00  0.00    +0.000 A 
ATOM      6  C   UNL     1      -4.970  -3.231 123.341  0.00  0.00    +0.000 A 
ATOM      7  C   UNL     1      -5.445  -2.221 122.495  0.00  0.00    +0.000 A 
ATOM      8  C   UNL     1      -6.778  -1.806 122.566  0.00  0.00    +0.000 A 
ATOM      9  C   UNL     1      -7.608  -2.402 123.508  0.00  0.00    +0.000 A 
ENDROOT
BRANCH   1  10
ATOM     10  N   UNL     1      -9.443  -0.727 123.742  0.00  0.00    +0.000 NA
ATOM     11  H   UNL     1      -8.934  -0.250 123.001  0.00  0.00    +0.000 HD
BRANCH  10  12
ATOM     12  C   UNL     1      -9.151  -0.067 124.990  0.00  0.00    +0.000 C 
BRANCH  12  14
ATOM     13  C   UNL     1      -6.760   1.430 124.865  0.00  0.00    +0.000 C 
ATOM     14  C   UNL     1      -7.864   0.738 124.923  0.00  0.00    +0.000 C 
ENDBRANCH  12  14
ENDBRANCH  10  12
ENDBRANCH   1  10
TORSDOF 3
ENDMDL
