MODEL 1
REMARK VINA RESULT:      -8.5      0.000      0.000
REMARK  Name = Rebamipide
REMARK  6 active torsions:
REMARK  status: ('A' for Active; 'I' for Inactive)
REMARK    1  A    between atoms: O_1  and  C_2
REMARK    2  A    between atoms: C_2  and  CA_4
REMARK    3  A    between atoms: CA_4  and  C_5
REMARK    4  A    between atoms: CA_4  and  N_17
REMARK    5  A    between atoms: C_5  and  C_6
REMARK    6  A    between atoms: C_18  and  C_20
REMARK                            x       y       z     vdW  Elec       q    Type
REMARK                         _______ _______ _______ _____ _____    ______ ____
ROOT
ATOM      1  CA  UNL     1      -8.568   1.040 123.674  0.00  0.00    +0.000 C 
ENDROOT
BRANCH   1   2
ATOM      2  N   UNL     1      -8.193   1.938 122.555  0.00  0.00    +0.000 N 
ATOM      3  C   UNL     1      -7.196   2.884 122.661  0.00  0.00    +0.000 C 
ATOM      4  O   UNL     1      -6.559   3.080 123.695  0.00  0.00    +0.000 OA
ATOM      5  H   UNL     1      -8.661   1.771 121.665  0.00  0.00    +0.000 HD
BRANCH   3   6
ATOM      6  C   UNL     1      -6.855   3.673 121.450  0.00  0.00    +0.000 A 
ATOM      7  C   UNL     1      -5.579   4.217 121.278  0.00  0.00    +0.000 A 
ATOM      8  C   UNL     1      -5.267   4.907 120.099  0.00  0.00    +0.000 A 
ATOM      9  C   UNL     1      -6.229   5.057 119.098  0.00  0.00    +0.000 A 
ATOM     10 CL   UNL     1      -5.845   5.930 117.666  0.00  0.00    +0.000 Cl
ATOM     11  C   UNL     1      -7.497   4.501 119.253  0.00  0.00    +0.000 A 
ATOM     12  C   UNL     1      -7.808   3.801 120.425  0.00  0.00    +0.000 A 
ENDBRANCH   3   6
ENDBRANCH   1   2
BRANCH   1  13
ATOM     13  C   UNL     1      -9.731   1.705 124.451  0.00  0.00    +0.000 C 
ATOM     14  OXT UNL     1     -10.866   1.234 124.475  0.00  0.00    +0.000 OA
BRANCH  13  15
ATOM     15  O   UNL     1      -9.467   2.868 125.088  0.00  0.00    +0.000 OA
ATOM     16  H   UNL     1     -10.097   3.170 125.771  0.00  0.00    +0.000 HD
ENDBRANCH  13  15
ENDBRANCH   1  13
BRANCH   1  17
ATOM     17  C   UNL     1      -8.916  -0.369 123.146  0.00  0.00    +0.000 C 
BRANCH  17  18
ATOM     18  C   UNL     1      -8.454  -1.479 124.053  0.00  0.00    +0.000 A 
ATOM     19  C   UNL     1      -9.244  -1.919 125.050  0.00  0.00    +0.000 A 
ATOM     20  C   UNL     1      -8.889  -3.100 125.867  0.00  0.00    +0.000 A 
ATOM     21  O   UNL     1      -9.651  -3.515 126.735  0.00  0.00    +0.000 OA
ATOM     22  N   UNL     1      -7.712  -3.722 125.560  0.00  0.00    +0.000 N 
ATOM     23  C   UNL     1      -6.830  -3.275 124.566  0.00  0.00    +0.000 A 
ATOM     24  C   UNL     1      -7.161  -2.149 123.798  0.00  0.00    +0.000 A 
ATOM     25  C   UNL     1      -6.293  -1.763 122.766  0.00  0.00    +0.000 A 
ATOM     26  C   UNL     1      -5.115  -2.464 122.523  0.00  0.00    +0.000 A 
ATOM     27  C   UNL     1      -4.787  -3.562 123.310  0.00  0.00    +0.000 A 
ATOM     28  C   UNL     1      -5.648  -3.976 124.329  0.00  0.00    +0.000 A 
ATOM     29  H   UNL     1      -7.490  -4.541 126.110  0.00  0.00    +0.000 HD
ENDBRANCH  17  18
ENDBRANCH   1  17
TORSDOF 6
ENDMDL
MODEL 2
REMARK VINA RESULT:      -8.3      2.580      3.461
REMARK  Name = Rebamipide
REMARK  6 active torsions:
REMARK  status: ('A' for Active; 'I' for Inactive)
REMARK    1  A    between atoms: O_1  and  C_2
REMARK    2  A    between atoms: C_2  and  CA_4
REMARK    3  A    between atoms: CA_4  and  C_5
REMARK    4  A    between atoms: CA_4  and  N_17
REMARK    5  A    between atoms: C_5  and  C_6
REMARK    6  A    between atoms: C_18  and  C_20
REMARK                            x       y       z     vdW  Elec       q    Type
REMARK                         _______ _______ _______ _____ _____    ______ ____
ROOT
ATOM      1  CA  UNL     1      -7.856   0.574 124.632  0.00  0.00    +0.000 C 
ENDROOT
BRANCH   1   2
ATOM      2  N   UNL     1      -7.502   1.352 123.420  0.00  0.00    +0.000 N 
ATOM      3  C   UNL     1      -7.942   2.641 123.208  0.00  0.00    +0.000 C 
ATOM      4  O   UNL     1      -8.685   3.238 123.986  0.00  0.00    +0.000 OA
ATOM      5  H   UNL     1      -6.846   0.912 122.776  0.00  0.00    +0.000 HD
BRANCH   3   6
ATOM      6  C   UNL     1      -7.459   3.349 121.994  0.00  0.00    +0.000 A 
ATOM      7  C   UNL     1      -6.114   3.702 121.852  0.00  0.00    +0.000 A 
ATOM      8  C   UNL     1      -5.676   4.317 120.671  0.00  0.00    +0.000 A 
ATOM      9  C   UNL     1      -6.579   4.583 119.641  0.00  0.00    +0.000 A 
ATOM     10 CL   UNL     1      -6.036   5.363 118.207  0.00  0.00    +0.000 Cl
ATOM     11  C   UNL     1      -7.918   4.217 119.767  0.00  0.00    +0.000 A 
ATOM     12  C   UNL     1      -8.357   3.592 120.940  0.00  0.00    +0.000 A 
ENDBRANCH   3   6
ENDBRANCH   1   2
BRANCH   1  13
ATOM     13  C   UNL     1      -9.306   0.055 124.460  0.00  0.00    +0.000 C 
ATOM     14  OXT UNL     1      -9.598  -0.841 123.672  0.00  0.00    +0.000 OA
BRANCH  13  15
ATOM     15  O   UNL     1     -10.271   0.656 125.191  0.00  0.00    +0.000 OA
ATOM     16  H   UNL     1     -10.429   0.329 126.098  0.00  0.00    +0.000 HD
ENDBRANCH  13  15
ENDBRANCH   1  13
BRANCH   1  17
ATOM     17  C   UNL     1      -6.830  -0.555 124.872  0.00  0.00    +0.000 C 
BRANCH  17  18
ATOM     18  C   UNL     1      -6.570  -0.828 126.330  0.00  0.00    +0.000 A 
ATOM     19  C   UNL     1      -5.718  -0.055 127.027  0.00  0.00    +0.000 A 
ATOM     20  C   UNL     1      -5.548  -0.198 128.490  0.00  0.00    +0.000 A 
ATOM     21  O   UNL     1      -4.806   0.554 129.113  0.00  0.00    +0.000 OA
ATOM     22  N   UNL     1      -6.300  -1.163 129.099  0.00  0.00    +0.000 N 
ATOM     23  C   UNL     1      -7.164  -2.027 128.412  0.00  0.00    +0.000 A 
ATOM     24  C   UNL     1      -7.318  -1.898 127.024  0.00  0.00    +0.000 A 
ATOM     25  C   UNL     1      -8.239  -2.731 126.371  0.00  0.00    +0.000 A 
ATOM     26  C   UNL     1      -8.967  -3.684 127.078  0.00  0.00    +0.000 A 
ATOM     27  C   UNL     1      -8.784  -3.818 128.450  0.00  0.00    +0.000 A 
ATOM     28  C   UNL     1      -7.888  -2.985 129.123  0.00  0.00    +0.000 A 
ATOM     29  H   UNL     1      -6.192  -1.237 130.102  0.00  0.00    +0.000 HD
ENDBRANCH  17  18
ENDBRANCH   1  17
TORSDOF 6
ENDMDL
MODEL 3
REMARK VINA RESULT:      -8.2      2.114      3.102
REMARK  Name = Rebamipide
REMARK  6 active torsions:
REMARK  status: ('A' for Active; 'I' for Inactive)
REMARK    1  A    between atoms: O_1  and  C_2
REMARK    2  A    between atoms: C_2  and  CA_4
REMARK    3  A    between atoms: CA_4  and  C_5
REMARK    4  A    between atoms: CA_4  and  N_17
REMARK    5  A    between atoms: C_5  and  C_6
REMARK    6  A    between atoms: C_18  and  C_20
REMARK                            x       y       z     vdW  Elec       q    Type
REMARK                         _______ _______ _______ _____ _____    ______ ____
ROOT
ATOM      1  CA  UNL     1      -6.881   1.257 125.679  0.00  0.00    +0.000 C 
ENDROOT
BRANCH   1   2
ATOM      2  N   UNL     1      -7.077   1.808 124.316  0.00  0.00    +0.000 N 
ATOM      3  C   UNL     1      -6.597   3.044 123.936  0.00  0.00    +0.000 C 
ATOM      4  O   UNL     1      -5.997   3.799 124.700  0.00  0.00    +0.000 OA
ATOM      5  H   UNL     1      -7.523   1.191 123.639  0.00  0.00    +0.000 HD
BRANCH   3   6
ATOM      6  C   UNL     1      -6.786   3.458 122.522  0.00  0.00    +0.000 A 
ATOM      7  C   UNL     1      -5.695   3.807 121.721  0.00  0.00    +0.000 A 
ATOM      8  C   UNL     1      -5.897   4.137 120.373  0.00  0.00    +0.000 A 
ATOM      9  C   UNL     1      -7.183   4.123 119.832  0.00  0.00    +0.000 A 
ATOM     10 CL   UNL     1      -7.422   4.557 118.184  0.00  0.00    +0.000 Cl
ATOM     11  C   UNL     1      -8.273   3.757 120.620  0.00  0.00    +0.000 A 
ATOM     12  C   UNL     1      -8.074   3.416 121.962  0.00  0.00    +0.000 A 
ENDBRANCH   3   6
ENDBRANCH   1   2
BRANCH   1  13
ATOM     13  C   UNL     1      -8.214   1.411 126.453  0.00  0.00    +0.000 C 
ATOM     14  OXT UNL     1      -9.291   1.590 125.887  0.00  0.00    +0.000 OA
BRANCH  13  15
ATOM     15  O   UNL     1      -8.155   1.380 127.803  0.00  0.00    +0.000 OA
ATOM     16  H   UNL     1      -8.049   2.228 128.276  0.00  0.00    +0.000 HD
ENDBRANCH  13  15
ENDBRANCH   1  13
BRANCH   1  17
ATOM     17  C   UNL     1      -6.384  -0.203 125.607  0.00  0.00    +0.000 C 
BRANCH  17  18
ATOM     18  C   UNL     1      -7.499  -1.215 125.601  0.00  0.00    +0.000 A 
ATOM     19  C   UNL     1      -8.200  -1.451 124.477  0.00  0.00    +0.000 A 
ATOM     20  C   UNL     1      -9.202  -2.537 124.392  0.00  0.00    +0.000 A 
ATOM     21  O   UNL     1      -9.789  -2.767 123.340  0.00  0.00    +0.000 OA
ATOM     22  N   UNL     1      -9.383  -3.288 125.518  0.00  0.00    +0.000 N 
ATOM     23  C   UNL     1      -8.715  -3.052 126.728  0.00  0.00    +0.000 A 
ATOM     24  C   UNL     1      -7.773  -2.017 126.813  0.00  0.00    +0.000 A 
ATOM     25  C   UNL     1      -7.072  -1.846 128.015  0.00  0.00    +0.000 A 
ATOM     26  C   UNL     1      -7.320  -2.667 129.112  0.00  0.00    +0.000 A 
ATOM     27  C   UNL     1      -8.277  -3.672 129.021  0.00  0.00    +0.000 A 
ATOM     28  C   UNL     1      -8.971  -3.874 127.827  0.00  0.00    +0.000 A 
ATOM     29  H   UNL     1     -10.053  -4.042 125.442  0.00  0.00    +0.000 HD
ENDBRANCH  17  18
ENDBRANCH   1  17
TORSDOF 6
ENDMDL
MODEL 4
REMARK VINA RESULT:      -8.1      2.101      2.936
REMARK  Name = Rebamipide
REMARK  6 active torsions:
REMARK  status: ('A' for Active; 'I' for Inactive)
REMARK    1  A    between atoms: O_1  and  C_2
REMARK    2  A    between atoms: C_2  and  CA_4
REMARK    3  A    between atoms: CA_4  and  C_5
REMARK    4  A    between atoms: CA_4  and  N_17
REMARK    5  A    between atoms: C_5  and  C_6
REMARK    6  A    between atoms: C_18  and  C_20
REMARK                            x       y       z     vdW  Elec       q    Type
REMARK                         _______ _______ _______ _____ _____    ______ ____
ROOT
ATOM      1  CA  UNL     1      -7.160   2.528 126.212  0.00  0.00    +0.000 C 
ENDROOT
BRANCH   1   2
ATOM      2  N   UNL     1      -7.269   2.939 124.791  0.00  0.00    +0.000 N 
ATOM      3  C   UNL     1      -6.205   3.452 124.080  0.00  0.00    +0.000 C 
ATOM      4  O   UNL     1      -5.092   3.638 124.571  0.00  0.00    +0.000 OA
ATOM      5  H   UNL     1      -8.160   2.751 124.334  0.00  0.00    +0.000 HD
BRANCH   3   6
ATOM      6  C   UNL     1      -6.412   3.755 122.641  0.00  0.00    +0.000 A 
ATOM      7  C   UNL     1      -5.366   4.234 121.846  0.00  0.00    +0.000 A 
ATOM      8  C   UNL     1      -5.575   4.456 120.478  0.00  0.00    +0.000 A 
ATOM      9  C   UNL     1      -6.825   4.205 119.909  0.00  0.00    +0.000 A 
ATOM     10 CL   UNL     1      -7.078   4.508 118.234  0.00  0.00    +0.000 Cl
ATOM     11  C   UNL     1      -7.867   3.709 120.691  0.00  0.00    +0.000 A 
ATOM     12  C   UNL     1      -7.658   3.475 122.055  0.00  0.00    +0.000 A 
ENDBRANCH   3   6
ENDBRANCH   1   2
BRANCH   1  13
ATOM     13  C   UNL     1      -7.495   3.758 127.092  0.00  0.00    +0.000 C 
ATOM     14  OXT UNL     1      -8.587   3.903 127.638  0.00  0.00    +0.000 OA
BRANCH  13  15
ATOM     15  O   UNL     1      -6.545   4.711 127.215  0.00  0.00    +0.000 OA
ATOM     16  H   UNL     1      -6.835   5.638 127.317  0.00  0.00    +0.000 HD
ENDBRANCH  13  15
ENDBRANCH   1  13
BRANCH   1  17
ATOM     17  C   UNL     1      -8.067   1.311 126.497  0.00  0.00    +0.000 C 
BRANCH  17  18
ATOM     18  C   UNL     1      -8.414   0.522 125.262  0.00  0.00    +0.000 A 
ATOM     19  C   UNL     1      -9.538   0.793 124.573  0.00  0.00    +0.000 A 
ATOM     20  C   UNL     1      -9.840   0.143 123.278  0.00  0.00    +0.000 A 
ATOM     21  O   UNL     1     -10.844   0.446 122.643  0.00  0.00    +0.000 OA
ATOM     22  N   UNL     1      -8.918  -0.754 122.818  0.00  0.00    +0.000 N 
ATOM     23  C   UNL     1      -7.757  -1.108 123.520  0.00  0.00    +0.000 A 
ATOM     24  C   UNL     1      -7.476  -0.500 124.752  0.00  0.00    +0.000 A 
ATOM     25  C   UNL     1      -6.275  -0.823 125.400  0.00  0.00    +0.000 A 
ATOM     26  C   UNL     1      -5.391  -1.748 124.849  0.00  0.00    +0.000 A 
ATOM     27  C   UNL     1      -5.697  -2.363 123.640  0.00  0.00    +0.000 A 
ATOM     28  C   UNL     1      -6.877  -2.039 122.967  0.00  0.00    +0.000 A 
ATOM     29  H   UNL     1      -9.123  -1.175 121.922  0.00  0.00    +0.000 HD
ENDBRANCH  17  18
ENDBRANCH   1  17
TORSDOF 6
ENDMDL
MODEL 5
REMARK VINA RESULT:      -8.1      4.022      7.786
REMARK  Name = Rebamipide
REMARK  6 active torsions:
REMARK  status: ('A' for Active; 'I' for Inactive)
REMARK    1  A    between atoms: O_1  and  C_2
REMARK    2  A    between atoms: C_2  and  CA_4
REMARK    3  A    between atoms: CA_4  and  C_5
REMARK    4  A    between atoms: CA_4  and  N_17
REMARK    5  A    between atoms: C_5  and  C_6
REMARK    6  A    between atoms: C_18  and  C_20
REMARK                            x       y       z     vdW  Elec       q    Type
REMARK                         _______ _______ _______ _____ _____    ______ ____
ROOT
ATOM      1  CA  UNL     1      -8.802   0.677 123.670  0.00  0.00    +0.000 C 
ENDROOT
BRANCH   1   2
ATOM      2  N   UNL     1      -8.761   0.086 125.030  0.00  0.00    +0.000 N 
ATOM      3  C   UNL     1      -8.042  -1.054 125.325  0.00  0.00    +0.000 C 
ATOM      4  O   UNL     1      -7.405  -1.686 124.484  0.00  0.00    +0.000 OA
ATOM      5  H   UNL     1      -9.233   0.610 125.765  0.00  0.00    +0.000 HD
BRANCH   3   6
ATOM      6  C   UNL     1      -8.012  -1.509 126.738  0.00  0.00    +0.000 A 
ATOM      7  C   UNL     1      -8.345  -2.822 127.081  0.00  0.00    +0.000 A 
ATOM      8  C   UNL     1      -8.250  -3.240 128.415  0.00  0.00    +0.000 A 
ATOM      9  C   UNL     1      -7.830  -2.348 129.403  0.00  0.00    +0.000 A 
ATOM     10 CL   UNL     1      -7.744  -2.864 131.042  0.00  0.00    +0.000 Cl
ATOM     11  C   UNL     1      -7.477  -1.042 129.066  0.00  0.00    +0.000 A 
ATOM     12  C   UNL     1      -7.559  -0.625 127.733  0.00  0.00    +0.000 A 
ENDBRANCH   3   6
ENDBRANCH   1   2
BRANCH   1  13
ATOM     13  C   UNL     1      -9.935  -0.024 122.879  0.00  0.00    +0.000 C 
ATOM     14  OXT UNL     1     -10.966   0.557 122.545  0.00  0.00    +0.000 OA
BRANCH  13  15
ATOM     15  O   UNL     1      -9.772  -1.334 122.591  0.00  0.00    +0.000 OA
ATOM     16  H   UNL     1      -8.954  -1.772 122.897  0.00  0.00    +0.000 HD
ENDBRANCH  13  15
ENDBRANCH   1  13
BRANCH   1  17
ATOM     17  C   UNL     1      -8.973   2.210 123.750  0.00  0.00    +0.000 C 
BRANCH  17  18
ATOM     18  C   UNL     1      -7.676   2.947 123.947  0.00  0.00    +0.000 A 
ATOM     19  C   UNL     1      -7.124   3.042 125.170  0.00  0.00    +0.000 A 
ATOM     20  C   UNL     1      -5.782   3.629 125.381  0.00  0.00    +0.000 A 
ATOM     21  O   UNL     1      -5.277   3.654 126.499  0.00  0.00    +0.000 OA
ATOM     22  N   UNL     1      -5.131   4.076 124.267  0.00  0.00    +0.000 N 
ATOM     23  C   UNL     1      -5.681   4.046 122.978  0.00  0.00    +0.000 A 
ATOM     24  C   UNL     1      -6.957   3.500 122.779  0.00  0.00    +0.000 A 
ATOM     25  C   UNL     1      -7.456   3.422 121.470  0.00  0.00    +0.000 A 
ATOM     26  C   UNL     1      -6.715   3.900 120.393  0.00  0.00    +0.000 A 
ATOM     27  C   UNL     1      -5.463   4.464 120.609  0.00  0.00    +0.000 A 
ATOM     28  C   UNL     1      -4.938   4.532 121.901  0.00  0.00    +0.000 A 
ATOM     29  H   UNL     1      -4.205   4.455 124.419  0.00  0.00    +0.000 HD
ENDBRANCH  17  18
ENDBRANCH   1  17
TORSDOF 6
ENDMDL
MODEL 6
REMARK VINA RESULT:      -8.0      2.190      2.713
REMARK  Name = Rebamipide
REMARK  6 active torsions:
REMARK  status: ('A' for Active; 'I' for Inactive)
REMARK    1  A    between atoms: O_1  and  C_2
REMARK    2  A    between atoms: C_2  and  CA_4
REMARK    3  A    between atoms: CA_4  and  C_5
REMARK    4  A    between atoms: CA_4  and  N_17
REMARK    5  A    between atoms: C_5  and  C_6
REMARK    6  A    between atoms: C_18  and  C_20
REMARK                            x       y       z     vdW  Elec       q    Type
REMARK                         _______ _______ _______ _____ _____    ______ ____
ROOT
ATOM      1  CA  UNL     1      -7.762   2.262 126.106  0.00  0.00    +0.000 C 
ENDROOT
BRANCH   1   2
ATOM      2  N   UNL     1      -7.816   2.746 124.704  0.00  0.00    +0.000 N 
ATOM      3  C   UNL     1      -6.687   3.102 123.996  0.00  0.00    +0.000 C 
ATOM      4  O   UNL     1      -5.554   3.076 124.475  0.00  0.00    +0.000 OA
ATOM      5  H   UNL     1      -8.730   2.731 124.255  0.00  0.00    +0.000 HD
BRANCH   3   6
ATOM      6  C   UNL     1      -6.855   3.497 122.574  0.00  0.00    +0.000 A 
ATOM      7  C   UNL     1      -5.755   3.848 121.788  0.00  0.00    +0.000 A 
ATOM      8  C   UNL     1      -5.936   4.160 120.433  0.00  0.00    +0.000 A 
ATOM      9  C   UNL     1      -7.213   4.127 119.870  0.00  0.00    +0.000 A 
ATOM     10 CL   UNL     1      -7.428   4.539 118.214  0.00  0.00    +0.000 Cl
ATOM     11  C   UNL     1      -8.313   3.760 120.643  0.00  0.00    +0.000 A 
ATOM     12  C   UNL     1      -8.134   3.436 121.993  0.00  0.00    +0.000 A 
ENDBRANCH   3   6
ENDBRANCH   1   2
BRANCH   1  13
ATOM     13  C   UNL     1      -7.832   3.495 127.040  0.00  0.00    +0.000 C 
ATOM     14  OXT UNL     1      -8.619   3.569 127.981  0.00  0.00    +0.000 OA
BRANCH  13  15
ATOM     15  O   UNL     1      -7.008   4.531 126.762  0.00  0.00    +0.000 OA
ATOM     16  H   UNL     1      -6.525   4.517 125.913  0.00  0.00    +0.000 HD
ENDBRANCH  13  15
ENDBRANCH   1  13
BRANCH   1  17
ATOM     17  C   UNL     1      -8.887   1.235 126.368  0.00  0.00    +0.000 C 
BRANCH  17  18
ATOM     18  C   UNL     1      -8.397  -0.187 126.422  0.00  0.00    +0.000 A 
ATOM     19  C   UNL     1      -7.912  -0.700 127.568  0.00  0.00    +0.000 A 
ATOM     20  C   UNL     1      -7.559  -2.131 127.698  0.00  0.00    +0.000 A 
ATOM     21  O   UNL     1      -7.171  -2.586 128.769  0.00  0.00    +0.000 OA
ATOM     22  N   UNL     1      -7.746  -2.908 126.590  0.00  0.00    +0.000 N 
ATOM     23  C   UNL     1      -8.200  -2.414 125.359  0.00  0.00    +0.000 A 
ATOM     24  C   UNL     1      -8.525  -1.056 125.232  0.00  0.00    +0.000 A 
ATOM     25  C   UNL     1      -9.040  -0.602 124.009  0.00  0.00    +0.000 A 
ATOM     26  C   UNL     1      -9.201  -1.472 122.934  0.00  0.00    +0.000 A 
ATOM     27  C   UNL     1      -8.849  -2.811 123.067  0.00  0.00    +0.000 A 
ATOM     28  C   UNL     1      -8.355  -3.288 124.282  0.00  0.00    +0.000 A 
ATOM     29  H   UNL     1      -7.523  -3.889 126.698  0.00  0.00    +0.000 HD
ENDBRANCH  17  18
ENDBRANCH   1  17
TORSDOF 6
ENDMDL
MODEL 7
REMARK VINA RESULT:      -7.8      3.018      6.915
REMARK  Name = Rebamipide
REMARK  6 active torsions:
REMARK  status: ('A' for Active; 'I' for Inactive)
REMARK    1  A    between atoms: O_1  and  C_2
REMARK    2  A    between atoms: C_2  and  CA_4
REMARK    3  A    between atoms: CA_4  and  C_5
REMARK    4  A    between atoms: CA_4  and  N_17
REMARK    5  A    between atoms: C_5  and  C_6
REMARK    6  A    between atoms: C_18  and  C_20
REMARK                            x       y       z     vdW  Elec       q    Type
REMARK                         _______ _______ _______ _____ _____    ______ ____
ROOT
ATOM      1  CA  UNL     1      -9.152   1.591 123.127  0.00  0.00    +0.000 C 
ENDROOT
BRANCH   1   2
ATOM      2  N   UNL     1      -8.205   0.452 123.209  0.00  0.00    +0.000 N 
ATOM      3  C   UNL     1      -8.350  -0.572 124.121  0.00  0.00    +0.000 C 
ATOM      4  O   UNL     1      -9.253  -0.610 124.956  0.00  0.00    +0.000 OA
ATOM      5  H   UNL     1      -7.474   0.420 122.500  0.00  0.00    +0.000 HD
BRANCH   3   6
ATOM      6  C   UNL     1      -7.385  -1.700 124.058  0.00  0.00    +0.000 A 
ATOM      7  C   UNL     1      -7.689  -2.943 124.620  0.00  0.00    +0.000 A 
ATOM      8  C   UNL     1      -6.784  -4.005 124.495  0.00  0.00    +0.000 A 
ATOM      9  C   UNL     1      -5.579  -3.825 123.816  0.00  0.00    +0.000 A 
ATOM     10 CL   UNL     1      -4.463  -5.129 123.692  0.00  0.00    +0.000 Cl
ATOM     11  C   UNL     1      -5.276  -2.594 123.236  0.00  0.00    +0.000 A 
ATOM     12  C   UNL     1      -6.183  -1.534 123.349  0.00  0.00    +0.000 A 
ENDBRANCH   3   6
ENDBRANCH   1   2
BRANCH   1  13
ATOM     13  C   UNL     1     -10.591   1.023 123.205  0.00  0.00    +0.000 C 
ATOM     14  OXT UNL     1     -11.046   0.256 122.358  0.00  0.00    +0.000 OA
BRANCH  13  15
ATOM     15  O   UNL     1     -11.365   1.432 124.234  0.00  0.00    +0.000 OA
ATOM     16  H   UNL     1     -11.501   0.815 124.979  0.00  0.00    +0.000 HD
ENDBRANCH  13  15
ENDBRANCH   1  13
BRANCH   1  17
ATOM     17  C   UNL     1      -8.847   2.630 124.229  0.00  0.00    +0.000 C 
BRANCH  17  18
ATOM     18  C   UNL     1      -7.477   3.243 124.111  0.00  0.00    +0.000 A 
ATOM     19  C   UNL     1      -6.678   3.340 125.189  0.00  0.00    +0.000 A 
ATOM     20  C   UNL     1      -5.275   3.800 125.085  0.00  0.00    +0.000 A 
ATOM     21  O   UNL     1      -4.550   3.828 126.074  0.00  0.00    +0.000 OA
ATOM     22  N   UNL     1      -4.832   4.126 123.835  0.00  0.00    +0.000 N 
ATOM     23  C   UNL     1      -5.638   4.091 122.688  0.00  0.00    +0.000 A 
ATOM     24  C   UNL     1      -6.970   3.665 122.787  0.00  0.00    +0.000 A 
ATOM     25  C   UNL     1      -7.734   3.575 121.614  0.00  0.00    +0.000 A 
ATOM     26  C   UNL     1      -7.193   3.925 120.380  0.00  0.00    +0.000 A 
ATOM     27  C   UNL     1      -5.878   4.371 120.301  0.00  0.00    +0.000 A 
ATOM     28  C   UNL     1      -5.093   4.448 121.454  0.00  0.00    +0.000 A 
ATOM     29  H   UNL     1      -3.865   4.418 123.773  0.00  0.00    +0.000 HD
ENDBRANCH  17  18
ENDBRANCH   1  17
TORSDOF 6
ENDMDL
MODEL 8
REMARK VINA RESULT:      -7.7      4.546      8.238
REMARK  Name = Rebamipide
REMARK  6 active torsions:
REMARK  status: ('A' for Active; 'I' for Inactive)
REMARK    1  A    between atoms: O_1  and  C_2
REMARK    2  A    between atoms: C_2  and  CA_4
REMARK    3  A    between atoms: CA_4  and  C_5
REMARK    4  A    between atoms: CA_4  and  N_17
REMARK    5  A    between atoms: C_5  and  C_6
REMARK    6  A    between atoms: C_18  and  C_20
REMARK                            x       y       z     vdW  Elec       q    Type
REMARK                         _______ _______ _______ _____ _____    ______ ____
ROOT
ATOM      1  CA  UNL     1      -8.086  -0.895 124.571  0.00  0.00    +0.000 C 
ENDROOT
BRANCH   1   2
ATOM      2  N   UNL     1      -7.797  -1.578 125.856  0.00  0.00    +0.000 N 
ATOM      3  C   UNL     1      -6.515  -1.751 126.335  0.00  0.00    +0.000 C 
ATOM      4  O   UNL     1      -5.511  -1.382 125.726  0.00  0.00    +0.000 OA
ATOM      5  H   UNL     1      -8.604  -1.850 126.415  0.00  0.00    +0.000 HD
BRANCH   3   6
ATOM      6  C   UNL     1      -6.351  -2.379 127.670  0.00  0.00    +0.000 A 
ATOM      7  C   UNL     1      -7.452  -2.876 128.374  0.00  0.00    +0.000 A 
ATOM      8  C   UNL     1      -7.260  -3.517 129.606  0.00  0.00    +0.000 A 
ATOM      9  C   UNL     1      -5.976  -3.655 130.134  0.00  0.00    +0.000 A 
ATOM     10 CL   UNL     1      -5.755  -4.419 131.660  0.00  0.00    +0.000 Cl
ATOM     11  C   UNL     1      -4.871  -3.180 129.428  0.00  0.00    +0.000 A 
ATOM     12  C   UNL     1      -5.058  -2.550 128.193  0.00  0.00    +0.000 A 
ENDBRANCH   3   6
ENDBRANCH   1   2
BRANCH   1  13
ATOM     13  C   UNL     1      -8.949  -1.848 123.708  0.00  0.00    +0.000 C 
ATOM     14  OXT UNL     1      -9.840  -1.443 122.964  0.00  0.00    +0.000 OA
BRANCH  13  15
ATOM     15  O   UNL     1      -8.716  -3.174 123.826  0.00  0.00    +0.000 OA
ATOM     16  H   UNL     1      -7.813  -3.461 124.066  0.00  0.00    +0.000 HD
ENDBRANCH  13  15
ENDBRANCH   1  13
BRANCH   1  17
ATOM     17  C   UNL     1      -8.758   0.473 124.823  0.00  0.00    +0.000 C 
BRANCH  17  18
ATOM     18  C   UNL     1      -8.191   1.582 123.978  0.00  0.00    +0.000 A 
ATOM     19  C   UNL     1      -8.807   1.958 122.842  0.00  0.00    +0.000 A 
ATOM     20  C   UNL     1      -8.365   3.136 122.063  0.00  0.00    +0.000 A 
ATOM     21  O   UNL     1      -8.976   3.490 121.061  0.00  0.00    +0.000 OA
ATOM     22  N   UNL     1      -7.291   3.823 122.555  0.00  0.00    +0.000 N 
ATOM     23  C   UNL     1      -6.584   3.445 123.705  0.00  0.00    +0.000 A 
ATOM     24  C   UNL     1      -6.996   2.323 124.438  0.00  0.00    +0.000 A 
ATOM     25  C   UNL     1      -6.312   2.006 125.620  0.00  0.00    +0.000 A 
ATOM     26  C   UNL     1      -5.230   2.771 126.047  0.00  0.00    +0.000 A 
ATOM     27  C   UNL     1      -4.815   3.865 125.295  0.00  0.00    +0.000 A 
ATOM     28  C   UNL     1      -5.496   4.211 124.126  0.00  0.00    +0.000 A 
ATOM     29  H   UNL     1      -7.012   4.639 122.027  0.00  0.00    +0.000 HD
ENDBRANCH  17  18
ENDBRANCH   1  17
TORSDOF 6
ENDMDL
MODEL 9
REMARK VINA RESULT:      -7.5      2.916      4.049
REMARK  Name = Rebamipide
REMARK  6 active torsions:
REMARK  status: ('A' for Active; 'I' for Inactive)
REMARK    1  A    between atoms: O_1  and  C_2
REMARK    2  A    between atoms: C_2  and  CA_4
REMARK    3  A    between atoms: CA_4  and  C_5
REMARK    4  A    between atoms: CA_4  and  N_17
REMARK    5  A    between atoms: C_5  and  C_6
REMARK    6  A    between atoms: C_18  and  C_20
REMARK                            x       y       z     vdW  Elec       q    Type
REMARK                         _______ _______ _______ _____ _____    ______ ____
ROOT
ATOM      1  CA  UNL     1      -7.983   0.005 124.504  0.00  0.00    +0.000 C 
ENDROOT
BRANCH   1   2
ATOM      2  N   UNL     1      -7.543   0.893 123.400  0.00  0.00    +0.000 N 
ATOM      3  C   UNL     1      -8.173   2.084 123.107  0.00  0.00    +0.000 C 
ATOM      4  O   UNL     1      -9.163   2.492 123.714  0.00  0.00    +0.000 OA
ATOM      5  H   UNL     1      -6.695   0.616 122.908  0.00  0.00    +0.000 HD
BRANCH   3   6
ATOM      6  C   UNL     1      -7.596   2.928 122.029  0.00  0.00    +0.000 A 
ATOM      7  C   UNL     1      -6.220   3.159 121.951  0.00  0.00    +0.000 A 
ATOM      8  C   UNL     1      -5.698   3.910 120.890  0.00  0.00    +0.000 A 
ATOM      9  C   UNL     1      -6.548   4.433 119.914  0.00  0.00    +0.000 A 
ATOM     10 CL   UNL     1      -5.900   5.378 118.631  0.00  0.00    +0.000 Cl
ATOM     11  C   UNL     1      -7.920   4.191 119.974  0.00  0.00    +0.000 A 
ATOM     12  C   UNL     1      -8.443   3.431 121.026  0.00  0.00    +0.000 A 
ENDBRANCH   3   6
ENDBRANCH   1   2
BRANCH   1  13
ATOM     13  C   UNL     1      -8.857  -1.119 123.894  0.00  0.00    +0.000 C 
ATOM     14  OXT UNL     1      -8.872  -1.366 122.690  0.00  0.00    +0.000 OA
BRANCH  13  15
ATOM     15  O   UNL     1      -9.651  -1.815 124.738  0.00  0.00    +0.000 OA
ATOM     16  H   UNL     1      -9.632  -2.790 124.686  0.00  0.00    +0.000 HD
ENDBRANCH  13  15
ENDBRANCH   1  13
BRANCH   1  17
ATOM     17  C   UNL     1      -6.764  -0.529 125.289  0.00  0.00    +0.000 C 
BRANCH  17  18
ATOM     18  C   UNL     1      -6.825  -0.231 126.763  0.00  0.00    +0.000 A 
ATOM     19  C   UNL     1      -6.534   1.000 127.223  0.00  0.00    +0.000 A 
ATOM     20  C   UNL     1      -6.724   1.371 128.643  0.00  0.00    +0.000 A 
ATOM     21  O   UNL     1      -6.503   2.514 129.028  0.00  0.00    +0.000 OA
ATOM     22  N   UNL     1      -7.206   0.394 129.468  0.00  0.00    +0.000 N 
ATOM     23  C   UNL     1      -7.477  -0.916 129.050  0.00  0.00    +0.000 A 
ATOM     24  C   UNL     1      -7.288  -1.271 127.707  0.00  0.00    +0.000 A 
ATOM     25  C   UNL     1      -7.630  -2.569 127.303  0.00  0.00    +0.000 A 
ATOM     26  C   UNL     1      -8.122  -3.497 128.217  0.00  0.00    +0.000 A 
ATOM     27  C   UNL     1      -8.279  -3.139 129.551  0.00  0.00    +0.000 A 
ATOM     28  C   UNL     1      -7.964  -1.845 129.971  0.00  0.00    +0.000 A 
ATOM     29  H   UNL     1      -7.352   0.665 130.432  0.00  0.00    +0.000 HD
ENDBRANCH  17  18
ENDBRANCH   1  17
TORSDOF 6
ENDMDL
