MODEL 1
REMARK VINA RESULT:      -7.3      0.000      0.000
REMARK  Name = Reboxetine
REMARK  7 active torsions:
REMARK  status: ('A' for Active; 'I' for Inactive)
REMARK    1  A    between atoms: C_2  and  C_8
REMARK    2  A    between atoms: C_8  and  O_9
REMARK    3  A    between atoms: C_8  and  C_19
REMARK    4  A    between atoms: O_9  and  C_10
REMARK    5  A    between atoms: C_15  and  O_16
REMARK    6  A    between atoms: O_16  and  C_17
REMARK    7  A    between atoms: C_17  and  C_18
REMARK                            x       y       z     vdW  Elec       q    Type
REMARK                         _______ _______ _______ _____ _____    ______ ____
ROOT
ATOM      1  C   UNL     1      -7.418   1.224 123.652  0.00  0.00    +0.000 C 
ENDROOT
BRANCH   1   2
ATOM      2  C   UNL     1      -6.721   2.146 124.784  0.00  0.00    +0.000 C 
ATOM      3  C   UNL     1      -7.504   3.288 125.363  0.00  0.00    +0.000 C 
ATOM      4  N   UNL     1      -8.563   2.657 126.111  0.00  0.00    +0.000 NA
ATOM      5  C   UNL     1      -8.319   1.590 127.069  0.00  0.00    +0.000 C 
ATOM      6  C   UNL     1      -7.296   0.607 126.537  0.00  0.00    +0.000 C 
ATOM      7  O   UNL     1      -6.247   1.371 125.947  0.00  0.00    +0.000 OA
ATOM      8  H   UNL     1      -8.839   2.017 125.382  0.00  0.00    +0.000 HD
ENDBRANCH   1   2
BRANCH   1   9
ATOM      9  C   UNL     1      -7.440   2.247 122.399  0.00  0.00    +0.000 A 
ATOM     10  C   UNL     1      -6.236   2.676 121.744  0.00  0.00    +0.000 A 
ATOM     11  C   UNL     1      -6.142   3.582 120.706  0.00  0.00    +0.000 A 
ATOM     12  C   UNL     1      -7.321   4.151 120.240  0.00  0.00    +0.000 A 
ATOM     13  C   UNL     1      -8.523   3.771 120.839  0.00  0.00    +0.000 A 
ATOM     14  C   UNL     1      -8.610   2.835 121.895  0.00  0.00    +0.000 A 
ENDBRANCH   1   9
BRANCH   1  15
ATOM     15  O   UNL     1      -6.869  -0.164 123.339  0.00  0.00    +0.000 OA
BRANCH  15  16
ATOM     16  C   UNL     1      -7.421  -1.474 123.122  0.00  0.00    +0.000 A 
ATOM     17  C   UNL     1      -8.760  -1.682 122.696  0.00  0.00    +0.000 A 
ATOM     18  C   UNL     1      -9.562  -2.647 123.407  0.00  0.00    +0.000 A 
ATOM     19  C   UNL     1      -9.008  -3.606 124.237  0.00  0.00    +0.000 A 
ATOM     20  C   UNL     1      -7.617  -3.621 124.378  0.00  0.00    +0.000 A 
ATOM     21  C   UNL     1      -6.827  -2.541 123.865  0.00  0.00    +0.000 A 
BRANCH  21  22
ATOM     22  O   UNL     1      -5.525  -2.587 124.332  0.00  0.00    +0.000 OA
BRANCH  22  23
ATOM     23  C   UNL     1      -4.553  -3.109 123.431  0.00  0.00    +0.000 C 
ATOM     24  C   UNL     1      -4.233  -4.546 123.766  0.00  0.00    +0.000 C 
ENDBRANCH  22  23
ENDBRANCH  21  22
ENDBRANCH  15  16
ENDBRANCH   1  15
TORSDOF 6
ENDMDL
MODEL 2
REMARK VINA RESULT:      -7.0      2.772      6.659
REMARK  Name = Reboxetine
REMARK  7 active torsions:
REMARK  status: ('A' for Active; 'I' for Inactive)
REMARK    1  A    between atoms: C_2  and  C_8
REMARK    2  A    between atoms: C_8  and  O_9
REMARK    3  A    between atoms: C_8  and  C_19
REMARK    4  A    between atoms: O_9  and  C_10
REMARK    5  A    between atoms: C_15  and  O_16
REMARK    6  A    between atoms: O_16  and  C_17
REMARK    7  A    between atoms: C_17  and  C_18
REMARK                            x       y       z     vdW  Elec       q    Type
REMARK                         _______ _______ _______ _____ _____    ______ ____
ROOT
ATOM      1  C   UNL     1      -8.441  -1.462 125.249  0.00  0.00    +0.000 C 
ENDROOT
BRANCH   1   2
ATOM      2  C   UNL     1      -6.900  -0.974 125.174  0.00  0.00    +0.000 C 
ATOM      3  C   UNL     1      -5.814  -1.997 125.346  0.00  0.00    +0.000 C 
ATOM      4  N   UNL     1      -5.915  -2.831 124.173  0.00  0.00    +0.000 NA
ATOM      5  C   UNL     1      -5.977  -2.286 122.826  0.00  0.00    +0.000 C 
ATOM      6  C   UNL     1      -6.879  -1.070 122.773  0.00  0.00    +0.000 C 
ATOM      7  O   UNL     1      -6.577  -0.273 123.917  0.00  0.00    +0.000 OA
ATOM      8  H   UNL     1      -6.913  -2.965 124.227  0.00  0.00    +0.000 HD
ENDBRANCH   1   2
BRANCH   1   9
ATOM      9  C   UNL     1      -8.457  -2.197 126.690  0.00  0.00    +0.000 A 
ATOM     10  C   UNL     1      -7.897  -1.587 127.863  0.00  0.00    +0.000 A 
ATOM     11  C   UNL     1      -7.814  -2.148 129.122  0.00  0.00    +0.000 A 
ATOM     12  C   UNL     1      -8.310  -3.436 129.286  0.00  0.00    +0.000 A 
ATOM     13  C   UNL     1      -8.866  -4.079 128.180  0.00  0.00    +0.000 A 
ATOM     14  C   UNL     1      -8.956  -3.492 126.897  0.00  0.00    +0.000 A 
ENDBRANCH   1   9
BRANCH   1  15
ATOM     15  O   UNL     1      -9.577  -0.471 125.021  0.00  0.00    +0.000 OA
BRANCH  15  16
ATOM     16  C   UNL     1      -9.698   0.875 124.528  0.00  0.00    +0.000 A 
ATOM     17  C   UNL     1      -9.853   1.176 123.148  0.00  0.00    +0.000 A 
ATOM     18  C   UNL     1      -9.010   2.194 122.571  0.00  0.00    +0.000 A 
ATOM     19  C   UNL     1      -8.320   3.112 123.344  0.00  0.00    +0.000 A 
ATOM     20  C   UNL     1      -8.458   3.030 124.733  0.00  0.00    +0.000 A 
ATOM     21  C   UNL     1      -9.103   1.897 125.329  0.00  0.00    +0.000 A 
BRANCH  21  22
ATOM     22  O   UNL     1      -8.904   1.853 126.698  0.00  0.00    +0.000 OA
BRANCH  22  23
ATOM     23  C   UNL     1      -7.583   2.137 127.150  0.00  0.00    +0.000 C 
ATOM     24  C   UNL     1      -7.484   1.969 128.647  0.00  0.00    +0.000 C 
ENDBRANCH  22  23
ENDBRANCH  21  22
ENDBRANCH  15  16
ENDBRANCH   1  15
TORSDOF 6
ENDMDL
MODEL 3
REMARK VINA RESULT:      -7.0      1.827      2.354
REMARK  Name = Reboxetine
REMARK  7 active torsions:
REMARK  status: ('A' for Active; 'I' for Inactive)
REMARK    1  A    between atoms: C_2  and  C_8
REMARK    2  A    between atoms: C_8  and  O_9
REMARK    3  A    between atoms: C_8  and  C_19
REMARK    4  A    between atoms: O_9  and  C_10
REMARK    5  A    between atoms: C_15  and  O_16
REMARK    6  A    between atoms: O_16  and  C_17
REMARK    7  A    between atoms: C_17  and  C_18
REMARK                            x       y       z     vdW  Elec       q    Type
REMARK                         _______ _______ _______ _____ _____    ______ ____
ROOT
ATOM      1  C   UNL     1      -7.773   1.402 123.092  0.00  0.00    +0.000 C 
ENDROOT
BRANCH   1   2
ATOM      2  C   UNL     1      -8.959   2.202 123.850  0.00  0.00    +0.000 C 
ATOM      3  C   UNL     1     -10.315   1.563 123.936  0.00  0.00    +0.000 C 
ATOM      4  N   UNL     1     -10.126   0.427 124.805  0.00  0.00    +0.000 NA
ATOM      5  C   UNL     1      -9.461   0.529 126.095  0.00  0.00    +0.000 C 
ATOM      6  C   UNL     1      -8.242   1.425 126.008  0.00  0.00    +0.000 C 
ATOM      7  O   UNL     1      -8.613   2.566 125.238  0.00  0.00    +0.000 OA
ATOM      8  H   UNL     1      -9.299   0.080 124.342  0.00  0.00    +0.000 HD
ENDBRANCH   1   2
BRANCH   1   9
ATOM      9  C   UNL     1      -6.752   2.614 122.767  0.00  0.00    +0.000 A 
ATOM     10  C   UNL     1      -6.283   2.879 121.435  0.00  0.00    +0.000 A 
ATOM     11  C   UNL     1      -5.375   3.850 121.061  0.00  0.00    +0.000 A 
ATOM     12  C   UNL     1      -4.848   4.658 122.062  0.00  0.00    +0.000 A 
ATOM     13  C   UNL     1      -5.267   4.446 123.376  0.00  0.00    +0.000 A 
ATOM     14  C   UNL     1      -6.205   3.456 123.748  0.00  0.00    +0.000 A 
ENDBRANCH   1   9
BRANCH   1  15
ATOM     15  O   UNL     1      -7.132   0.178 123.736  0.00  0.00    +0.000 OA
BRANCH  15  16
ATOM     16  C   UNL     1      -7.264  -1.249 123.612  0.00  0.00    +0.000 A 
ATOM     17  C   UNL     1      -8.210  -1.860 122.747  0.00  0.00    +0.000 A 
ATOM     18  C   UNL     1      -9.038  -2.917 123.274  0.00  0.00    +0.000 A 
ATOM     19  C   UNL     1      -8.729  -3.588 124.445  0.00  0.00    +0.000 A 
ATOM     20  C   UNL     1      -7.568  -3.209 125.127  0.00  0.00    +0.000 A 
ATOM     21  C   UNL     1      -6.861  -2.021 124.745  0.00  0.00    +0.000 A 
BRANCH  21  22
ATOM     22  O   UNL     1      -5.916  -1.659 125.688  0.00  0.00    +0.000 OA
BRANCH  22  23
ATOM     23  C   UNL     1      -6.341  -1.694 127.048  0.00  0.00    +0.000 C 
ATOM     24  C   UNL     1      -5.267  -2.286 127.928  0.00  0.00    +0.000 C 
ENDBRANCH  22  23
ENDBRANCH  21  22
ENDBRANCH  15  16
ENDBRANCH   1  15
TORSDOF 6
ENDMDL
MODEL 4
REMARK VINA RESULT:      -6.9      2.379      4.945
REMARK  Name = Reboxetine
REMARK  7 active torsions:
REMARK  status: ('A' for Active; 'I' for Inactive)
REMARK    1  A    between atoms: C_2  and  C_8
REMARK    2  A    between atoms: C_8  and  O_9
REMARK    3  A    between atoms: C_8  and  C_19
REMARK    4  A    between atoms: O_9  and  C_10
REMARK    5  A    between atoms: C_15  and  O_16
REMARK    6  A    between atoms: O_16  and  C_17
REMARK    7  A    between atoms: C_17  and  C_18
REMARK                            x       y       z     vdW  Elec       q    Type
REMARK                         _______ _______ _______ _____ _____    ______ ____
ROOT
ATOM      1  C   UNL     1      -7.313   0.321 126.602  0.00  0.00    +0.000 C 
ENDROOT
BRANCH   1   2
ATOM      2  C   UNL     1      -8.607   1.186 127.046  0.00  0.00    +0.000 C 
ATOM      3  C   UNL     1      -8.638   1.775 128.425  0.00  0.00    +0.000 C 
ATOM      4  N   UNL     1      -7.605   2.781 128.413  0.00  0.00    +0.000 NA
ATOM      5  C   UNL     1      -7.501   3.786 127.365  0.00  0.00    +0.000 C 
ATOM      6  C   UNL     1      -7.761   3.178 126.002  0.00  0.00    +0.000 C 
ATOM      7  O   UNL     1      -8.887   2.313 126.135  0.00  0.00    +0.000 OA
ATOM      8  H   UNL     1      -6.895   2.195 127.999  0.00  0.00    +0.000 HD
ENDBRANCH   1   2
BRANCH   1   9
ATOM      9  C   UNL     1      -7.728  -1.145 127.145  0.00  0.00    +0.000 A 
ATOM     10  C   UNL     1      -8.563  -2.032 126.383  0.00  0.00    +0.000 A 
ATOM     11  C   UNL     1      -9.015  -3.276 126.777  0.00  0.00    +0.000 A 
ATOM     12  C   UNL     1      -8.640  -3.728 128.037  0.00  0.00    +0.000 A 
ATOM     13  C   UNL     1      -7.829  -2.908 128.822  0.00  0.00    +0.000 A 
ATOM     14  C   UNL     1      -7.362  -1.640 128.406  0.00  0.00    +0.000 A 
ENDBRANCH   1   9
BRANCH   1  15
ATOM     15  O   UNL     1      -6.817   0.356 125.160  0.00  0.00    +0.000 OA
BRANCH  15  16
ATOM     16  C   UNL     1      -7.319  -0.061 123.879  0.00  0.00    +0.000 A 
ATOM     17  C   UNL     1      -8.589   0.339 123.386  0.00  0.00    +0.000 A 
ATOM     18  C   UNL     1      -9.464  -0.673 122.847  0.00  0.00    +0.000 A 
ATOM     19  C   UNL     1      -9.009  -1.926 122.474  0.00  0.00    +0.000 A 
ATOM     20  C   UNL     1      -7.647  -2.200 122.636  0.00  0.00    +0.000 A 
ATOM     21  C   UNL     1      -6.812  -1.297 123.373  0.00  0.00    +0.000 A 
BRANCH  21  22
ATOM     22  O   UNL     1      -5.580  -1.857 123.665  0.00  0.00    +0.000 OA
BRANCH  22  23
ATOM     23  C   UNL     1      -5.603  -3.169 124.221  0.00  0.00    +0.000 C 
ATOM     24  C   UNL     1      -4.532  -4.031 123.597  0.00  0.00    +0.000 C 
ENDBRANCH  22  23
ENDBRANCH  21  22
ENDBRANCH  15  16
ENDBRANCH   1  15
TORSDOF 6
ENDMDL
MODEL 5
REMARK VINA RESULT:      -6.9      3.527      6.342
REMARK  Name = Reboxetine
REMARK  7 active torsions:
REMARK  status: ('A' for Active; 'I' for Inactive)
REMARK    1  A    between atoms: C_2  and  C_8
REMARK    2  A    between atoms: C_8  and  O_9
REMARK    3  A    between atoms: C_8  and  C_19
REMARK    4  A    between atoms: O_9  and  C_10
REMARK    5  A    between atoms: C_15  and  O_16
REMARK    6  A    between atoms: O_16  and  C_17
REMARK    7  A    between atoms: C_17  and  C_18
REMARK                            x       y       z     vdW  Elec       q    Type
REMARK                         _______ _______ _______ _____ _____    ______ ____
ROOT
ATOM      1  C   UNL     1      -5.473  -1.251 127.490  0.00  0.00    +0.000 C 
ENDROOT
BRANCH   1   2
ATOM      2  C   UNL     1      -6.153  -0.072 128.366  0.00  0.00    +0.000 C 
ATOM      3  C   UNL     1      -5.375   0.515 129.507  0.00  0.00    +0.000 C 
ATOM      4  N   UNL     1      -4.280   1.212 128.878  0.00  0.00    +0.000 NA
ATOM      5  C   UNL     1      -4.473   2.146 127.779  0.00  0.00    +0.000 C 
ATOM      6  C   UNL     1      -5.492   1.619 126.791  0.00  0.00    +0.000 C 
ATOM      7  O   UNL     1      -6.575   1.083 127.549  0.00  0.00    +0.000 OA
ATOM      8  H   UNL     1      -4.015   0.456 128.264  0.00  0.00    +0.000 HD
ENDBRANCH   1   2
BRANCH   1   9
ATOM      9  C   UNL     1      -5.382  -2.432 128.591  0.00  0.00    +0.000 A 
ATOM     10  C   UNL     1      -6.549  -2.967 129.234  0.00  0.00    +0.000 A 
ATOM     11  C   UNL     1      -6.575  -3.934 130.220  0.00  0.00    +0.000 A 
ATOM     12  C   UNL     1      -5.357  -4.447 130.650  0.00  0.00    +0.000 A 
ATOM     13  C   UNL     1      -4.188  -3.963 130.062  0.00  0.00    +0.000 A 
ATOM     14  C   UNL     1      -4.172  -2.980 129.046  0.00  0.00    +0.000 A 
ENDBRANCH   1   9
BRANCH   1  15
ATOM     15  O   UNL     1      -6.075  -1.665 126.152  0.00  0.00    +0.000 OA
BRANCH  15  16
ATOM     16  C   UNL     1      -7.386  -1.673 125.561  0.00  0.00    +0.000 A 
ATOM     17  C   UNL     1      -8.539  -2.125 126.256  0.00  0.00    +0.000 A 
ATOM     18  C   UNL     1      -9.418  -3.055 125.592  0.00  0.00    +0.000 A 
ATOM     19  C   UNL     1      -9.389  -3.257 124.223  0.00  0.00    +0.000 A 
ATOM     20  C   UNL     1      -8.462  -2.522 123.475  0.00  0.00    +0.000 A 
ATOM     21  C   UNL     1      -7.437  -1.769 124.136  0.00  0.00    +0.000 A 
BRANCH  21  22
ATOM     22  O   UNL     1      -6.462  -1.341 123.252  0.00  0.00    +0.000 OA
BRANCH  22  23
ATOM     23  C   UNL     1      -5.830  -2.356 122.476  0.00  0.00    +0.000 C 
ATOM     24  C   UNL     1      -4.823  -3.113 123.308  0.00  0.00    +0.000 C 
ENDBRANCH  22  23
ENDBRANCH  21  22
ENDBRANCH  15  16
ENDBRANCH   1  15
TORSDOF 6
ENDMDL
MODEL 6
REMARK VINA RESULT:      -6.7      2.478      3.753
REMARK  Name = Reboxetine
REMARK  7 active torsions:
REMARK  status: ('A' for Active; 'I' for Inactive)
REMARK    1  A    between atoms: C_2  and  C_8
REMARK    2  A    between atoms: C_8  and  O_9
REMARK    3  A    between atoms: C_8  and  C_19
REMARK    4  A    between atoms: O_9  and  C_10
REMARK    5  A    between atoms: C_15  and  O_16
REMARK    6  A    between atoms: O_16  and  C_17
REMARK    7  A    between atoms: C_17  and  C_18
REMARK                            x       y       z     vdW  Elec       q    Type
REMARK                         _______ _______ _______ _____ _____    ______ ____
ROOT
ATOM      1  C   UNL     1      -6.839   1.243 124.560  0.00  0.00    +0.000 C 
ENDROOT
BRANCH   1   2
ATOM      2  C   UNL     1      -8.148   2.181 124.727  0.00  0.00    +0.000 C 
ATOM      3  C   UNL     1      -9.376   1.848 123.932  0.00  0.00    +0.000 C 
ATOM      4  N   UNL     1      -9.839   0.599 124.486  0.00  0.00    +0.000 NA
ATOM      5  C   UNL     1     -10.011   0.391 125.915  0.00  0.00    +0.000 C 
ATOM      6  C   UNL     1      -8.866   1.004 126.695  0.00  0.00    +0.000 C 
ATOM      7  O   UNL     1      -8.607   2.285 126.126  0.00  0.00    +0.000 OA
ATOM      8  H   UNL     1      -8.940   0.140 124.469  0.00  0.00    +0.000 HD
ENDBRANCH   1   2
BRANCH   1   9
ATOM      9  C   UNL     1      -5.729   2.134 125.329  0.00  0.00    +0.000 A 
ATOM     10  C   UNL     1      -5.494   3.511 124.998  0.00  0.00    +0.000 A 
ATOM     11  C   UNL     1      -4.540   4.340 125.555  0.00  0.00    +0.000 A 
ATOM     12  C   UNL     1      -3.710   3.800 126.531  0.00  0.00    +0.000 A 
ATOM     13  C   UNL     1      -3.893   2.466 126.894  0.00  0.00    +0.000 A 
ATOM     14  C   UNL     1      -4.879   1.628 126.325  0.00  0.00    +0.000 A 
ENDBRANCH   1   9
BRANCH   1  15
ATOM     15  O   UNL     1      -6.882  -0.225 124.971  0.00  0.00    +0.000 OA
BRANCH  15  16
ATOM     16  C   UNL     1      -7.196  -1.473 124.330  0.00  0.00    +0.000 A 
ATOM     17  C   UNL     1      -7.545  -1.565 122.957  0.00  0.00    +0.000 A 
ATOM     18  C   UNL     1      -8.714  -2.329 122.597  0.00  0.00    +0.000 A 
ATOM     19  C   UNL     1      -9.299  -3.242 123.457  0.00  0.00    +0.000 A 
ATOM     20  C   UNL     1      -8.719  -3.412 124.719  0.00  0.00    +0.000 A 
ATOM     21  C   UNL     1      -7.705  -2.507 125.175  0.00  0.00    +0.000 A 
BRANCH  21  22
ATOM     22  O   UNL     1      -7.452  -2.657 126.528  0.00  0.00    +0.000 OA
BRANCH  22  23
ATOM     23  C   UNL     1      -8.576  -2.969 127.345  0.00  0.00    +0.000 C 
ATOM     24  C   UNL     1      -8.130  -3.510 128.682  0.00  0.00    +0.000 C 
ENDBRANCH  22  23
ENDBRANCH  21  22
ENDBRANCH  15  16
ENDBRANCH   1  15
TORSDOF 6
ENDMDL
MODEL 7
REMARK VINA RESULT:      -6.7      3.184      6.402
REMARK  Name = Reboxetine
REMARK  7 active torsions:
REMARK  status: ('A' for Active; 'I' for Inactive)
REMARK    1  A    between atoms: C_2  and  C_8
REMARK    2  A    between atoms: C_8  and  O_9
REMARK    3  A    between atoms: C_8  and  C_19
REMARK    4  A    between atoms: O_9  and  C_10
REMARK    5  A    between atoms: C_15  and  O_16
REMARK    6  A    between atoms: O_16  and  C_17
REMARK    7  A    between atoms: C_17  and  C_18
REMARK                            x       y       z     vdW  Elec       q    Type
REMARK                         _______ _______ _______ _____ _____    ______ ____
ROOT
ATOM      1  C   UNL     1      -5.732  -1.116 127.027  0.00  0.00    +0.000 C 
ENDROOT
BRANCH   1   2
ATOM      2  C   UNL     1      -6.315   0.154 127.843  0.00  0.00    +0.000 C 
ATOM      3  C   UNL     1      -5.476   0.753 128.935  0.00  0.00    +0.000 C 
ATOM      4  N   UNL     1      -4.351   1.338 128.247  0.00  0.00    +0.000 NA
ATOM      5  C   UNL     1      -4.505   2.218 127.099  0.00  0.00    +0.000 C 
ATOM      6  C   UNL     1      -5.578   1.704 126.161  0.00  0.00    +0.000 C 
ATOM      7  O   UNL     1      -6.677   1.285 126.967  0.00  0.00    +0.000 OA
ATOM      8  H   UNL     1      -4.149   0.532 127.675  0.00  0.00    +0.000 HD
ENDBRANCH   1   2
BRANCH   1   9
ATOM      9  C   UNL     1      -5.712  -2.240 128.190  0.00  0.00    +0.000 A 
ATOM     10  C   UNL     1      -6.916  -2.710 128.817  0.00  0.00    +0.000 A 
ATOM     11  C   UNL     1      -7.003  -3.623 129.849  0.00  0.00    +0.000 A 
ATOM     12  C   UNL     1      -5.816  -4.145 130.349  0.00  0.00    +0.000 A 
ATOM     13  C   UNL     1      -4.615  -3.724 129.779  0.00  0.00    +0.000 A 
ATOM     14  C   UNL     1      -4.535  -2.796 128.715  0.00  0.00    +0.000 A 
ENDBRANCH   1   9
BRANCH   1  15
ATOM     15  O   UNL     1      -6.378  -1.557 125.718  0.00  0.00    +0.000 OA
BRANCH  15  16
ATOM     16  C   UNL     1      -7.717  -1.793 125.249  0.00  0.00    +0.000 A 
ATOM     17  C   UNL     1      -8.404  -3.015 125.473  0.00  0.00    +0.000 A 
ATOM     18  C   UNL     1      -9.060  -3.646 124.355  0.00  0.00    +0.000 A 
ATOM     19  C   UNL     1      -9.345  -2.968 123.181  0.00  0.00    +0.000 A 
ATOM     20  C   UNL     1      -8.972  -1.623 123.099  0.00  0.00    +0.000 A 
ATOM     21  C   UNL     1      -8.125  -1.046 124.101  0.00  0.00    +0.000 A 
BRANCH  21  22
ATOM     22  O   UNL     1      -7.641   0.192 123.716  0.00  0.00    +0.000 OA
BRANCH  22  23
ATOM     23  C   UNL     1      -8.620   1.180 123.408  0.00  0.00    +0.000 C 
ATOM     24  C   UNL     1      -9.334   1.632 124.659  0.00  0.00    +0.000 C 
ENDBRANCH  22  23
ENDBRANCH  21  22
ENDBRANCH  15  16
ENDBRANCH   1  15
TORSDOF 6
ENDMDL
MODEL 8
REMARK VINA RESULT:      -6.7      6.836     10.663
REMARK  Name = Reboxetine
REMARK  7 active torsions:
REMARK  status: ('A' for Active; 'I' for Inactive)
REMARK    1  A    between atoms: C_2  and  C_8
REMARK    2  A    between atoms: C_8  and  O_9
REMARK    3  A    between atoms: C_8  and  C_19
REMARK    4  A    between atoms: O_9  and  C_10
REMARK    5  A    between atoms: C_15  and  O_16
REMARK    6  A    between atoms: O_16  and  C_17
REMARK    7  A    between atoms: C_17  and  C_18
REMARK                            x       y       z     vdW  Elec       q    Type
REMARK                         _______ _______ _______ _____ _____    ______ ____
ROOT
ATOM      1  C   UNL     1      -4.555   5.332 129.704  0.00  0.00    +0.000 C 
ENDROOT
BRANCH   1   2
ATOM      2  C   UNL     1      -3.798   5.473 128.280  0.00  0.00    +0.000 C 
ATOM      3  C   UNL     1      -2.762   4.451 127.913  0.00  0.00    +0.000 C 
ATOM      4  N   UNL     1      -3.507   3.230 127.729  0.00  0.00    +0.000 NA
ATOM      5  C   UNL     1      -4.699   3.157 126.898  0.00  0.00    +0.000 C 
ATOM      6  C   UNL     1      -5.582   4.370 127.107  0.00  0.00    +0.000 C 
ATOM      7  O   UNL     1      -4.727   5.512 127.135  0.00  0.00    +0.000 OA
ATOM      8  H   UNL     1      -4.038   3.303 128.584  0.00  0.00    +0.000 HD
ENDBRANCH   1   2
BRANCH   1   9
ATOM      9  C   UNL     1      -3.299   5.388 130.721  0.00  0.00    +0.000 A 
ATOM     10  C   UNL     1      -2.358   6.474 130.712  0.00  0.00    +0.000 A 
ATOM     11  C   UNL     1      -1.230   6.591 131.500  0.00  0.00    +0.000 A 
ATOM     12  C   UNL     1      -0.957   5.559 132.391  0.00  0.00    +0.000 A 
ATOM     13  C   UNL     1      -1.836   4.478 132.443  0.00  0.00    +0.000 A 
ATOM     14  C   UNL     1      -2.995   4.371 131.640  0.00  0.00    +0.000 A 
ENDBRANCH   1   9
BRANCH   1  15
ATOM     15  O   UNL     1      -5.712   6.259 130.059  0.00  0.00    +0.000 OA
BRANCH  15  16
ATOM     16  C   UNL     1      -6.484   6.552 131.237  0.00  0.00    +0.000 A 
ATOM     17  C   UNL     1      -6.062   6.183 132.542  0.00  0.00    +0.000 A 
ATOM     18  C   UNL     1      -7.009   5.520 133.405  0.00  0.00    +0.000 A 
ATOM     19  C   UNL     1      -8.372   5.536 133.163  0.00  0.00    +0.000 A 
ATOM     20  C   UNL     1      -8.826   6.225 132.033  0.00  0.00    +0.000 A 
ATOM     21  C   UNL     1      -7.893   6.693 131.050  0.00  0.00    +0.000 A 
BRANCH  21  22
ATOM     22  O   UNL     1      -8.529   7.096 129.889  0.00  0.00    +0.000 OA
BRANCH  22  23
ATOM     23  C   UNL     1      -9.940   7.272 129.975  0.00  0.00    +0.000 C 
ATOM     24  C   UNL     1     -10.447   8.092 128.812  0.00  0.00    +0.000 C 
ENDBRANCH  22  23
ENDBRANCH  21  22
ENDBRANCH  15  16
ENDBRANCH   1  15
TORSDOF 6
ENDMDL
MODEL 9
REMARK VINA RESULT:      -6.6      2.544      6.665
REMARK  Name = Reboxetine
REMARK  7 active torsions:
REMARK  status: ('A' for Active; 'I' for Inactive)
REMARK    1  A    between atoms: C_2  and  C_8
REMARK    2  A    between atoms: C_8  and  O_9
REMARK    3  A    between atoms: C_8  and  C_19
REMARK    4  A    between atoms: O_9  and  C_10
REMARK    5  A    between atoms: C_15  and  O_16
REMARK    6  A    between atoms: O_16  and  C_17
REMARK    7  A    between atoms: C_17  and  C_18
REMARK                            x       y       z     vdW  Elec       q    Type
REMARK                         _______ _______ _______ _____ _____    ______ ____
ROOT
ATOM      1  C   UNL     1      -8.621  -1.503 125.353  0.00  0.00    +0.000 C 
ENDROOT
BRANCH   1   2
ATOM      2  C   UNL     1      -8.389  -2.806 124.420  0.00  0.00    +0.000 C 
ATOM      3  C   UNL     1      -8.781  -2.732 122.974  0.00  0.00    +0.000 C 
ATOM      4  N   UNL     1      -7.856  -1.790 122.395  0.00  0.00    +0.000 NA
ATOM      5  C   UNL     1      -6.417  -1.881 122.591  0.00  0.00    +0.000 C 
ATOM      6  C   UNL     1      -6.087  -2.239 124.025  0.00  0.00    +0.000 C 
ATOM      7  O   UNL     1      -6.988  -3.271 124.420  0.00  0.00    +0.000 OA
ATOM      8  H   UNL     1      -7.966  -1.085 123.108  0.00  0.00    +0.000 HD
ENDBRANCH   1   2
BRANCH   1   9
ATOM      9  C   UNL     1      -8.371  -2.134 126.821  0.00  0.00    +0.000 A 
ATOM     10  C   UNL     1      -8.900  -3.415 127.200  0.00  0.00    +0.000 A 
ATOM     11  C   UNL     1      -8.788  -4.016 128.439  0.00  0.00    +0.000 A 
ATOM     12  C   UNL     1      -8.106  -3.323 129.432  0.00  0.00    +0.000 A 
ATOM     13  C   UNL     1      -7.571  -2.073 129.120  0.00  0.00    +0.000 A 
ATOM     14  C   UNL     1      -7.681  -1.470 127.847  0.00  0.00    +0.000 A 
ENDBRANCH   1   9
BRANCH   1  15
ATOM     15  O   UNL     1      -7.866  -0.208 125.073  0.00  0.00    +0.000 OA
BRANCH  15  16
ATOM     16  C   UNL     1      -8.207   1.117 124.631  0.00  0.00    +0.000 A 
ATOM     17  C   UNL     1      -9.357   1.392 123.845  0.00  0.00    +0.000 A 
ATOM     18  C   UNL     1      -9.202   2.210 122.667  0.00  0.00    +0.000 A 
ATOM     19  C   UNL     1      -8.090   3.008 122.457  0.00  0.00    +0.000 A 
ATOM     20  C   UNL     1      -7.092   3.004 123.437  0.00  0.00    +0.000 A 
ATOM     21  C   UNL     1      -7.121   2.036 124.494  0.00  0.00    +0.000 A 
BRANCH  21  22
ATOM     22  O   UNL     1      -5.929   2.005 125.196  0.00  0.00    +0.000 OA
BRANCH  22  23
ATOM     23  C   UNL     1      -5.875   2.797 126.379  0.00  0.00    +0.000 C 
ATOM     24  C   UNL     1      -6.175   1.957 127.597  0.00  0.00    +0.000 C 
ENDBRANCH  22  23
ENDBRANCH  21  22
ENDBRANCH  15  16
ENDBRANCH   1  15
TORSDOF 6
ENDMDL
