MODEL 1
REMARK VINA RESULT:      -7.7      0.000      0.000
REMARK  Name = Regadenoson
REMARK  7 active torsions:
REMARK  status: ('A' for Active; 'I' for Inactive)
REMARK    1  A    between atoms: C_1  and  N_2
REMARK    2  A    between atoms: C_3  and  C_5
REMARK    3  A    between atoms: N_16  and  C1*_17
REMARK    4  A    between atoms: C4*_19  and  C5*_20
REMARK    5  A    between atoms: C5*_20  and  O5*_21
REMARK    6  A    between atoms: C3*_22  and  O3*_23
REMARK    7  A    between atoms: C2*_24  and  O2*_25
REMARK                            x       y       z     vdW  Elec       q    Type
REMARK                         _______ _______ _______ _____ _____    ______ ____
ROOT
ATOM      1  C   UNL     1     -12.129   8.396 128.650  0.00  0.00    +0.000 A 
ATOM      2  C   UNL     1     -11.041   7.566 128.861  0.00  0.00    +0.000 A 
ATOM      3  N   UNL     1     -10.803   6.814 127.691  0.00  0.00    +0.000 N 
ATOM      4  N   UNL     1     -11.779   7.084 126.771  0.00  0.00    +0.000 NA
ATOM      5  C   UNL     1     -12.573   7.987 127.369  0.00  0.00    +0.000 A 
ATOM      6  C   UNL     1      -9.674   5.871 127.491  0.00  0.00    +0.000 A 
ATOM      7  N   UNL     1      -9.200   5.346 128.646  0.00  0.00    +0.000 NA
ATOM      8  C   UNL     1      -8.178   4.502 128.448  0.00  0.00    +0.000 A 
ATOM      9  C   UNL     1      -7.480   4.258 127.288  0.00  0.00    +0.000 A 
ATOM     10  N   UNL     1      -6.466   3.338 127.506  0.00  0.00    +0.000 NA
ATOM     11  C   UNL     1      -6.654   2.927 128.745  0.00  0.00    +0.000 A 
ATOM     12  N   UNL     1      -7.636   3.650 129.365  0.00  0.00    +0.000 N 
ATOM     13  C   UNL     1      -7.910   4.961 126.152  0.00  0.00    +0.000 A 
ATOM     14  N   UNL     1      -7.077   5.032 125.016  0.00  0.00    +0.000 N 
ATOM     15  N   UNL     1      -9.103   5.662 126.252  0.00  0.00    +0.000 NA
ATOM     16  H   UNL     1      -6.140   4.692 125.244  0.00  0.00    +0.000 HD
ATOM     17  H   UNL     1      -7.439   4.515 124.223  0.00  0.00    +0.000 HD
ENDROOT
BRANCH   1  20
ATOM     18  C   UNL     1     -13.879  11.613 129.651  0.00  0.00    +0.000 C 
ATOM     19  N   UNL     1     -13.186  10.577 128.901  0.00  0.00    +0.000 N 
ATOM     20  C   UNL     1     -12.757   9.407 129.518  0.00  0.00    +0.000 C 
ATOM     21  O   UNL     1     -12.939   9.208 130.709  0.00  0.00    +0.000 OA
ATOM     22  H   UNL     1     -13.157  10.646 127.895  0.00  0.00    +0.000 HD
ENDBRANCH   1  20
BRANCH  12  23
ATOM     23  C1* UNL     1      -8.206   3.445 130.673  0.00  0.00    +0.000 C 
ATOM     24  O4* UNL     1      -7.235   2.830 131.527  0.00  0.00    +0.000 OA
ATOM     25  C4* UNL     1      -7.923   1.893 132.376  0.00  0.00    +0.000 C 
ATOM     26  C3* UNL     1      -9.425   1.997 132.070  0.00  0.00    +0.000 C 
ATOM     27  C2* UNL     1      -9.456   2.574 130.666  0.00  0.00    +0.000 C 
BRANCH  26  28
ATOM     28  O3* UNL     1     -10.080   2.892 132.983  0.00  0.00    +0.000 OA
ATOM     29  H3* UNL     1     -10.347   2.419 133.786  0.00  0.00    +0.000 HD
ENDBRANCH  26  28
BRANCH  27  30
ATOM     30  O2* UNL     1     -10.638   3.315 130.376  0.00  0.00    +0.000 OA
ATOM     31  H2* UNL     1     -10.451   3.928 129.641  0.00  0.00    +0.000 HD
ENDBRANCH  27  30
BRANCH  25  32
ATOM     32  C5* UNL     1      -7.351   0.503 132.109  0.00  0.00    +0.000 C 
BRANCH  32  33
ATOM     33  O5* UNL     1      -8.229  -0.507 132.580  0.00  0.00    +0.000 OA
ATOM     34  H5* UNL     1      -8.608  -0.963 131.806  0.00  0.00    +0.000 HD
ENDBRANCH  32  33
ENDBRANCH  25  32
ENDBRANCH  12  23
TORSDOF 6
ENDMDL
MODEL 2
REMARK VINA RESULT:      -7.6      3.781      5.846
REMARK  Name = Regadenoson
REMARK  7 active torsions:
REMARK  status: ('A' for Active; 'I' for Inactive)
REMARK    1  A    between atoms: C_1  and  N_2
REMARK    2  A    between atoms: C_3  and  C_5
REMARK    3  A    between atoms: N_16  and  C1*_17
REMARK    4  A    between atoms: C4*_19  and  C5*_20
REMARK    5  A    between atoms: C5*_20  and  O5*_21
REMARK    6  A    between atoms: C3*_22  and  O3*_23
REMARK    7  A    between atoms: C2*_24  and  O2*_25
REMARK                            x       y       z     vdW  Elec       q    Type
REMARK                         _______ _______ _______ _____ _____    ______ ____
ROOT
ATOM      1  C   UNL     1     -10.764   5.950 130.964  0.00  0.00    +0.000 A 
ATOM      2  C   UNL     1     -10.446   4.858 130.174  0.00  0.00    +0.000 A 
ATOM      3  N   UNL     1      -9.357   4.174 130.754  0.00  0.00    +0.000 N 
ATOM      4  N   UNL     1      -8.917   4.864 131.849  0.00  0.00    +0.000 NA
ATOM      5  C   UNL     1      -9.731   5.929 131.933  0.00  0.00    +0.000 A 
ATOM      6  C   UNL     1      -8.775   2.904 130.250  0.00  0.00    +0.000 A 
ATOM      7  N   UNL     1      -8.961   2.716 128.922  0.00  0.00    +0.000 NA
ATOM      8  C   UNL     1      -8.435   1.564 128.485  0.00  0.00    +0.000 A 
ATOM      9  C   UNL     1      -7.913   0.526 129.221  0.00  0.00    +0.000 A 
ATOM     10  N   UNL     1      -7.501  -0.508 128.395  0.00  0.00    +0.000 NA
ATOM     11  C   UNL     1      -7.638  -0.030 127.174  0.00  0.00    +0.000 A 
ATOM     12  N   UNL     1      -8.256   1.192 127.185  0.00  0.00    +0.000 N 
ATOM     13  C   UNL     1      -7.899   0.705 130.613  0.00  0.00    +0.000 A 
ATOM     14  N   UNL     1      -7.694  -0.403 131.460  0.00  0.00    +0.000 N 
ATOM     15  N   UNL     1      -8.213   1.968 131.095  0.00  0.00    +0.000 NA
ATOM     16  H   UNL     1      -7.762  -1.273 130.925  0.00  0.00    +0.000 HD
ATOM     17  H   UNL     1      -6.805  -0.376 131.946  0.00  0.00    +0.000 HD
ENDROOT
BRANCH   1  20
ATOM     18  C   UNL     1     -12.699   8.918 129.600  0.00  0.00    +0.000 C 
ATOM     19  N   UNL     1     -11.671   7.920 129.854  0.00  0.00    +0.000 N 
ATOM     20  C   UNL     1     -11.835   6.954 130.841  0.00  0.00    +0.000 C 
ATOM     21  O   UNL     1     -12.840   6.910 131.532  0.00  0.00    +0.000 OA
ATOM     22  H   UNL     1     -10.906   7.838 129.202  0.00  0.00    +0.000 HD
ENDBRANCH   1  20
BRANCH  12  23
ATOM     23  C1* UNL     1      -8.494   2.082 126.078  0.00  0.00    +0.000 C 
ATOM     24  O4* UNL     1      -9.683   1.680 125.386  0.00  0.00    +0.000 OA
ATOM     25  C4* UNL     1      -9.467   1.889 123.978  0.00  0.00    +0.000 C 
ATOM     26  C3* UNL     1      -8.082   2.531 123.805  0.00  0.00    +0.000 C 
ATOM     27  C2* UNL     1      -7.349   2.129 125.073  0.00  0.00    +0.000 C 
BRANCH  26  28
ATOM     28  O3* UNL     1      -8.180   3.962 123.728  0.00  0.00    +0.000 OA
ATOM     29  H3* UNL     1      -8.184   4.348 124.619  0.00  0.00    +0.000 HD
ENDBRANCH  26  28
BRANCH  27  30
ATOM     30  O2* UNL     1      -6.322   3.039 125.455  0.00  0.00    +0.000 OA
ATOM     31  H2* UNL     1      -6.339   3.141 126.424  0.00  0.00    +0.000 HD
ENDBRANCH  27  30
BRANCH  25  32
ATOM     32  C5* UNL     1      -9.597   0.541 123.274  0.00  0.00    +0.000 C 
BRANCH  32  33
ATOM     33  O5* UNL     1     -10.806   0.466 122.536  0.00  0.00    +0.000 OA
ATOM     34  H5* UNL     1     -10.612   0.710 121.612  0.00  0.00    +0.000 HD
ENDBRANCH  32  33
ENDBRANCH  25  32
ENDBRANCH  12  23
TORSDOF 6
ENDMDL
MODEL 3
REMARK VINA RESULT:      -7.5      3.313      4.898
REMARK  Name = Regadenoson
REMARK  7 active torsions:
REMARK  status: ('A' for Active; 'I' for Inactive)
REMARK    1  A    between atoms: C_1  and  N_2
REMARK    2  A    between atoms: C_3  and  C_5
REMARK    3  A    between atoms: N_16  and  C1*_17
REMARK    4  A    between atoms: C4*_19  and  C5*_20
REMARK    5  A    between atoms: C5*_20  and  O5*_21
REMARK    6  A    between atoms: C3*_22  and  O3*_23
REMARK    7  A    between atoms: C2*_24  and  O2*_25
REMARK                            x       y       z     vdW  Elec       q    Type
REMARK                         _______ _______ _______ _____ _____    ______ ____
ROOT
ATOM      1  C   UNL     1     -12.155   7.798 130.182  0.00  0.00    +0.000 A 
ATOM      2  C   UNL     1     -11.055   6.991 129.939  0.00  0.00    +0.000 A 
ATOM      3  N   UNL     1     -10.947   6.039 130.973  0.00  0.00    +0.000 N 
ATOM      4  N   UNL     1     -11.904   6.284 131.919  0.00  0.00    +0.000 NA
ATOM      5  C   UNL     1     -12.579   7.349 131.456  0.00  0.00    +0.000 A 
ATOM      6  C   UNL     1      -9.946   4.944 131.031  0.00  0.00    +0.000 A 
ATOM      7  N   UNL     1      -8.809   5.217 130.348  0.00  0.00    +0.000 NA
ATOM      8  C   UNL     1      -7.919   4.217 130.406  0.00  0.00    +0.000 A 
ATOM      9  C   UNL     1      -8.089   2.945 130.901  0.00  0.00    +0.000 A 
ATOM     10  N   UNL     1      -6.935   2.195 130.744  0.00  0.00    +0.000 NA
ATOM     11  C   UNL     1      -6.040   3.054 130.297  0.00  0.00    +0.000 A 
ATOM     12  N   UNL     1      -6.611   4.267 130.022  0.00  0.00    +0.000 N 
ATOM     13  C   UNL     1      -9.351   2.662 131.448  0.00  0.00    +0.000 A 
ATOM     14  N   UNL     1      -9.729   1.323 131.678  0.00  0.00    +0.000 N 
ATOM     15  N   UNL     1     -10.221   3.727 131.624  0.00  0.00    +0.000 NA
ATOM     16  H   UNL     1      -9.067   0.687 131.228  0.00  0.00    +0.000 HD
ATOM     17  H   UNL     1      -9.800   1.093 132.663  0.00  0.00    +0.000 HD
ENDROOT
BRANCH   1  20
ATOM     18  C   UNL     1     -13.709  11.180 129.437  0.00  0.00    +0.000 C 
ATOM     19  N   UNL     1     -13.180  10.006 130.115  0.00  0.00    +0.000 N 
ATOM     20  C   UNL     1     -12.737   8.901 129.398  0.00  0.00    +0.000 C 
ATOM     21  O   UNL     1     -12.781   8.870 128.179  0.00  0.00    +0.000 OA
ATOM     22  H   UNL     1     -12.992  10.064 131.104  0.00  0.00    +0.000 HD
ENDBRANCH   1  20
BRANCH  12  23
ATOM     23  C1* UNL     1      -5.962   5.489 129.618  0.00  0.00    +0.000 C 
ATOM     24  O4* UNL     1      -5.088   5.225 128.514  0.00  0.00    +0.000 OA
ATOM     25  C4* UNL     1      -3.913   6.042 128.676  0.00  0.00    +0.000 C 
ATOM     26  C3* UNL     1      -4.116   6.916 129.923  0.00  0.00    +0.000 C 
ATOM     27  C2* UNL     1      -5.147   6.144 130.727  0.00  0.00    +0.000 C 
BRANCH  26  28
ATOM     28  O3* UNL     1      -4.636   8.208 129.571  0.00  0.00    +0.000 OA
ATOM     29  H3* UNL     1      -5.371   8.446 130.159  0.00  0.00    +0.000 HD
ENDBRANCH  26  28
BRANCH  27  30
ATOM     30  O2* UNL     1      -5.942   6.964 131.579  0.00  0.00    +0.000 OA
ATOM     31  H2* UNL     1      -5.572   6.929 132.481  0.00  0.00    +0.000 HD
ENDBRANCH  27  30
BRANCH  25  32
ATOM     32  C5* UNL     1      -2.704   5.115 128.783  0.00  0.00    +0.000 C 
BRANCH  32  33
ATOM     33  O5* UNL     1      -2.178   4.816 127.499  0.00  0.00    +0.000 OA
ATOM     34  H5* UNL     1      -1.224   5.018 127.509  0.00  0.00    +0.000 HD
ENDBRANCH  32  33
ENDBRANCH  25  32
ENDBRANCH  12  23
TORSDOF 6
ENDMDL
MODEL 4
REMARK VINA RESULT:      -7.3      5.929      7.827
REMARK  Name = Regadenoson
REMARK  7 active torsions:
REMARK  status: ('A' for Active; 'I' for Inactive)
REMARK    1  A    between atoms: C_1  and  N_2
REMARK    2  A    between atoms: C_3  and  C_5
REMARK    3  A    between atoms: N_16  and  C1*_17
REMARK    4  A    between atoms: C4*_19  and  C5*_20
REMARK    5  A    between atoms: C5*_20  and  O5*_21
REMARK    6  A    between atoms: C3*_22  and  O3*_23
REMARK    7  A    between atoms: C2*_24  and  O2*_25
REMARK                            x       y       z     vdW  Elec       q    Type
REMARK                         _______ _______ _______ _____ _____    ______ ____
ROOT
ATOM      1  C   UNL     1      -7.063   2.913 123.018  0.00  0.00    +0.000 A 
ATOM      2  C   UNL     1      -7.009   1.819 123.865  0.00  0.00    +0.000 A 
ATOM      3  N   UNL     1      -8.210   1.088 123.748  0.00  0.00    +0.000 N 
ATOM      4  N   UNL     1      -9.064   1.749 122.909  0.00  0.00    +0.000 NA
ATOM      5  C   UNL     1      -8.387   2.842 122.522  0.00  0.00    +0.000 A 
ATOM      6  C   UNL     1      -8.503  -0.196 124.433  0.00  0.00    +0.000 A 
ATOM      7  N   UNL     1      -7.813  -0.362 125.585  0.00  0.00    +0.000 NA
ATOM      8  C   UNL     1      -8.086  -1.528 126.188  0.00  0.00    +0.000 A 
ATOM      9  C   UNL     1      -8.810  -2.593 125.706  0.00  0.00    +0.000 A 
ATOM     10  N   UNL     1      -8.832  -3.632 126.623  0.00  0.00    +0.000 NA
ATOM     11  C   UNL     1      -8.254  -3.135 127.699  0.00  0.00    +0.000 A 
ATOM     12  N   UNL     1      -7.735  -1.892 127.455  0.00  0.00    +0.000 N 
ATOM     13  C   UNL     1      -9.366  -2.431 124.427  0.00  0.00    +0.000 A 
ATOM     14  N   UNL     1      -9.839  -3.556 123.721  0.00  0.00    +0.000 N 
ATOM     15  N   UNL     1      -9.311  -1.163 123.866  0.00  0.00    +0.000 NA
ATOM     16  H   UNL     1      -9.536  -4.415 124.185  0.00  0.00    +0.000 HD
ATOM     17  H   UNL     1     -10.847  -3.566 123.615  0.00  0.00    +0.000 HD
ENDROOT
BRANCH   1  20
ATOM     18  C   UNL     1      -4.691   5.074 120.990  0.00  0.00    +0.000 C 
ATOM     19  N   UNL     1      -5.622   4.038 121.407  0.00  0.00    +0.000 N 
ATOM     20  C   UNL     1      -6.066   3.957 122.722  0.00  0.00    +0.000 C 
ATOM     21  O   UNL     1      -5.688   4.744 123.574  0.00  0.00    +0.000 OA
ATOM     22  H   UNL     1      -6.065   3.473 120.698  0.00  0.00    +0.000 HD
ENDBRANCH   1  20
BRANCH  12  23
ATOM     23  C1* UNL     1      -7.123  -0.980 128.388  0.00  0.00    +0.000 C 
ATOM     24  O4* UNL     1      -8.024   0.099 128.664  0.00  0.00    +0.000 OA
ATOM     25  C4* UNL     1      -7.245   1.303 128.793  0.00  0.00    +0.000 C 
ATOM     26  C3* UNL     1      -5.763   0.921 128.658  0.00  0.00    +0.000 C 
ATOM     27  C2* UNL     1      -5.808  -0.390 127.893  0.00  0.00    +0.000 C 
BRANCH  26  28
ATOM     28  O3* UNL     1      -5.161   0.716 129.947  0.00  0.00    +0.000 OA
ATOM     29  H3* UNL     1      -5.099   1.557 130.427  0.00  0.00    +0.000 HD
ENDBRANCH  26  28
BRANCH  27  30
ATOM     30  O2* UNL     1      -4.695  -1.241 128.148  0.00  0.00    +0.000 OA
ATOM     31  H2* UNL     1      -4.196  -0.885 128.906  0.00  0.00    +0.000 HD
ENDBRANCH  27  30
BRANCH  25  32
ATOM     32  C5* UNL     1      -7.712   2.285 127.721  0.00  0.00    +0.000 C 
BRANCH  32  33
ATOM     33  O5* UNL     1      -8.967   1.895 127.186  0.00  0.00    +0.000 OA
ATOM     34  H5* UNL     1      -9.599   2.622 127.338  0.00  0.00    +0.000 HD
ENDBRANCH  32  33
ENDBRANCH  25  32
ENDBRANCH  12  23
TORSDOF 6
ENDMDL
MODEL 5
REMARK VINA RESULT:      -7.1      4.973      7.928
REMARK  Name = Regadenoson
REMARK  7 active torsions:
REMARK  status: ('A' for Active; 'I' for Inactive)
REMARK    1  A    between atoms: C_1  and  N_2
REMARK    2  A    between atoms: C_3  and  C_5
REMARK    3  A    between atoms: N_16  and  C1*_17
REMARK    4  A    between atoms: C4*_19  and  C5*_20
REMARK    5  A    between atoms: C5*_20  and  O5*_21
REMARK    6  A    between atoms: C3*_22  and  O3*_23
REMARK    7  A    between atoms: C2*_24  and  O2*_25
REMARK                            x       y       z     vdW  Elec       q    Type
REMARK                         _______ _______ _______ _____ _____    ______ ____
ROOT
ATOM      1  C   UNL     1      -8.381   1.124 130.712  0.00  0.00    +0.000 A 
ATOM      2  C   UNL     1      -8.115   1.045 129.355  0.00  0.00    +0.000 A 
ATOM      3  N   UNL     1      -8.564   2.227 128.730  0.00  0.00    +0.000 N 
ATOM      4  N   UNL     1      -9.194   3.017 129.651  0.00  0.00    +0.000 NA
ATOM      5  C   UNL     1      -9.112   2.333 130.803  0.00  0.00    +0.000 A 
ATOM      6  C   UNL     1      -8.386   2.559 127.294  0.00  0.00    +0.000 A 
ATOM      7  N   UNL     1      -8.270   1.470 126.499  0.00  0.00    +0.000 NA
ATOM      8  C   UNL     1      -8.105   1.787 125.207  0.00  0.00    +0.000 A 
ATOM      9  C   UNL     1      -7.873   3.024 124.652  0.00  0.00    +0.000 A 
ATOM     10  N   UNL     1      -7.721   2.928 123.278  0.00  0.00    +0.000 NA
ATOM     11  C   UNL     1      -8.008   1.671 123.001  0.00  0.00    +0.000 A 
ATOM     12  N   UNL     1      -8.183   0.937 124.143  0.00  0.00    +0.000 N 
ATOM     13  C   UNL     1      -7.835   4.104 125.548  0.00  0.00    +0.000 A 
ATOM     14  N   UNL     1      -7.291   5.337 125.135  0.00  0.00    +0.000 N 
ATOM     15  N   UNL     1      -8.232   3.860 126.855  0.00  0.00    +0.000 NA
ATOM     16  H   UNL     1      -6.806   5.227 124.241  0.00  0.00    +0.000 HD
ATOM     17  H   UNL     1      -7.985   6.072 125.054  0.00  0.00    +0.000 HD
ENDROOT
BRANCH   1  20
ATOM     18  C   UNL     1      -7.536  -2.136 132.464  0.00  0.00    +0.000 C 
ATOM     19  N   UNL     1      -7.907  -1.143 131.468  0.00  0.00    +0.000 N 
ATOM     20  C   UNL     1      -8.076   0.193 131.813  0.00  0.00    +0.000 C 
ATOM     21  O   UNL     1      -7.926   0.582 132.960  0.00  0.00    +0.000 OA
ATOM     22  H   UNL     1      -7.887  -1.406 130.494  0.00  0.00    +0.000 HD
ENDBRANCH   1  20
BRANCH  12  23
ATOM     23  C1* UNL     1      -8.605  -0.434 124.269  0.00  0.00    +0.000 C 
ATOM     24  O4* UNL     1      -7.541  -1.214 124.827  0.00  0.00    +0.000 OA
ATOM     25  C4* UNL     1      -7.554  -2.503 124.187  0.00  0.00    +0.000 C 
ATOM     26  C3* UNL     1      -8.752  -2.539 123.226  0.00  0.00    +0.000 C 
ATOM     27  C2* UNL     1      -9.020  -1.070 122.947  0.00  0.00    +0.000 C 
BRANCH  26  28
ATOM     28  O3* UNL     1      -9.900  -3.136 123.849  0.00  0.00    +0.000 OA
ATOM     29  H3* UNL     1      -9.761  -4.090 123.967  0.00  0.00    +0.000 HD
ENDBRANCH  26  28
BRANCH  27  30
ATOM     30  O2* UNL     1     -10.375  -0.789 122.606  0.00  0.00    +0.000 OA
ATOM     31  H2* UNL     1     -10.395  -0.005 122.027  0.00  0.00    +0.000 HD
ENDBRANCH  27  30
BRANCH  25  32
ATOM     32  C5* UNL     1      -6.213  -2.696 123.482  0.00  0.00    +0.000 C 
BRANCH  32  33
ATOM     33  O5* UNL     1      -5.151  -2.165 124.258  0.00  0.00    +0.000 OA
ATOM     34  H5* UNL     1      -4.667  -1.521 123.708  0.00  0.00    +0.000 HD
ENDBRANCH  32  33
ENDBRANCH  25  32
ENDBRANCH  12  23
TORSDOF 6
ENDMDL
MODEL 6
REMARK VINA RESULT:      -7.0      6.545      7.711
REMARK  Name = Regadenoson
REMARK  7 active torsions:
REMARK  status: ('A' for Active; 'I' for Inactive)
REMARK    1  A    between atoms: C_1  and  N_2
REMARK    2  A    between atoms: C_3  and  C_5
REMARK    3  A    between atoms: N_16  and  C1*_17
REMARK    4  A    between atoms: C4*_19  and  C5*_20
REMARK    5  A    between atoms: C5*_20  and  O5*_21
REMARK    6  A    between atoms: C3*_22  and  O3*_23
REMARK    7  A    between atoms: C2*_24  and  O2*_25
REMARK                            x       y       z     vdW  Elec       q    Type
REMARK                         _______ _______ _______ _____ _____    ______ ____
ROOT
ATOM      1  C   UNL     1      -7.132   2.819 122.842  0.00  0.00    +0.000 A 
ATOM      2  C   UNL     1      -6.994   1.787 123.756  0.00  0.00    +0.000 A 
ATOM      3  N   UNL     1      -8.195   1.050 123.801  0.00  0.00    +0.000 N 
ATOM      4  N   UNL     1      -9.128   1.651 123.000  0.00  0.00    +0.000 NA
ATOM      5  C   UNL     1      -8.495   2.714 122.476  0.00  0.00    +0.000 A 
ATOM      6  C   UNL     1      -8.417  -0.183 124.598  0.00  0.00    +0.000 A 
ATOM      7  N   UNL     1      -7.623  -0.267 125.691  0.00  0.00    +0.000 NA
ATOM      8  C   UNL     1      -7.832  -1.387 126.396  0.00  0.00    +0.000 A 
ATOM      9  C   UNL     1      -8.592  -2.484 126.059  0.00  0.00    +0.000 A 
ATOM     10  N   UNL     1      -8.522  -3.455 127.045  0.00  0.00    +0.000 NA
ATOM     11  C   UNL     1      -7.850  -2.884 128.025  0.00  0.00    +0.000 A 
ATOM     12  N   UNL     1      -7.364  -1.662 127.648  0.00  0.00    +0.000 N 
ATOM     13  C   UNL     1      -9.264  -2.411 124.829  0.00  0.00    +0.000 A 
ATOM     14  N   UNL     1      -9.792  -3.583 124.250  0.00  0.00    +0.000 N 
ATOM     15  N   UNL     1      -9.268  -1.186 124.178  0.00  0.00    +0.000 NA
ATOM     16  H   UNL     1      -9.443  -4.408 124.743  0.00  0.00    +0.000 HD
ATOM     17  H   UNL     1     -10.806  -3.600 124.238  0.00  0.00    +0.000 HD
ENDROOT
BRANCH   1  20
ATOM     18  C   UNL     1      -5.089   4.938 120.445  0.00  0.00    +0.000 C 
ATOM     19  N   UNL     1      -5.962   3.922 121.012  0.00  0.00    +0.000 N 
ATOM     20  C   UNL     1      -6.173   3.839 122.384  0.00  0.00    +0.000 C 
ATOM     21  O   UNL     1      -5.630   4.607 123.162  0.00  0.00    +0.000 OA
ATOM     22  H   UNL     1      -6.538   3.377 120.388  0.00  0.00    +0.000 HD
ENDBRANCH   1  20
BRANCH  12  23
ATOM     23  C1* UNL     1      -6.674  -0.687 128.454  0.00  0.00    +0.000 C 
ATOM     24  O4* UNL     1      -5.262  -0.909 128.370  0.00  0.00    +0.000 OA
ATOM     25  C4* UNL     1      -4.695  -0.645 129.667  0.00  0.00    +0.000 C 
ATOM     26  C3* UNL     1      -5.827  -0.158 130.585  0.00  0.00    +0.000 C 
ATOM     27  C2* UNL     1      -7.076  -0.715 129.924  0.00  0.00    +0.000 C 
BRANCH  26  28
ATOM     28  O3* UNL     1      -5.888   1.277 130.617  0.00  0.00    +0.000 OA
ATOM     29  H3* UNL     1      -6.383   1.575 131.397  0.00  0.00    +0.000 HD
ENDBRANCH  26  28
BRANCH  27  30
ATOM     30  O2* UNL     1      -8.251   0.048 130.185  0.00  0.00    +0.000 OA
ATOM     31  H2* UNL     1      -8.470  -0.030 131.132  0.00  0.00    +0.000 HD
ENDBRANCH  27  30
BRANCH  25  32
ATOM     32  C5* UNL     1      -4.029  -1.927 130.163  0.00  0.00    +0.000 C 
BRANCH  32  33
ATOM     33  O5* UNL     1      -2.708  -2.040 129.660  0.00  0.00    +0.000 OA
ATOM     34  H5* UNL     1      -2.714  -1.760 128.726  0.00  0.00    +0.000 HD
ENDBRANCH  32  33
ENDBRANCH  25  32
ENDBRANCH  12  23
TORSDOF 6
ENDMDL
MODEL 7
REMARK VINA RESULT:      -6.8      3.495      8.127
REMARK  Name = Regadenoson
REMARK  7 active torsions:
REMARK  status: ('A' for Active; 'I' for Inactive)
REMARK    1  A    between atoms: C_1  and  N_2
REMARK    2  A    between atoms: C_3  and  C_5
REMARK    3  A    between atoms: N_16  and  C1*_17
REMARK    4  A    between atoms: C4*_19  and  C5*_20
REMARK    5  A    between atoms: C5*_20  and  O5*_21
REMARK    6  A    between atoms: C3*_22  and  O3*_23
REMARK    7  A    between atoms: C2*_24  and  O2*_25
REMARK                            x       y       z     vdW  Elec       q    Type
REMARK                         _______ _______ _______ _____ _____    ______ ____
ROOT
ATOM      1  C   UNL     1      -7.442  -0.654 129.268  0.00  0.00    +0.000 A 
ATOM      2  C   UNL     1      -7.481   0.730 129.314  0.00  0.00    +0.000 A 
ATOM      3  N   UNL     1      -6.937   1.163 130.541  0.00  0.00    +0.000 N 
ATOM      4  N   UNL     1      -6.638   0.076 131.315  0.00  0.00    +0.000 NA
ATOM      5  C   UNL     1      -6.980  -0.984 130.565  0.00  0.00    +0.000 A 
ATOM      6  C   UNL     1      -6.728   2.579 130.935  0.00  0.00    +0.000 A 
ATOM      7  N   UNL     1      -7.570   3.440 130.317  0.00  0.00    +0.000 NA
ATOM      8  C   UNL     1      -7.365   4.714 130.679  0.00  0.00    +0.000 A 
ATOM      9  C   UNL     1      -6.336   5.237 131.428  0.00  0.00    +0.000 A 
ATOM     10  N   UNL     1      -6.463   6.611 131.551  0.00  0.00    +0.000 NA
ATOM     11  C   UNL     1      -7.634   6.885 131.008  0.00  0.00    +0.000 A 
ATOM     12  N   UNL     1      -8.178   5.777 130.416  0.00  0.00    +0.000 N 
ATOM     13  C   UNL     1      -5.392   4.314 131.905  0.00  0.00    +0.000 A 
ATOM     14  N   UNL     1      -4.151   4.772 132.394  0.00  0.00    +0.000 N 
ATOM     15  N   UNL     1      -5.688   2.967 131.757  0.00  0.00    +0.000 NA
ATOM     16  H   UNL     1      -4.023   5.759 132.160  0.00  0.00    +0.000 HD
ATOM     17  H   UNL     1      -4.045   4.646 133.394  0.00  0.00    +0.000 HD
ENDROOT
BRANCH   1  20
ATOM     18  C   UNL     1      -8.784  -3.820 127.660  0.00  0.00    +0.000 C 
ATOM     19  N   UNL     1      -8.305  -2.838 128.620  0.00  0.00    +0.000 N 
ATOM     20  C   UNL     1      -7.834  -1.597 128.206  0.00  0.00    +0.000 C 
ATOM     21  O   UNL     1      -7.798  -1.288 127.026  0.00  0.00    +0.000 OA
ATOM     22  H   UNL     1      -8.465  -3.006 129.602  0.00  0.00    +0.000 HD
ENDBRANCH   1  20
BRANCH  12  23
ATOM     23  C1* UNL     1      -9.478   5.635 129.811  0.00  0.00    +0.000 C 
ATOM     24  O4* UNL     1      -9.470   6.238 128.512  0.00  0.00    +0.000 OA
ATOM     25  C4* UNL     1     -10.748   6.869 128.309  0.00  0.00    +0.000 C 
ATOM     26  C3* UNL     1     -11.620   6.569 129.538  0.00  0.00    +0.000 C 
ATOM     27  C2* UNL     1     -10.602   6.266 130.624  0.00  0.00    +0.000 C 
BRANCH  26  28
ATOM     28  O3* UNL     1     -12.455   5.421 129.314  0.00  0.00    +0.000 OA
ATOM     29  H3* UNL     1     -13.099   5.605 128.612  0.00  0.00    +0.000 HD
ENDBRANCH  26  28
BRANCH  27  30
ATOM     30  O2* UNL     1     -11.093   5.401 131.644  0.00  0.00    +0.000 OA
ATOM     31  H2* UNL     1     -11.864   4.914 131.298  0.00  0.00    +0.000 HD
ENDBRANCH  27  30
BRANCH  25  32
ATOM     32  C5* UNL     1     -10.510   8.361 128.092  0.00  0.00    +0.000 C 
BRANCH  32  33
ATOM     33  O5* UNL     1     -11.678   9.111 128.386  0.00  0.00    +0.000 OA
ATOM     34  H5* UNL     1     -12.355   8.495 128.723  0.00  0.00    +0.000 HD
ENDBRANCH  32  33
ENDBRANCH  25  32
ENDBRANCH  12  23
TORSDOF 6
ENDMDL
MODEL 8
REMARK VINA RESULT:      -6.8      4.887      8.750
REMARK  Name = Regadenoson
REMARK  7 active torsions:
REMARK  status: ('A' for Active; 'I' for Inactive)
REMARK    1  A    between atoms: C_1  and  N_2
REMARK    2  A    between atoms: C_3  and  C_5
REMARK    3  A    between atoms: N_16  and  C1*_17
REMARK    4  A    between atoms: C4*_19  and  C5*_20
REMARK    5  A    between atoms: C5*_20  and  O5*_21
REMARK    6  A    between atoms: C3*_22  and  O3*_23
REMARK    7  A    between atoms: C2*_24  and  O2*_25
REMARK                            x       y       z     vdW  Elec       q    Type
REMARK                         _______ _______ _______ _____ _____    ______ ____
ROOT
ATOM      1  C   UNL     1      -8.129  -2.496 126.966  0.00  0.00    +0.000 A 
ATOM      2  C   UNL     1      -7.829  -1.534 127.915  0.00  0.00    +0.000 A 
ATOM      3  N   UNL     1      -8.041  -2.074 129.200  0.00  0.00    +0.000 N 
ATOM      4  N   UNL     1      -8.560  -3.334 129.083  0.00  0.00    +0.000 NA
ATOM      5  C   UNL     1      -8.644  -3.549 127.760  0.00  0.00    +0.000 A 
ATOM      6  C   UNL     1      -7.753  -1.382 130.481  0.00  0.00    +0.000 A 
ATOM      7  N   UNL     1      -7.797  -0.032 130.385  0.00  0.00    +0.000 NA
ATOM      8  C   UNL     1      -7.529   0.578 131.549  0.00  0.00    +0.000 A 
ATOM      9  C   UNL     1      -7.065   0.024 132.719  0.00  0.00    +0.000 A 
ATOM     10  N   UNL     1      -6.879   0.999 133.687  0.00  0.00    +0.000 NA
ATOM     11  C   UNL     1      -7.369   2.098 133.147  0.00  0.00    +0.000 A 
ATOM     12  N   UNL     1      -7.712   1.898 131.838  0.00  0.00    +0.000 N 
ATOM     13  C   UNL     1      -6.875  -1.367 132.710  0.00  0.00    +0.000 A 
ATOM     14  N   UNL     1      -6.110  -1.976 133.725  0.00  0.00    +0.000 N 
ATOM     15  N   UNL     1      -7.359  -2.067 131.614  0.00  0.00    +0.000 NA
ATOM     16  H   UNL     1      -5.618  -1.264 134.270  0.00  0.00    +0.000 HD
ATOM     17  H   UNL     1      -6.662  -2.555 134.348  0.00  0.00    +0.000 HD
ENDROOT
BRANCH   1  20
ATOM     18  C   UNL     1      -9.163  -2.928 123.338  0.00  0.00    +0.000 C 
ATOM     19  N   UNL     1      -9.123  -2.970 124.792  0.00  0.00    +0.000 N 
ATOM     20  C   UNL     1      -8.034  -2.468 125.496  0.00  0.00    +0.000 C 
ATOM     21  O   UNL     1      -7.072  -1.981 124.923  0.00  0.00    +0.000 OA
ATOM     22  H   UNL     1      -9.961  -3.224 125.291  0.00  0.00    +0.000 HD
ENDBRANCH   1  20
BRANCH  12  23
ATOM     23  C1* UNL     1      -8.370   2.810 130.937  0.00  0.00    +0.000 C 
ATOM     24  O4* UNL     1      -7.444   3.819 130.515  0.00  0.00    +0.000 OA
ATOM     25  C4* UNL     1      -8.160   5.064 130.419  0.00  0.00    +0.000 C 
ATOM     26  C3* UNL     1      -9.638   4.782 130.732  0.00  0.00    +0.000 C 
ATOM     27  C2* UNL     1      -9.584   3.501 131.546  0.00  0.00    +0.000 C 
BRANCH  26  28
ATOM     28  O3* UNL     1     -10.391   4.567 129.528  0.00  0.00    +0.000 OA
ATOM     29  H3* UNL     1     -10.680   3.642 129.473  0.00  0.00    +0.000 HD
ENDBRANCH  26  28
BRANCH  27  30
ATOM     30  O2* UNL     1     -10.767   2.713 131.453  0.00  0.00    +0.000 OA
ATOM     31  H2* UNL     1     -11.284   3.014 130.683  0.00  0.00    +0.000 HD
ENDBRANCH  27  30
BRANCH  25  32
ATOM     32  C5* UNL     1      -7.519   6.055 131.388  0.00  0.00    +0.000 C 
BRANCH  32  33
ATOM     33  O5* UNL     1      -7.101   7.229 130.712  0.00  0.00    +0.000 OA
ATOM     34  H5* UNL     1      -6.128   7.211 130.648  0.00  0.00    +0.000 HD
ENDBRANCH  32  33
ENDBRANCH  25  32
ENDBRANCH  12  23
TORSDOF 6
ENDMDL
MODEL 9
REMARK VINA RESULT:      -6.7      4.796      7.337
REMARK  Name = Regadenoson
REMARK  7 active torsions:
REMARK  status: ('A' for Active; 'I' for Inactive)
REMARK    1  A    between atoms: C_1  and  N_2
REMARK    2  A    between atoms: C_3  and  C_5
REMARK    3  A    between atoms: N_16  and  C1*_17
REMARK    4  A    between atoms: C4*_19  and  C5*_20
REMARK    5  A    between atoms: C5*_20  and  O5*_21
REMARK    6  A    between atoms: C3*_22  and  O3*_23
REMARK    7  A    between atoms: C2*_24  and  O2*_25
REMARK                            x       y       z     vdW  Elec       q    Type
REMARK                         _______ _______ _______ _____ _____    ______ ____
ROOT
ATOM      1  C   UNL     1      -8.096   3.155 129.889  0.00  0.00    +0.000 A 
ATOM      2  C   UNL     1      -8.402   2.383 128.781  0.00  0.00    +0.000 A 
ATOM      3  N   UNL     1      -7.745   1.140 128.891  0.00  0.00    +0.000 N 
ATOM      4  N   UNL     1      -6.951   1.143 130.005  0.00  0.00    +0.000 NA
ATOM      5  C   UNL     1      -7.140   2.353 130.557  0.00  0.00    +0.000 A 
ATOM      6  C   UNL     1      -7.886   0.007 127.942  0.00  0.00    +0.000 A 
ATOM      7  N   UNL     1      -8.231   0.392 126.691  0.00  0.00    +0.000 NA
ATOM      8  C   UNL     1      -8.360  -0.642 125.849  0.00  0.00    +0.000 A 
ATOM      9  C   UNL     1      -8.357  -1.988 126.137  0.00  0.00    +0.000 A 
ATOM     10  N   UNL     1      -8.555  -2.739 124.990  0.00  0.00    +0.000 NA
ATOM     11  C   UNL     1      -8.527  -1.858 124.008  0.00  0.00    +0.000 A 
ATOM     12  N   UNL     1      -8.474  -0.579 124.491  0.00  0.00    +0.000 N 
ATOM     13  C   UNL     1      -8.162  -2.328 127.485  0.00  0.00    +0.000 A 
ATOM     14  N   UNL     1      -8.462  -3.632 127.928  0.00  0.00    +0.000 N 
ATOM     15  N   UNL     1      -7.791  -1.309 128.350  0.00  0.00    +0.000 NA
ATOM     16  H   UNL     1      -8.979  -4.139 127.206  0.00  0.00    +0.000 HD
ATOM     17  H   UNL     1      -7.640  -4.163 128.190  0.00  0.00    +0.000 HD
ENDROOT
BRANCH   1  20
ATOM     18  C   UNL     1      -9.682   5.871 132.015  0.00  0.00    +0.000 C 
ATOM     19  N   UNL     1      -9.245   4.586 131.492  0.00  0.00    +0.000 N 
ATOM     20  C   UNL     1      -8.553   4.497 130.289  0.00  0.00    +0.000 C 
ATOM     21  O   UNL     1      -8.293   5.489 129.626  0.00  0.00    +0.000 OA
ATOM     22  H   UNL     1      -9.311   3.774 132.087  0.00  0.00    +0.000 HD
ENDBRANCH   1  20
BRANCH  12  23
ATOM     23  C1* UNL     1      -8.327   0.649 123.752  0.00  0.00    +0.000 C 
ATOM     24  O4* UNL     1      -6.943   1.014 123.699  0.00  0.00    +0.000 OA
ATOM     25  C4* UNL     1      -6.858   2.447 123.805  0.00  0.00    +0.000 C 
ATOM     26  C3* UNL     1      -8.291   3.000 123.853  0.00  0.00    +0.000 C 
ATOM     27  C2* UNL     1      -9.106   1.817 124.345  0.00  0.00    +0.000 C 
BRANCH  26  28
ATOM     28  O3* UNL     1      -8.739   3.393 122.545  0.00  0.00    +0.000 OA
ATOM     29  H3* UNL     1      -9.595   2.984 122.345  0.00  0.00    +0.000 HD
ENDBRANCH  26  28
BRANCH  27  30
ATOM     30  O2* UNL     1     -10.466   1.841 123.920  0.00  0.00    +0.000 OA
ATOM     31  H2* UNL     1     -10.928   2.559 124.390  0.00  0.00    +0.000 HD
ENDBRANCH  27  30
BRANCH  25  32
ATOM     32  C5* UNL     1      -6.044   2.782 125.053  0.00  0.00    +0.000 C 
BRANCH  32  33
ATOM     33  O5* UNL     1      -5.599   1.602 125.702  0.00  0.00    +0.000 OA
ATOM     34  H5* UNL     1      -4.666   1.456 125.458  0.00  0.00    +0.000 HD
ENDBRANCH  32  33
ENDBRANCH  25  32
ENDBRANCH  12  23
TORSDOF 6
ENDMDL
