MODEL 1
REMARK VINA RESULT:      -9.5      0.000      0.000
REMARK  Name = Regorafenib
REMARK  7 active torsions:
REMARK  status: ('A' for Active; 'I' for Inactive)
REMARK    1  A    between atoms: C_1  and  N_2
REMARK    2  A    between atoms: C_3  and  C_5
REMARK    3  A    between atoms: C_7  and  O_8
REMARK    4  A    between atoms: O_8  and  C_9
REMARK    5  A    between atoms: C_13  and  N_14
REMARK    6  A    between atoms: N_17  and  C_18
REMARK    7  A    between atoms: C_23  and  C_25
REMARK                            x       y       z     vdW  Elec       q    Type
REMARK                         _______ _______ _______ _____ _____    ______ ____
ROOT
ATOM      1  C   UNL     1      -7.358  -0.452 130.305  0.00  0.00    +0.000 A 
ATOM      2  C   UNL     1      -8.501  -0.327 131.065  0.00  0.00    +0.000 A 
ATOM      3  C   UNL     1      -8.956   0.924 131.454  0.00  0.00    +0.000 A 
ATOM      4  F   UNL     1     -10.129   0.845 132.078  0.00  0.00    +0.000 F 
ATOM      5  C   UNL     1      -8.263   2.124 131.189  0.00  0.00    +0.000 A 
ATOM      6  C   UNL     1      -7.060   1.976 130.461  0.00  0.00    +0.000 A 
ATOM      7  C   UNL     1      -6.613   0.694 130.028  0.00  0.00    +0.000 A 
ENDROOT
BRANCH   5   8
ATOM      8  N   UNL     1      -8.703   3.439 131.632  0.00  0.00    +0.000 N 
ATOM      9  C   UNL     1      -9.542   4.268 130.894  0.00  0.00    +0.000 C 
ATOM     10  O   UNL     1      -9.941   4.012 129.761  0.00  0.00    +0.000 OA
ATOM     11  N   UNL     1      -9.929   5.475 131.466  0.00  0.00    +0.000 N 
ATOM     12  H   UNL     1      -8.385   3.751 132.541  0.00  0.00    +0.000 HD
ATOM     13  H   UNL     1      -9.323   5.895 132.154  0.00  0.00    +0.000 HD
BRANCH  11  14
ATOM     14  C   UNL     1     -10.754   6.354 130.669  0.00  0.00    +0.000 A 
ATOM     15  C   UNL     1     -11.839   7.033 131.244  0.00  0.00    +0.000 A 
ATOM     16  C   UNL     1     -12.710   7.809 130.475  0.00  0.00    +0.000 A 
ATOM     17  C   UNL     1     -12.521   7.929 129.101  0.00  0.00    +0.000 A 
ATOM     18 CL   UNL     1     -13.679   8.895 128.259  0.00  0.00    +0.000 Cl
ATOM     19  C   UNL     1     -11.439   7.286 128.487  0.00  0.00    +0.000 A 
ATOM     20  C   UNL     1     -10.549   6.506 129.292  0.00  0.00    +0.000 A 
BRANCH  19  21
ATOM     21  C   UNL     1     -11.170   7.379 127.005  0.00  0.00    +0.000 C 
ATOM     22  F   UNL     1     -10.087   6.627 126.651  0.00  0.00    +0.000 F 
ATOM     23  F   UNL     1     -12.206   6.892 126.263  0.00  0.00    +0.000 F 
ATOM     24  F   UNL     1     -10.921   8.616 126.502  0.00  0.00    +0.000 F 
ENDBRANCH  19  21
ENDBRANCH  11  14
ENDBRANCH   5   8
BRANCH   1  25
ATOM     25  O   UNL     1      -6.943  -1.684 129.850  0.00  0.00    +0.000 OA
BRANCH  25  28
ATOM     26  C   UNL     1      -8.274  -2.466 126.483  0.00  0.00    +0.000 A 
ATOM     27  C   UNL     1      -7.603  -1.767 127.475  0.00  0.00    +0.000 A 
ATOM     28  C   UNL     1      -7.618  -2.259 128.782  0.00  0.00    +0.000 A 
ATOM     29  C   UNL     1      -8.308  -3.440 129.045  0.00  0.00    +0.000 A 
ATOM     30  C   UNL     1      -8.946  -4.077 127.990  0.00  0.00    +0.000 A 
ATOM     31  N   UNL     1      -8.945  -3.620 126.717  0.00  0.00    +0.000 NA
BRANCH  26  34
ATOM     32  C   UNL     1      -7.038  -1.550 122.995  0.00  0.00    +0.000 C 
ATOM     33  N   UNL     1      -7.109  -2.025 124.357  0.00  0.00    +0.000 N 
ATOM     34  C   UNL     1      -8.294  -1.923 125.080  0.00  0.00    +0.000 C 
ATOM     35  O   UNL     1      -9.306  -1.408 124.617  0.00  0.00    +0.000 OA
ATOM     36  H   UNL     1      -6.320  -2.535 124.730  0.00  0.00    +0.000 HD
ENDBRANCH  26  34
ENDBRANCH  25  28
ENDBRANCH   1  25
TORSDOF 6
ENDMDL
MODEL 2
REMARK VINA RESULT:      -9.0      4.375      9.325
REMARK  Name = Regorafenib
REMARK  7 active torsions:
REMARK  status: ('A' for Active; 'I' for Inactive)
REMARK    1  A    between atoms: C_1  and  N_2
REMARK    2  A    between atoms: C_3  and  C_5
REMARK    3  A    between atoms: C_7  and  O_8
REMARK    4  A    between atoms: O_8  and  C_9
REMARK    5  A    between atoms: C_13  and  N_14
REMARK    6  A    between atoms: N_17  and  C_18
REMARK    7  A    between atoms: C_23  and  C_25
REMARK                            x       y       z     vdW  Elec       q    Type
REMARK                         _______ _______ _______ _____ _____    ______ ____
ROOT
ATOM      1  C   UNL     1      -8.897   4.461 132.248  0.00  0.00    +0.000 A 
ATOM      2  C   UNL     1      -9.713   3.350 132.234  0.00  0.00    +0.000 A 
ATOM      3  C   UNL     1      -9.203   2.104 131.899  0.00  0.00    +0.000 A 
ATOM      4  F   UNL     1     -10.113   1.145 132.056  0.00  0.00    +0.000 F 
ATOM      5  C   UNL     1      -7.875   1.892 131.474  0.00  0.00    +0.000 A 
ATOM      6  C   UNL     1      -7.065   3.049 131.434  0.00  0.00    +0.000 A 
ATOM      7  C   UNL     1      -7.578   4.324 131.815  0.00  0.00    +0.000 A 
ENDROOT
BRANCH   5   8
ATOM      8  N   UNL     1      -7.340   0.599 131.074  0.00  0.00    +0.000 N 
ATOM      9  C   UNL     1      -7.560   0.018 129.828  0.00  0.00    +0.000 C 
ATOM     10  O   UNL     1      -8.287   0.498 128.963  0.00  0.00    +0.000 OA
ATOM     11  N   UNL     1      -6.938  -1.197 129.561  0.00  0.00    +0.000 N 
ATOM     12  H   UNL     1      -6.762   0.110 131.745  0.00  0.00    +0.000 HD
ATOM     13  H   UNL     1      -6.706  -1.798 130.336  0.00  0.00    +0.000 HD
BRANCH  11  14
ATOM     14  C   UNL     1      -7.217  -1.819 128.287  0.00  0.00    +0.000 A 
ATOM     15  C   UNL     1      -8.276  -2.732 128.154  0.00  0.00    +0.000 A 
ATOM     16  C   UNL     1      -8.505  -3.421 126.960  0.00  0.00    +0.000 A 
ATOM     17  C   UNL     1      -7.678  -3.217 125.858  0.00  0.00    +0.000 A 
ATOM     18 CL   UNL     1      -8.049  -4.147 124.450  0.00  0.00    +0.000 Cl
ATOM     19  C   UNL     1      -6.622  -2.300 125.939  0.00  0.00    +0.000 A 
ATOM     20  C   UNL     1      -6.410  -1.594 127.166  0.00  0.00    +0.000 A 
BRANCH  19  21
ATOM     21  C   UNL     1      -5.692  -2.025 124.782  0.00  0.00    +0.000 C 
ATOM     22  F   UNL     1      -6.374  -1.549 123.701  0.00  0.00    +0.000 F 
ATOM     23  F   UNL     1      -4.772  -1.063 125.082  0.00  0.00    +0.000 F 
ATOM     24  F   UNL     1      -4.970  -3.075 124.312  0.00  0.00    +0.000 F 
ENDBRANCH  19  21
ENDBRANCH  11  14
ENDBRANCH   5   8
BRANCH   1  25
ATOM     25  O   UNL     1      -9.377   5.685 132.654  0.00  0.00    +0.000 OA
BRANCH  25  28
ATOM     26  C   UNL     1     -10.996   7.417 129.809  0.00  0.00    +0.000 A 
ATOM     27  C   UNL     1      -9.991   6.814 130.549  0.00  0.00    +0.000 A 
ATOM     28  C   UNL     1     -10.278   6.352 131.835  0.00  0.00    +0.000 A 
ATOM     29  C   UNL     1     -11.569   6.512 132.332  0.00  0.00    +0.000 A 
ATOM     30  C   UNL     1     -12.515   7.122 131.519  0.00  0.00    +0.000 A 
ATOM     31  N   UNL     1     -12.259   7.576 130.271  0.00  0.00    +0.000 NA
BRANCH  26  34
ATOM     32  C   UNL     1     -11.063   7.752 126.012  0.00  0.00    +0.000 C 
ATOM     33  N   UNL     1     -11.285   7.297 127.365  0.00  0.00    +0.000 N 
ATOM     34  C   UNL     1     -10.685   7.952 128.437  0.00  0.00    +0.000 C 
ATOM     35  O   UNL     1      -9.930   8.906 128.288  0.00  0.00    +0.000 OA
ATOM     36  H   UNL     1     -11.974   6.574 127.523  0.00  0.00    +0.000 HD
ENDBRANCH  26  34
ENDBRANCH  25  28
ENDBRANCH   1  25
TORSDOF 6
ENDMDL
MODEL 3
REMARK VINA RESULT:      -9.0      4.158      9.267
REMARK  Name = Regorafenib
REMARK  7 active torsions:
REMARK  status: ('A' for Active; 'I' for Inactive)
REMARK    1  A    between atoms: C_1  and  N_2
REMARK    2  A    between atoms: C_3  and  C_5
REMARK    3  A    between atoms: C_7  and  O_8
REMARK    4  A    between atoms: O_8  and  C_9
REMARK    5  A    between atoms: C_13  and  N_14
REMARK    6  A    between atoms: N_17  and  C_18
REMARK    7  A    between atoms: C_23  and  C_25
REMARK                            x       y       z     vdW  Elec       q    Type
REMARK                         _______ _______ _______ _____ _____    ______ ____
ROOT
ATOM      1  C   UNL     1      -8.776   4.322 132.045  0.00  0.00    +0.000 A 
ATOM      2  C   UNL     1      -9.594   3.214 132.090  0.00  0.00    +0.000 A 
ATOM      3  C   UNL     1      -9.119   1.969 131.705  0.00  0.00    +0.000 A 
ATOM      4  F   UNL     1     -10.016   1.012 131.928  0.00  0.00    +0.000 F 
ATOM      5  C   UNL     1      -7.830   1.756 131.171  0.00  0.00    +0.000 A 
ATOM      6  C   UNL     1      -7.022   2.912 131.074  0.00  0.00    +0.000 A 
ATOM      7  C   UNL     1      -7.497   4.184 131.505  0.00  0.00    +0.000 A 
ENDROOT
BRANCH   5   8
ATOM      8  N   UNL     1      -7.334   0.465 130.718  0.00  0.00    +0.000 N 
ATOM      9  C   UNL     1      -7.230   0.098 129.380  0.00  0.00    +0.000 C 
ATOM     10  O   UNL     1      -7.612   0.794 128.443  0.00  0.00    +0.000 OA
ATOM     11  N   UNL     1      -6.683  -1.148 129.090  0.00  0.00    +0.000 N 
ATOM     12  H   UNL     1      -7.037  -0.190 131.429  0.00  0.00    +0.000 HD
ATOM     13  H   UNL     1      -6.756  -1.876 129.783  0.00  0.00    +0.000 HD
BRANCH  11  14
ATOM     14  C   UNL     1      -6.631  -1.542 127.701  0.00  0.00    +0.000 A 
ATOM     15  C   UNL     1      -5.502  -1.254 126.917  0.00  0.00    +0.000 A 
ATOM     16  C   UNL     1      -5.468  -1.536 125.549  0.00  0.00    +0.000 A 
ATOM     17  C   UNL     1      -6.565  -2.117 124.921  0.00  0.00    +0.000 A 
ATOM     18 CL   UNL     1      -6.408  -2.393 123.223  0.00  0.00    +0.000 Cl
ATOM     19  C   UNL     1      -7.705  -2.442 125.667  0.00  0.00    +0.000 A 
ATOM     20  C   UNL     1      -7.719  -2.158 127.070  0.00  0.00    +0.000 A 
BRANCH  19  21
ATOM     21  C   UNL     1      -8.928  -3.080 125.053  0.00  0.00    +0.000 C 
ATOM     22  F   UNL     1      -9.383  -2.354 123.991  0.00  0.00    +0.000 F 
ATOM     23  F   UNL     1      -8.663  -4.322 124.556  0.00  0.00    +0.000 F 
ATOM     24  F   UNL     1     -10.007  -3.240 125.861  0.00  0.00    +0.000 F 
ENDBRANCH  19  21
ENDBRANCH  11  14
ENDBRANCH   5   8
BRANCH   1  25
ATOM     25  O   UNL     1      -9.217   5.544 132.499  0.00  0.00    +0.000 OA
BRANCH  25  28
ATOM     26  C   UNL     1     -10.938   7.373 129.777  0.00  0.00    +0.000 A 
ATOM     27  C   UNL     1      -9.908   6.742 130.457  0.00  0.00    +0.000 A 
ATOM     28  C   UNL     1     -10.146   6.241 131.739  0.00  0.00    +0.000 A 
ATOM     29  C   UNL     1     -11.415   6.393 132.292  0.00  0.00    +0.000 A 
ATOM     30  C   UNL     1     -12.389   7.032 131.538  0.00  0.00    +0.000 A 
ATOM     31  N   UNL     1     -12.181   7.524 130.295  0.00  0.00    +0.000 NA
BRANCH  26  34
ATOM     32  C   UNL     1     -11.101   7.782 125.990  0.00  0.00    +0.000 C 
ATOM     33  N   UNL     1     -11.274   7.291 127.338  0.00  0.00    +0.000 N 
ATOM     34  C   UNL     1     -10.680   7.948 128.411  0.00  0.00    +0.000 C 
ATOM     35  O   UNL     1      -9.969   8.936 128.267  0.00  0.00    +0.000 OA
ATOM     36  H   UNL     1     -11.928   6.537 127.494  0.00  0.00    +0.000 HD
ENDBRANCH  26  34
ENDBRANCH  25  28
ENDBRANCH   1  25
TORSDOF 6
ENDMDL
MODEL 4
REMARK VINA RESULT:      -8.9      6.055      7.874
REMARK  Name = Regorafenib
REMARK  7 active torsions:
REMARK  status: ('A' for Active; 'I' for Inactive)
REMARK    1  A    between atoms: C_1  and  N_2
REMARK    2  A    between atoms: C_3  and  C_5
REMARK    3  A    between atoms: C_7  and  O_8
REMARK    4  A    between atoms: O_8  and  C_9
REMARK    5  A    between atoms: C_13  and  N_14
REMARK    6  A    between atoms: N_17  and  C_18
REMARK    7  A    between atoms: C_23  and  C_25
REMARK                            x       y       z     vdW  Elec       q    Type
REMARK                         _______ _______ _______ _____ _____    ______ ____
ROOT
ATOM      1  C   UNL     1      -5.826   4.443 135.577  0.00  0.00    +0.000 A 
ATOM      2  C   UNL     1      -6.188   3.378 134.781  0.00  0.00    +0.000 A 
ATOM      3  C   UNL     1      -7.379   3.400 134.071  0.00  0.00    +0.000 A 
ATOM      4  F   UNL     1      -7.494   2.339 133.276  0.00  0.00    +0.000 F 
ATOM      5  C   UNL     1      -8.328   4.439 134.170  0.00  0.00    +0.000 A 
ATOM      6  C   UNL     1      -7.972   5.498 135.036  0.00  0.00    +0.000 A 
ATOM      7  C   UNL     1      -6.730   5.494 135.736  0.00  0.00    +0.000 A 
ENDROOT
BRANCH   5   8
ATOM      8  N   UNL     1      -9.603   4.453 133.468  0.00  0.00    +0.000 N 
ATOM      9  C   UNL     1      -9.995   5.458 132.588  0.00  0.00    +0.000 C 
ATOM     10  O   UNL     1      -9.342   6.473 132.366  0.00  0.00    +0.000 OA
ATOM     11  N   UNL     1     -11.219   5.313 131.944  0.00  0.00    +0.000 N 
ATOM     12  H   UNL     1     -10.227   3.673 133.628  0.00  0.00    +0.000 HD
ATOM     13  H   UNL     1     -11.934   4.760 132.390  0.00  0.00    +0.000 HD
BRANCH  11  14
ATOM     14  C   UNL     1     -11.643   6.388 131.075  0.00  0.00    +0.000 A 
ATOM     15  C   UNL     1     -12.547   7.361 131.531  0.00  0.00    +0.000 A 
ATOM     16  C   UNL     1     -13.048   8.351 130.682  0.00  0.00    +0.000 A 
ATOM     17  C   UNL     1     -12.659   8.398 129.346  0.00  0.00    +0.000 A 
ATOM     18 CL   UNL     1     -13.368   9.653 128.394  0.00  0.00    +0.000 Cl
ATOM     19  C   UNL     1     -11.743   7.460 128.853  0.00  0.00    +0.000 A 
ATOM     20  C   UNL     1     -11.230   6.460 129.740  0.00  0.00    +0.000 A 
BRANCH  19  21
ATOM     21  C   UNL     1     -11.273   7.456 127.419  0.00  0.00    +0.000 C 
ATOM     22  F   UNL     1     -10.771   8.673 127.060  0.00  0.00    +0.000 F 
ATOM     23  F   UNL     1     -10.255   6.570 127.215  0.00  0.00    +0.000 F 
ATOM     24  F   UNL     1     -12.199   7.161 126.470  0.00  0.00    +0.000 F 
ENDBRANCH  19  21
ENDBRANCH  11  14
ENDBRANCH   5   8
BRANCH   1  25
ATOM     25  O   UNL     1      -4.610   4.462 136.222  0.00  0.00    +0.000 OA
BRANCH  25  28
ATOM     26  C   UNL     1      -2.245   6.304 134.047  0.00  0.00    +0.000 A 
ATOM     27  C   UNL     1      -3.213   5.379 134.409  0.00  0.00    +0.000 A 
ATOM     28  C   UNL     1      -3.616   5.304 135.744  0.00  0.00    +0.000 A 
ATOM     29  C   UNL     1      -3.030   6.165 136.669  0.00  0.00    +0.000 A 
ATOM     30  C   UNL     1      -2.074   7.063 136.218  0.00  0.00    +0.000 A 
ATOM     31  N   UNL     1      -1.669   7.153 134.931  0.00  0.00    +0.000 NA
BRANCH  26  34
ATOM     32  C   UNL     1      -2.361   6.067 130.244  0.00  0.00    +0.000 C 
ATOM     33  N   UNL     1      -2.710   6.019 131.645  0.00  0.00    +0.000 N 
ATOM     34  C   UNL     1      -1.778   6.364 132.618  0.00  0.00    +0.000 C 
ATOM     35  O   UNL     1      -0.629   6.691 132.343  0.00  0.00    +0.000 OA
ATOM     36  H   UNL     1      -3.674   5.844 131.893  0.00  0.00    +0.000 HD
ENDBRANCH  26  34
ENDBRANCH  25  28
ENDBRANCH   1  25
TORSDOF 6
ENDMDL
MODEL 5
REMARK VINA RESULT:      -8.8      4.404      9.636
REMARK  Name = Regorafenib
REMARK  7 active torsions:
REMARK  status: ('A' for Active; 'I' for Inactive)
REMARK    1  A    between atoms: C_1  and  N_2
REMARK    2  A    between atoms: C_3  and  C_5
REMARK    3  A    between atoms: C_7  and  O_8
REMARK    4  A    between atoms: O_8  and  C_9
REMARK    5  A    between atoms: C_13  and  N_14
REMARK    6  A    between atoms: N_17  and  C_18
REMARK    7  A    between atoms: C_23  and  C_25
REMARK                            x       y       z     vdW  Elec       q    Type
REMARK                         _______ _______ _______ _____ _____    ______ ____
ROOT
ATOM      1  C   UNL     1      -5.437   4.932 130.448  0.00  0.00    +0.000 A 
ATOM      2  C   UNL     1      -4.931   5.192 129.192  0.00  0.00    +0.000 A 
ATOM      3  C   UNL     1      -4.676   4.157 128.305  0.00  0.00    +0.000 A 
ATOM      4  F   UNL     1      -4.304   4.616 127.112  0.00  0.00    +0.000 F 
ATOM      5  C   UNL     1      -4.823   2.793 128.634  0.00  0.00    +0.000 A 
ATOM      6  C   UNL     1      -5.284   2.537 129.945  0.00  0.00    +0.000 A 
ATOM      7  C   UNL     1      -5.584   3.603 130.844  0.00  0.00    +0.000 A 
ENDROOT
BRANCH   5   8
ATOM      8  N   UNL     1      -4.512   1.695 127.731  0.00  0.00    +0.000 N 
ATOM      9  C   UNL     1      -5.463   1.025 126.966  0.00  0.00    +0.000 C 
ATOM     10  O   UNL     1      -6.671   1.239 127.026  0.00  0.00    +0.000 OA
ATOM     11  N   UNL     1      -5.016   0.031 126.101  0.00  0.00    +0.000 N 
ATOM     12  H   UNL     1      -3.541   1.422 127.652  0.00  0.00    +0.000 HD
ATOM     13  H   UNL     1      -4.155  -0.445 126.322  0.00  0.00    +0.000 HD
BRANCH  11  14
ATOM     14  C   UNL     1      -6.015  -0.697 125.354  0.00  0.00    +0.000 A 
ATOM     15  C   UNL     1      -6.343  -0.319 124.042  0.00  0.00    +0.000 A 
ATOM     16  C   UNL     1      -7.374  -0.943 123.335  0.00  0.00    +0.000 A 
ATOM     17  C   UNL     1      -8.112  -1.968 123.921  0.00  0.00    +0.000 A 
ATOM     18 CL   UNL     1      -9.376  -2.641 122.954  0.00  0.00    +0.000 Cl
ATOM     19  C   UNL     1      -7.806  -2.392 125.220  0.00  0.00    +0.000 A 
ATOM     20  C   UNL     1      -6.738  -1.751 125.926  0.00  0.00    +0.000 A 
BRANCH  19  21
ATOM     21  C   UNL     1      -8.559  -3.502 125.915  0.00  0.00    +0.000 C 
ATOM     22  F   UNL     1      -9.905  -3.281 125.881  0.00  0.00    +0.000 F 
ATOM     23  F   UNL     1      -8.374  -4.707 125.304  0.00  0.00    +0.000 F 
ATOM     24  F   UNL     1      -8.268  -3.715 127.224  0.00  0.00    +0.000 F 
ENDBRANCH  19  21
ENDBRANCH  11  14
ENDBRANCH   5   8
BRANCH   1  25
ATOM     25  O   UNL     1      -5.766   5.958 131.304  0.00  0.00    +0.000 OA
BRANCH  25  28
ATOM     26  C   UNL     1      -9.398   6.679 131.211  0.00  0.00    +0.000 A 
ATOM     27  C   UNL     1      -8.088   6.594 130.766  0.00  0.00    +0.000 A 
ATOM     28  C   UNL     1      -7.100   6.140 131.642  0.00  0.00    +0.000 A 
ATOM     29  C   UNL     1      -7.466   5.787 132.939  0.00  0.00    +0.000 A 
ATOM     30  C   UNL     1      -8.803   5.898 133.298  0.00  0.00    +0.000 A 
ATOM     31  N   UNL     1      -9.775   6.334 132.466  0.00  0.00    +0.000 NA
BRANCH  26  34
ATOM     32  C   UNL     1     -10.969   8.456 128.226  0.00  0.00    +0.000 C 
ATOM     33  N   UNL     1     -10.022   7.932 129.184  0.00  0.00    +0.000 N 
ATOM     34  C   UNL     1     -10.462   7.202 130.285  0.00  0.00    +0.000 C 
ATOM     35  O   UNL     1     -11.650   7.000 130.509  0.00  0.00    +0.000 OA
ATOM     36  H   UNL     1      -9.036   8.004 128.974  0.00  0.00    +0.000 HD
ENDBRANCH  26  34
ENDBRANCH  25  28
ENDBRANCH   1  25
TORSDOF 6
ENDMDL
MODEL 6
REMARK VINA RESULT:      -8.8      5.982      8.261
REMARK  Name = Regorafenib
REMARK  7 active torsions:
REMARK  status: ('A' for Active; 'I' for Inactive)
REMARK    1  A    between atoms: C_1  and  N_2
REMARK    2  A    between atoms: C_3  and  C_5
REMARK    3  A    between atoms: C_7  and  O_8
REMARK    4  A    between atoms: O_8  and  C_9
REMARK    5  A    between atoms: C_13  and  N_14
REMARK    6  A    between atoms: N_17  and  C_18
REMARK    7  A    between atoms: C_23  and  C_25
REMARK                            x       y       z     vdW  Elec       q    Type
REMARK                         _______ _______ _______ _____ _____    ______ ____
ROOT
ATOM      1  C   UNL     1      -5.172   4.406 134.588  0.00  0.00    +0.000 A 
ATOM      2  C   UNL     1      -5.765   3.536 133.698  0.00  0.00    +0.000 A 
ATOM      3  C   UNL     1      -7.090   3.703 133.326  0.00  0.00    +0.000 A 
ATOM      4  F   UNL     1      -7.444   2.839 132.377  0.00  0.00    +0.000 F 
ATOM      5  C   UNL     1      -7.938   4.688 133.874  0.00  0.00    +0.000 A 
ATOM      6  C   UNL     1      -7.334   5.536 134.831  0.00  0.00    +0.000 A 
ATOM      7  C   UNL     1      -5.961   5.389 135.185  0.00  0.00    +0.000 A 
ENDROOT
BRANCH   5   8
ATOM      8  N   UNL     1      -9.343   4.844 133.529  0.00  0.00    +0.000 N 
ATOM      9  C   UNL     1      -9.812   5.725 132.559  0.00  0.00    +0.000 C 
ATOM     10  O   UNL     1      -9.101   6.515 131.944  0.00  0.00    +0.000 OA
ATOM     11  N   UNL     1     -11.178   5.728 132.293  0.00  0.00    +0.000 N 
ATOM     12  H   UNL     1     -10.007   4.260 134.021  0.00  0.00    +0.000 HD
ATOM     13  H   UNL     1     -11.809   5.437 133.023  0.00  0.00    +0.000 HD
BRANCH  11  14
ATOM     14  C   UNL     1     -11.662   6.686 131.325  0.00  0.00    +0.000 A 
ATOM     15  C   UNL     1     -12.685   7.587 131.661  0.00  0.00    +0.000 A 
ATOM     16  C   UNL     1     -13.239   8.453 130.715  0.00  0.00    +0.000 A 
ATOM     17  C   UNL     1     -12.785   8.445 129.399  0.00  0.00    +0.000 A 
ATOM     18 CL   UNL     1     -13.566   9.545 128.320  0.00  0.00    +0.000 Cl
ATOM     19  C   UNL     1     -11.751   7.578 129.024  0.00  0.00    +0.000 A 
ATOM     20  C   UNL     1     -11.186   6.705 130.009  0.00  0.00    +0.000 A 
BRANCH  19  21
ATOM     21  C   UNL     1     -11.204   7.520 127.618  0.00  0.00    +0.000 C 
ATOM     22  F   UNL     1     -10.638   8.708 127.259  0.00  0.00    +0.000 F 
ATOM     23  F   UNL     1     -10.212   6.593 127.490  0.00  0.00    +0.000 F 
ATOM     24  F   UNL     1     -12.089   7.237 126.627  0.00  0.00    +0.000 F 
ENDBRANCH  19  21
ENDBRANCH  11  14
ENDBRANCH   5   8
BRANCH   1  25
ATOM     25  O   UNL     1      -3.836   4.294 134.902  0.00  0.00    +0.000 OA
BRANCH  25  28
ATOM     26  C   UNL     1      -1.541   6.890 133.591  0.00  0.00    +0.000 A 
ATOM     27  C   UNL     1      -2.516   6.314 134.392  0.00  0.00    +0.000 A 
ATOM     28  C   UNL     1      -2.913   4.999 134.142  0.00  0.00    +0.000 A 
ATOM     29  C   UNL     1      -2.313   4.307 133.092  0.00  0.00    +0.000 A 
ATOM     30  C   UNL     1      -1.341   4.959 132.345  0.00  0.00    +0.000 A 
ATOM     31  N   UNL     1      -0.942   6.231 132.571  0.00  0.00    +0.000 NA
BRANCH  26  34
ATOM     32  C   UNL     1       0.612  10.035 133.581  0.00  0.00    +0.000 C 
ATOM     33  N   UNL     1       0.141   8.679 133.412  0.00  0.00    +0.000 N 
ATOM     34  C   UNL     1      -1.135   8.318 133.831  0.00  0.00    +0.000 C 
ATOM     35  O   UNL     1      -1.896   9.107 134.381  0.00  0.00    +0.000 OA
ATOM     36  H   UNL     1       0.711   8.036 132.880  0.00  0.00    +0.000 HD
ENDBRANCH  26  34
ENDBRANCH  25  28
ENDBRANCH   1  25
TORSDOF 6
ENDMDL
MODEL 7
REMARK VINA RESULT:      -8.7      4.906      9.591
REMARK  Name = Regorafenib
REMARK  7 active torsions:
REMARK  status: ('A' for Active; 'I' for Inactive)
REMARK    1  A    between atoms: C_1  and  N_2
REMARK    2  A    between atoms: C_3  and  C_5
REMARK    3  A    between atoms: C_7  and  O_8
REMARK    4  A    between atoms: O_8  and  C_9
REMARK    5  A    between atoms: C_13  and  N_14
REMARK    6  A    between atoms: N_17  and  C_18
REMARK    7  A    between atoms: C_23  and  C_25
REMARK                            x       y       z     vdW  Elec       q    Type
REMARK                         _______ _______ _______ _____ _____    ______ ____
ROOT
ATOM      1  C   UNL     1      -4.922   3.838 131.598  0.00  0.00    +0.000 A 
ATOM      2  C   UNL     1      -4.301   3.892 130.369  0.00  0.00    +0.000 A 
ATOM      3  C   UNL     1      -4.196   2.756 129.580  0.00  0.00    +0.000 A 
ATOM      4  F   UNL     1      -3.672   3.034 128.389  0.00  0.00    +0.000 F 
ATOM      5  C   UNL     1      -4.623   1.476 129.993  0.00  0.00    +0.000 A 
ATOM      6  C   UNL     1      -5.203   1.423 131.281  0.00  0.00    +0.000 A 
ATOM      7  C   UNL     1      -5.346   2.598 132.076  0.00  0.00    +0.000 A 
ENDROOT
BRANCH   5   8
ATOM      8  N   UNL     1      -4.476   0.267 129.197  0.00  0.00    +0.000 N 
ATOM      9  C   UNL     1      -5.398  -0.152 128.243  0.00  0.00    +0.000 C 
ATOM     10  O   UNL     1      -6.467   0.411 128.023  0.00  0.00    +0.000 OA
ATOM     11  N   UNL     1      -5.101  -1.299 127.514  0.00  0.00    +0.000 N 
ATOM     12  H   UNL     1      -3.641  -0.285 129.346  0.00  0.00    +0.000 HD
ATOM     13  H   UNL     1      -4.494  -1.989 127.931  0.00  0.00    +0.000 HD
BRANCH  11  14
ATOM     14  C   UNL     1      -6.090  -1.758 126.566  0.00  0.00    +0.000 A 
ATOM     15  C   UNL     1      -7.178  -2.538 126.989  0.00  0.00    +0.000 A 
ATOM     16  C   UNL     1      -8.092  -3.076 126.079  0.00  0.00    +0.000 A 
ATOM     17  C   UNL     1      -7.945  -2.850 124.713  0.00  0.00    +0.000 A 
ATOM     18 CL   UNL     1      -9.124  -3.590 123.691  0.00  0.00    +0.000 Cl
ATOM     19  C   UNL     1      -6.886  -2.060 124.248  0.00  0.00    +0.000 A 
ATOM     20  C   UNL     1      -5.966  -1.506 125.194  0.00  0.00    +0.000 A 
BRANCH  19  21
ATOM     21  C   UNL     1      -6.669  -1.768 122.783  0.00  0.00    +0.000 C 
ATOM     22  F   UNL     1      -6.430  -0.441 122.573  0.00  0.00    +0.000 F 
ATOM     23  F   UNL     1      -5.576  -2.416 122.286  0.00  0.00    +0.000 F 
ATOM     24  F   UNL     1      -7.685  -2.082 121.938  0.00  0.00    +0.000 F 
ENDBRANCH  19  21
ENDBRANCH  11  14
ENDBRANCH   5   8
BRANCH   1  25
ATOM     25  O   UNL     1      -5.099   4.977 132.351  0.00  0.00    +0.000 OA
BRANCH  25  28
ATOM     26  C   UNL     1      -8.510   6.342 131.884  0.00  0.00    +0.000 A 
ATOM     27  C   UNL     1      -7.217   5.959 131.559  0.00  0.00    +0.000 A 
ATOM     28  C   UNL     1      -6.389   5.443 132.558  0.00  0.00    +0.000 A 
ATOM     29  C   UNL     1      -6.891   5.331 133.852  0.00  0.00    +0.000 A 
ATOM     30  C   UNL     1      -8.199   5.732 134.087  0.00  0.00    +0.000 A 
ATOM     31  N   UNL     1      -9.019   6.233 133.135  0.00  0.00    +0.000 NA
BRANCH  26  34
ATOM     32  C   UNL     1     -11.698   7.409 130.086  0.00  0.00    +0.000 C 
ATOM     33  N   UNL     1     -10.768   6.850 131.041  0.00  0.00    +0.000 N 
ATOM     34  C   UNL     1      -9.396   6.932 130.822  0.00  0.00    +0.000 C 
ATOM     35  O   UNL     1      -8.919   7.444 129.815  0.00  0.00    +0.000 OA
ATOM     36  H   UNL     1     -11.130   6.507 131.920  0.00  0.00    +0.000 HD
ENDBRANCH  26  34
ENDBRANCH  25  28
ENDBRANCH   1  25
TORSDOF 6
ENDMDL
MODEL 8
REMARK VINA RESULT:      -8.7      1.884      2.698
REMARK  Name = Regorafenib
REMARK  7 active torsions:
REMARK  status: ('A' for Active; 'I' for Inactive)
REMARK    1  A    between atoms: C_1  and  N_2
REMARK    2  A    between atoms: C_3  and  C_5
REMARK    3  A    between atoms: C_7  and  O_8
REMARK    4  A    between atoms: O_8  and  C_9
REMARK    5  A    between atoms: C_13  and  N_14
REMARK    6  A    between atoms: N_17  and  C_18
REMARK    7  A    between atoms: C_23  and  C_25
REMARK                            x       y       z     vdW  Elec       q    Type
REMARK                         _______ _______ _______ _____ _____    ______ ____
ROOT
ATOM      1  C   UNL     1      -6.409  -1.063 127.946  0.00  0.00    +0.000 A 
ATOM      2  C   UNL     1      -7.366  -0.974 128.933  0.00  0.00    +0.000 A 
ATOM      3  C   UNL     1      -7.551   0.209 129.632  0.00  0.00    +0.000 A 
ATOM      4  F   UNL     1      -8.592   0.132 130.458  0.00  0.00    +0.000 F 
ATOM      5  C   UNL     1      -6.744   1.354 129.458  0.00  0.00    +0.000 A 
ATOM      6  C   UNL     1      -5.727   1.229 128.484  0.00  0.00    +0.000 A 
ATOM      7  C   UNL     1      -5.562   0.025 127.739  0.00  0.00    +0.000 A 
ENDROOT
BRANCH   5   8
ATOM      8  N   UNL     1      -6.895   2.586 130.217  0.00  0.00    +0.000 N 
ATOM      9  C   UNL     1      -8.000   3.427 130.124  0.00  0.00    +0.000 C 
ATOM     10  O   UNL     1      -8.930   3.258 129.339  0.00  0.00    +0.000 OA
ATOM     11  N   UNL     1      -8.037   4.543 130.952  0.00  0.00    +0.000 N 
ATOM     12  H   UNL     1      -6.151   2.827 130.859  0.00  0.00    +0.000 HD
ATOM     13  H   UNL     1      -7.163   4.933 131.271  0.00  0.00    +0.000 HD
BRANCH  11  14
ATOM     14  C   UNL     1      -9.161   5.440 130.808  0.00  0.00    +0.000 A 
ATOM     15  C   UNL     1     -10.119   5.556 131.827  0.00  0.00    +0.000 A 
ATOM     16  C   UNL     1     -11.265   6.339 131.671  0.00  0.00    +0.000 A 
ATOM     17  C   UNL     1     -11.489   7.033 130.485  0.00  0.00    +0.000 A 
ATOM     18 CL   UNL     1     -12.954   7.945 130.406  0.00  0.00    +0.000 Cl
ATOM     19  C   UNL     1     -10.550   6.964 129.449  0.00  0.00    +0.000 A 
ATOM     20  C   UNL     1      -9.375   6.167 129.630  0.00  0.00    +0.000 A 
BRANCH  19  21
ATOM     21  C   UNL     1     -10.725   7.695 128.139  0.00  0.00    +0.000 C 
ATOM     22  F   UNL     1     -10.070   7.057 127.126  0.00  0.00    +0.000 F 
ATOM     23  F   UNL     1     -12.031   7.747 127.751  0.00  0.00    +0.000 F 
ATOM     24  F   UNL     1     -10.286   8.979 128.091  0.00  0.00    +0.000 F 
ENDBRANCH  19  21
ENDBRANCH  11  14
ENDBRANCH   5   8
BRANCH   1  25
ATOM     25  O   UNL     1      -6.273  -2.209 127.195  0.00  0.00    +0.000 OA
BRANCH  25  28
ATOM     26  C   UNL     1      -7.755  -1.500 123.875  0.00  0.00    +0.000 A 
ATOM     27  C   UNL     1      -7.648  -1.549 125.257  0.00  0.00    +0.000 A 
ATOM     28  C   UNL     1      -6.523  -2.145 125.831  0.00  0.00    +0.000 A 
ATOM     29  C   UNL     1      -5.543  -2.672 124.994  0.00  0.00    +0.000 A 
ATOM     30  C   UNL     1      -5.729  -2.573 123.621  0.00  0.00    +0.000 A 
ATOM     31  N   UNL     1      -6.809  -2.000 123.044  0.00  0.00    +0.000 NA
BRANCH  26  34
ATOM     32  C   UNL     1     -10.162   1.170 122.607  0.00  0.00    +0.000 C 
ATOM     33  N   UNL     1      -9.034   0.497 123.209  0.00  0.00    +0.000 N 
ATOM     34  C   UNL     1      -8.980  -0.893 123.249  0.00  0.00    +0.000 C 
ATOM     35  O   UNL     1      -9.883  -1.600 122.815  0.00  0.00    +0.000 OA
ATOM     36  H   UNL     1      -8.237   1.052 123.489  0.00  0.00    +0.000 HD
ENDBRANCH  26  34
ENDBRANCH  25  28
ENDBRANCH   1  25
TORSDOF 6
ENDMDL
MODEL 9
REMARK VINA RESULT:      -8.6      6.502      9.800
REMARK  Name = Regorafenib
REMARK  7 active torsions:
REMARK  status: ('A' for Active; 'I' for Inactive)
REMARK    1  A    between atoms: C_1  and  N_2
REMARK    2  A    between atoms: C_3  and  C_5
REMARK    3  A    between atoms: C_7  and  O_8
REMARK    4  A    between atoms: O_8  and  C_9
REMARK    5  A    between atoms: C_13  and  N_14
REMARK    6  A    between atoms: N_17  and  C_18
REMARK    7  A    between atoms: C_23  and  C_25
REMARK                            x       y       z     vdW  Elec       q    Type
REMARK                         _______ _______ _______ _____ _____    ______ ____
ROOT
ATOM      1  C   UNL     1      -7.851   0.481 123.511  0.00  0.00    +0.000 A 
ATOM      2  C   UNL     1      -6.907  -0.516 123.627  0.00  0.00    +0.000 A 
ATOM      3  C   UNL     1      -7.062  -1.530 124.561  0.00  0.00    +0.000 A 
ATOM      4  F   UNL     1      -6.112  -2.455 124.440  0.00  0.00    +0.000 F 
ATOM      5  C   UNL     1      -8.115  -1.574 125.498  0.00  0.00    +0.000 A 
ATOM      6  C   UNL     1      -9.044  -0.512 125.409  0.00  0.00    +0.000 A 
ATOM      7  C   UNL     1      -8.906   0.508 124.423  0.00  0.00    +0.000 A 
ENDROOT
BRANCH   5   8
ATOM      8  N   UNL     1      -8.264  -2.604 126.515  0.00  0.00    +0.000 N 
ATOM      9  C   UNL     1      -7.623  -2.576 127.750  0.00  0.00    +0.000 C 
ATOM     10  O   UNL     1      -6.809  -1.720 128.085  0.00  0.00    +0.000 OA
ATOM     11  N   UNL     1      -7.903  -3.600 128.649  0.00  0.00    +0.000 N 
ATOM     12  H   UNL     1      -8.886  -3.375 126.305  0.00  0.00    +0.000 HD
ATOM     13  H   UNL     1      -8.202  -4.491 128.284  0.00  0.00    +0.000 HD
BRANCH  11  14
ATOM     14  C   UNL     1      -7.190  -3.592 129.907  0.00  0.00    +0.000 A 
ATOM     15  C   UNL     1      -6.075  -4.422 130.101  0.00  0.00    +0.000 A 
ATOM     16  C   UNL     1      -5.430  -4.506 131.338  0.00  0.00    +0.000 A 
ATOM     17  C   UNL     1      -5.884  -3.760 132.422  0.00  0.00    +0.000 A 
ATOM     18 CL   UNL     1      -5.018  -3.971 133.902  0.00  0.00    +0.000 Cl
ATOM     19  C   UNL     1      -6.980  -2.902 132.268  0.00  0.00    +0.000 A 
ATOM     20  C   UNL     1      -7.621  -2.819 130.991  0.00  0.00    +0.000 A 
BRANCH  19  21
ATOM     21  C   UNL     1      -7.521  -2.059 133.398  0.00  0.00    +0.000 C 
ATOM     22  F   UNL     1      -8.456  -1.173 132.949  0.00  0.00    +0.000 F 
ATOM     23  F   UNL     1      -8.158  -2.812 134.341  0.00  0.00    +0.000 F 
ATOM     24  F   UNL     1      -6.623  -1.308 134.087  0.00  0.00    +0.000 F 
ENDBRANCH  19  21
ENDBRANCH  11  14
ENDBRANCH   5   8
BRANCH   1  25
ATOM     25  O   UNL     1      -7.745   1.445 122.535  0.00  0.00    +0.000 OA
BRANCH  25  28
ATOM     26  C   UNL     1      -5.730   4.111 124.134  0.00  0.00    +0.000 A 
ATOM     27  C   UNL     1      -6.610   3.044 124.031  0.00  0.00    +0.000 A 
ATOM     28  C   UNL     1      -6.923   2.539 122.767  0.00  0.00    +0.000 A 
ATOM     29  C   UNL     1      -6.338   3.128 121.648  0.00  0.00    +0.000 A 
ATOM     30  C   UNL     1      -5.464   4.187 121.844  0.00  0.00    +0.000 A 
ATOM     31  N   UNL     1      -5.146   4.691 123.058  0.00  0.00    +0.000 NA
BRANCH  26  34
ATOM     32  C   UNL     1      -4.094   4.483 127.557  0.00  0.00    +0.000 C 
ATOM     33  N   UNL     1      -4.476   3.997 126.251  0.00  0.00    +0.000 N 
ATOM     34  C   UNL     1      -5.417   4.683 125.489  0.00  0.00    +0.000 C 
ATOM     35  O   UNL     1      -5.980   5.695 125.892  0.00  0.00    +0.000 OA
ATOM     36  H   UNL     1      -3.961   3.221 125.858  0.00  0.00    +0.000 HD
ENDBRANCH  26  34
ENDBRANCH  25  28
ENDBRANCH   1  25
TORSDOF 6
ENDMDL
