MODEL 1
REMARK VINA RESULT:      -6.8      0.000      0.000
REMARK  Name = Relebactam
REMARK  5 active torsions:
REMARK  status: ('A' for Active; 'I' for Inactive)
REMARK    1  A    between atoms: O_1  and  S_2
REMARK    2  A    between atoms: S_2  and  O_5
REMARK    3  A    between atoms: O_5  and  N_6
REMARK    4  A    between atoms: C_10  and  C_13
REMARK    5  A    between atoms: N_15  and  C_16
REMARK                            x       y       z     vdW  Elec       q    Type
REMARK                         _______ _______ _______ _____ _____    ______ ____
ROOT
ATOM      1  N   UNL     1     -10.845   6.306 129.593  0.00  0.00    +0.000 N 
ATOM      2  C   UNL     1     -11.013   5.627 130.875  0.00  0.00    +0.000 C 
ATOM      3  C   UNL     1     -10.239   4.409 130.252  0.00  0.00    +0.000 C 
ATOM      4  N   UNL     1      -9.002   4.924 129.853  0.00  0.00    +0.000 N 
ATOM      5  C   UNL     1      -8.182   5.088 131.096  0.00  0.00    +0.000 C 
ATOM      6  C   UNL     1      -8.715   6.225 131.950  0.00  0.00    +0.000 C 
ATOM      7  C   UNL     1     -10.208   5.987 132.186  0.00  0.00    +0.000 C 
ATOM      8  C   UNL     1      -9.613   5.948 128.967  0.00  0.00    +0.000 C 
ATOM      9  O   UNL     1      -9.405   6.061 127.767  0.00  0.00    +0.000 OA
ENDROOT
BRANCH   5  10
ATOM     10  C   UNL     1      -8.313   3.865 132.121  0.00  0.00    +0.000 C 
ATOM     11  O   UNL     1      -8.451   4.019 133.336  0.00  0.00    +0.000 OA
ATOM     12  N   UNL     1      -8.123   2.599 131.674  0.00  0.00    +0.000 N 
ATOM     13  H   UNL     1      -7.811   2.466 130.723  0.00  0.00    +0.000 HD
BRANCH  12  14
ATOM     14  C   UNL     1      -8.243   1.435 132.583  0.00  0.00    +0.000 C 
ATOM     15  C   UNL     1      -8.945   0.201 131.967  0.00  0.00    +0.000 C 
ATOM     16  C   UNL     1      -8.181  -0.239 130.724  0.00  0.00    +0.000 C 
ATOM     17  N   UNL     1      -6.822  -0.637 131.095  0.00  0.00    +0.000 NA
ATOM     18  C   UNL     1      -6.094   0.455 131.749  0.00  0.00    +0.000 C 
ATOM     19  C   UNL     1      -6.837   0.985 132.980  0.00  0.00    +0.000 C 
ATOM     20  H   UNL     1      -6.324  -0.918 130.250  0.00  0.00    +0.000 HD
ENDBRANCH  12  14
ENDBRANCH   5  10
BRANCH   1  21
ATOM     21  O   UNL     1     -12.082   6.188 128.824  0.00  0.00    +0.000 OA
BRANCH  21  22
ATOM     22  S   UNL     1     -12.476   7.331 127.660  0.00  0.00    +0.000 S 
ATOM     23  O   UNL     1     -11.661   8.523 127.896  0.00  0.00    +0.000 OA
ATOM     24  O   UNL     1     -13.887   7.449 127.503  0.00  0.00    +0.000 OA
BRANCH  22  25
ATOM     25  O   UNL     1     -11.962   6.723 126.234  0.00  0.00    +0.000 OA
ATOM     26  H   UNL     1     -12.657   6.141 125.854  0.00  0.00    +0.000 HD
ENDBRANCH  22  25
ENDBRANCH  21  22
ENDBRANCH   1  21
TORSDOF 5
ENDMDL
MODEL 2
REMARK VINA RESULT:      -6.7      3.683      6.733
REMARK  Name = Relebactam
REMARK  5 active torsions:
REMARK  status: ('A' for Active; 'I' for Inactive)
REMARK    1  A    between atoms: O_1  and  S_2
REMARK    2  A    between atoms: S_2  and  O_5
REMARK    3  A    between atoms: O_5  and  N_6
REMARK    4  A    between atoms: C_10  and  C_13
REMARK    5  A    between atoms: N_15  and  C_16
REMARK                            x       y       z     vdW  Elec       q    Type
REMARK                         _______ _______ _______ _____ _____    ______ ____
ROOT
ATOM      1  N   UNL     1      -7.245   4.941 130.435  0.00  0.00    +0.000 N 
ATOM      2  C   UNL     1      -8.057   6.119 130.731  0.00  0.00    +0.000 C 
ATOM      3  C   UNL     1      -9.042   5.637 129.605  0.00  0.00    +0.000 C 
ATOM      4  N   UNL     1      -9.444   4.355 129.992  0.00  0.00    +0.000 N 
ATOM      5  C   UNL     1     -10.444   4.531 131.094  0.00  0.00    +0.000 C 
ATOM      6  C   UNL     1      -9.771   5.026 132.362  0.00  0.00    +0.000 C 
ATOM      7  C   UNL     1      -8.961   6.278 132.017  0.00  0.00    +0.000 C 
ATOM      8  C   UNL     1      -8.053   3.835 130.036  0.00  0.00    +0.000 C 
ATOM      9  O   UNL     1      -7.632   2.887 129.387  0.00  0.00    +0.000 OA
ENDROOT
BRANCH   5  10
ATOM     10  C   UNL     1     -11.488   5.717 130.834  0.00  0.00    +0.000 C 
ATOM     11  O   UNL     1     -12.080   6.303 131.743  0.00  0.00    +0.000 OA
ATOM     12  N   UNL     1     -11.860   6.008 129.563  0.00  0.00    +0.000 N 
ATOM     13  H   UNL     1     -11.541   5.408 128.817  0.00  0.00    +0.000 HD
BRANCH  12  14
ATOM     14  C   UNL     1     -12.817   7.103 129.273  0.00  0.00    +0.000 C 
ATOM     15  C   UNL     1     -12.238   8.529 129.438  0.00  0.00    +0.000 C 
ATOM     16  C   UNL     1     -11.033   8.688 128.518  0.00  0.00    +0.000 C 
ATOM     17  N   UNL     1     -11.452   8.536 127.124  0.00  0.00    +0.000 NA
ATOM     18  C   UNL     1     -12.075   7.230 126.883  0.00  0.00    +0.000 C 
ATOM     19  C   UNL     1     -13.265   6.980 127.816  0.00  0.00    +0.000 C 
ATOM     20  H   UNL     1     -10.632   8.635 126.526  0.00  0.00    +0.000 HD
ENDBRANCH  12  14
ENDBRANCH   5  10
BRANCH   1  21
ATOM     21  O   UNL     1      -6.126   5.335 129.583  0.00  0.00    +0.000 OA
BRANCH  21  22
ATOM     22  S   UNL     1      -4.848   6.225 130.211  0.00  0.00    +0.000 S 
ATOM     23  O   UNL     1      -4.624   5.792 131.591  0.00  0.00    +0.000 OA
ATOM     24  O   UNL     1      -4.982   7.612 129.910  0.00  0.00    +0.000 OA
BRANCH  22  25
ATOM     25  O   UNL     1      -3.520   5.761 129.384  0.00  0.00    +0.000 OA
ATOM     26  H   UNL     1      -2.722   5.887 129.943  0.00  0.00    +0.000 HD
ENDBRANCH  22  25
ENDBRANCH  21  22
ENDBRANCH   1  21
TORSDOF 5
ENDMDL
MODEL 3
REMARK VINA RESULT:      -6.4      5.201      6.665
REMARK  Name = Relebactam
REMARK  5 active torsions:
REMARK  status: ('A' for Active; 'I' for Inactive)
REMARK    1  A    between atoms: O_1  and  S_2
REMARK    2  A    between atoms: S_2  and  O_5
REMARK    3  A    between atoms: O_5  and  N_6
REMARK    4  A    between atoms: C_10  and  C_13
REMARK    5  A    between atoms: N_15  and  C_16
REMARK                            x       y       z     vdW  Elec       q    Type
REMARK                         _______ _______ _______ _____ _____    ______ ____
ROOT
ATOM      1  N   UNL     1      -7.642   3.191 127.789  0.00  0.00    +0.000 N 
ATOM      2  C   UNL     1      -7.106   1.879 128.145  0.00  0.00    +0.000 C 
ATOM      3  C   UNL     1      -7.935   1.292 126.946  0.00  0.00    +0.000 C 
ATOM      4  N   UNL     1      -7.488   1.983 125.816  0.00  0.00    +0.000 N 
ATOM      5  C   UNL     1      -6.152   1.407 125.458  0.00  0.00    +0.000 C 
ATOM      6  C   UNL     1      -5.101   1.800 126.481  0.00  0.00    +0.000 C 
ATOM      7  C   UNL     1      -5.620   1.420 127.870  0.00  0.00    +0.000 C 
ATOM      8  C   UNL     1      -7.837   3.312 126.380  0.00  0.00    +0.000 C 
ATOM      9  O   UNL     1      -8.600   4.120 125.869  0.00  0.00    +0.000 OA
ENDROOT
BRANCH   5  10
ATOM     10  C   UNL     1      -6.088  -0.189 125.570  0.00  0.00    +0.000 C 
ATOM     11  O   UNL     1      -5.133  -0.790 126.068  0.00  0.00    +0.000 OA
ATOM     12  N   UNL     1      -7.046  -0.937 124.970  0.00  0.00    +0.000 N 
ATOM     13  H   UNL     1      -7.726  -0.472 124.387  0.00  0.00    +0.000 HD
BRANCH  12  14
ATOM     14  C   UNL     1      -7.034  -2.417 125.054  0.00  0.00    +0.000 C 
ATOM     15  C   UNL     1      -7.964  -3.012 126.138  0.00  0.00    +0.000 C 
ATOM     16  C   UNL     1      -9.395  -2.559 125.871  0.00  0.00    +0.000 C 
ATOM     17  N   UNL     1      -9.840  -3.068 124.572  0.00  0.00    +0.000 NA
ATOM     18  C   UNL     1      -8.975  -2.607 123.482  0.00  0.00    +0.000 C 
ATOM     19  C   UNL     1      -7.506  -2.982 123.715  0.00  0.00    +0.000 C 
ATOM     20  H   UNL     1     -10.793  -2.747 124.407  0.00  0.00    +0.000 HD
ENDBRANCH  12  14
ENDBRANCH   5  10
BRANCH   1  21
ATOM     21  O   UNL     1      -8.754   3.510 128.680  0.00  0.00    +0.000 OA
BRANCH  21  22
ATOM     22  S   UNL     1      -8.912   5.049 129.332  0.00  0.00    +0.000 S 
ATOM     23  O   UNL     1      -7.574   5.547 129.653  0.00  0.00    +0.000 OA
ATOM     24  O   UNL     1      -9.947   5.096 130.310  0.00  0.00    +0.000 OA
BRANCH  22  25
ATOM     25  O   UNL     1      -9.457   6.001 128.123  0.00  0.00    +0.000 OA
ATOM     26  H   UNL     1      -8.973   5.790 127.294  0.00  0.00    +0.000 HD
ENDBRANCH  22  25
ENDBRANCH  21  22
ENDBRANCH   1  21
TORSDOF 5
ENDMDL
MODEL 4
REMARK VINA RESULT:      -6.3      7.155      8.591
REMARK  Name = Relebactam
REMARK  5 active torsions:
REMARK  status: ('A' for Active; 'I' for Inactive)
REMARK    1  A    between atoms: O_1  and  S_2
REMARK    2  A    between atoms: S_2  and  O_5
REMARK    3  A    between atoms: O_5  and  N_6
REMARK    4  A    between atoms: C_10  and  C_13
REMARK    5  A    between atoms: N_15  and  C_16
REMARK                            x       y       z     vdW  Elec       q    Type
REMARK                         _______ _______ _______ _____ _____    ______ ____
ROOT
ATOM      1  N   UNL     1      -9.028  -0.156 123.920  0.00  0.00    +0.000 N 
ATOM      2  C   UNL     1      -7.775   0.181 124.591  0.00  0.00    +0.000 C 
ATOM      3  C   UNL     1      -7.427   1.071 123.343  0.00  0.00    +0.000 C 
ATOM      4  N   UNL     1      -8.475   1.991 123.245  0.00  0.00    +0.000 N 
ATOM      5  C   UNL     1      -8.249   3.018 124.312  0.00  0.00    +0.000 C 
ATOM      6  C   UNL     1      -8.499   2.430 125.690  0.00  0.00    +0.000 C 
ATOM      7  C   UNL     1      -7.661   1.157 125.827  0.00  0.00    +0.000 C 
ATOM      8  C   UNL     1      -9.513   0.934 123.137  0.00  0.00    +0.000 C 
ATOM      9  O   UNL     1     -10.297   0.804 122.208  0.00  0.00    +0.000 OA
ENDROOT
BRANCH   5  10
ATOM     10  C   UNL     1      -6.720   3.469 124.460  0.00  0.00    +0.000 C 
ATOM     11  O   UNL     1      -5.982   3.670 123.493  0.00  0.00    +0.000 OA
ATOM     12  N   UNL     1      -6.150   3.497 125.690  0.00  0.00    +0.000 N 
ATOM     13  H   UNL     1      -6.679   3.143 126.474  0.00  0.00    +0.000 HD
BRANCH  12  14
ATOM     14  C   UNL     1      -4.741   3.916 125.877  0.00  0.00    +0.000 C 
ATOM     15  C   UNL     1      -4.533   5.046 126.915  0.00  0.00    +0.000 C 
ATOM     16  C   UNL     1      -5.081   4.592 128.263  0.00  0.00    +0.000 C 
ATOM     17  N   UNL     1      -4.341   3.418 128.727  0.00  0.00    +0.000 NA
ATOM     18  C   UNL     1      -4.426   2.309 127.772  0.00  0.00    +0.000 C 
ATOM     19  C   UNL     1      -3.941   2.713 126.376  0.00  0.00    +0.000 C 
ATOM     20  H   UNL     1      -4.728   3.124 129.623  0.00  0.00    +0.000 HD
ENDBRANCH  12  14
ENDBRANCH   5  10
BRANCH   1  21
ATOM     21  O   UNL     1      -8.894  -1.467 123.290  0.00  0.00    +0.000 OA
BRANCH  21  22
ATOM     22  S   UNL     1      -9.167  -2.870 124.172  0.00  0.00    +0.000 S 
ATOM     23  O   UNL     1      -9.802  -2.497 125.436  0.00  0.00    +0.000 OA
ATOM     24  O   UNL     1      -8.021  -3.717 124.169  0.00  0.00    +0.000 OA
BRANCH  22  25
ATOM     25  O   UNL     1     -10.294  -3.714 123.346  0.00  0.00    +0.000 OA
ATOM     26  H   UNL     1      -9.890  -4.532 122.978  0.00  0.00    +0.000 HD
ENDBRANCH  22  25
ENDBRANCH  21  22
ENDBRANCH   1  21
TORSDOF 5
ENDMDL
MODEL 5
REMARK VINA RESULT:      -6.2      2.755      3.649
REMARK  Name = Relebactam
REMARK  5 active torsions:
REMARK  status: ('A' for Active; 'I' for Inactive)
REMARK    1  A    between atoms: O_1  and  S_2
REMARK    2  A    between atoms: S_2  and  O_5
REMARK    3  A    between atoms: O_5  and  N_6
REMARK    4  A    between atoms: C_10  and  C_13
REMARK    5  A    between atoms: N_15  and  C_16
REMARK                            x       y       z     vdW  Elec       q    Type
REMARK                         _______ _______ _______ _____ _____    ______ ____
ROOT
ATOM      1  N   UNL     1      -9.931   6.222 130.463  0.00  0.00    +0.000 N 
ATOM      2  C   UNL     1      -9.060   6.559 131.586  0.00  0.00    +0.000 C 
ATOM      3  C   UNL     1      -9.876   5.522 132.440  0.00  0.00    +0.000 C 
ATOM      4  N   UNL     1      -9.755   4.308 131.758  0.00  0.00    +0.000 N 
ATOM      5  C   UNL     1      -8.379   3.788 132.044  0.00  0.00    +0.000 C 
ATOM      6  C   UNL     1      -7.326   4.628 131.343  0.00  0.00    +0.000 C 
ATOM      7  C   UNL     1      -7.556   6.094 131.718  0.00  0.00    +0.000 C 
ATOM      8  C   UNL     1     -10.330   4.853 130.501  0.00  0.00    +0.000 C 
ATOM      9  O   UNL     1     -11.322   4.420 129.931  0.00  0.00    +0.000 OA
ENDROOT
BRANCH   5  10
ATOM     10  C   UNL     1      -7.928   3.966 133.570  0.00  0.00    +0.000 C 
ATOM     11  O   UNL     1      -8.730   4.052 134.503  0.00  0.00    +0.000 OA
ATOM     12  N   UNL     1      -6.619   4.178 133.856  0.00  0.00    +0.000 N 
ATOM     13  H   UNL     1      -5.974   4.312 133.091  0.00  0.00    +0.000 HD
BRANCH  12  14
ATOM     14  C   UNL     1      -6.153   4.340 135.254  0.00  0.00    +0.000 C 
ATOM     15  C   UNL     1      -5.164   3.252 135.736  0.00  0.00    +0.000 C 
ATOM     16  C   UNL     1      -3.944   3.244 134.822  0.00  0.00    +0.000 C 
ATOM     17  N   UNL     1      -3.260   4.536 134.901  0.00  0.00    +0.000 NA
ATOM     18  C   UNL     1      -4.143   5.644 134.521  0.00  0.00    +0.000 C 
ATOM     19  C   UNL     1      -5.421   5.677 135.367  0.00  0.00    +0.000 C 
ATOM     20  H   UNL     1      -2.455   4.516 134.276  0.00  0.00    +0.000 HD
ENDBRANCH  12  14
ENDBRANCH   5  10
BRANCH   1  21
ATOM     21  O   UNL     1     -10.961   7.250 130.333  0.00  0.00    +0.000 OA
BRANCH  21  22
ATOM     22  S   UNL     1     -11.313   7.922 128.836  0.00  0.00    +0.000 S 
ATOM     23  O   UNL     1     -10.063   8.406 128.249  0.00  0.00    +0.000 OA
ATOM     24  O   UNL     1     -12.451   8.777 128.904  0.00  0.00    +0.000 OA
BRANCH  22  25
ATOM     25  O   UNL     1     -11.795   6.686 127.884  0.00  0.00    +0.000 OA
ATOM     26  H   UNL     1     -11.177   5.928 127.989  0.00  0.00    +0.000 HD
ENDBRANCH  22  25
ENDBRANCH  21  22
ENDBRANCH   1  21
TORSDOF 5
ENDMDL
MODEL 6
REMARK VINA RESULT:      -6.2      7.671     10.319
REMARK  Name = Relebactam
REMARK  5 active torsions:
REMARK  status: ('A' for Active; 'I' for Inactive)
REMARK    1  A    between atoms: O_1  and  S_2
REMARK    2  A    between atoms: S_2  and  O_5
REMARK    3  A    between atoms: O_5  and  N_6
REMARK    4  A    between atoms: C_10  and  C_13
REMARK    5  A    between atoms: N_15  and  C_16
REMARK                            x       y       z     vdW  Elec       q    Type
REMARK                         _______ _______ _______ _____ _____    ______ ____
ROOT
ATOM      1  N   UNL     1      -6.435  -2.556 125.807  0.00  0.00    +0.000 N 
ATOM      2  C   UNL     1      -7.540  -1.623 126.012  0.00  0.00    +0.000 C 
ATOM      3  C   UNL     1      -6.902  -0.729 124.887  0.00  0.00    +0.000 C 
ATOM      4  N   UNL     1      -6.837  -1.551 123.757  0.00  0.00    +0.000 N 
ATOM      5  C   UNL     1      -8.227  -1.635 123.205  0.00  0.00    +0.000 C 
ATOM      6  C   UNL     1      -9.123  -2.455 124.116  0.00  0.00    +0.000 C 
ATOM      7  C   UNL     1      -9.023  -1.879 125.530  0.00  0.00    +0.000 C 
ATOM      8  C   UNL     1      -6.016  -2.581 124.443  0.00  0.00    +0.000 C 
ATOM      9  O   UNL     1      -4.911  -2.962 124.081  0.00  0.00    +0.000 OA
ENDROOT
BRANCH   5  10
ATOM     10  C   UNL     1      -9.007  -0.237 123.207  0.00  0.00    +0.000 C 
ATOM     11  O   UNL     1     -10.226  -0.147 123.040  0.00  0.00    +0.000 OA
ATOM     12  N   UNL     1      -8.300   0.920 123.247  0.00  0.00    +0.000 N 
ATOM     13  H   UNL     1      -7.294   0.872 123.181  0.00  0.00    +0.000 HD
BRANCH  12  14
ATOM     14  C   UNL     1      -8.979   2.237 123.260  0.00  0.00    +0.000 C 
ATOM     15  C   UNL     1      -8.679   3.108 124.504  0.00  0.00    +0.000 C 
ATOM     16  C   UNL     1      -7.176   3.342 124.599  0.00  0.00    +0.000 C 
ATOM     17  N   UNL     1      -6.715   4.075 123.420  0.00  0.00    +0.000 NA
ATOM     18  C   UNL     1      -7.014   3.354 122.178  0.00  0.00    +0.000 C 
ATOM     19  C   UNL     1      -8.508   3.035 122.044  0.00  0.00    +0.000 C 
ATOM     20  H   UNL     1      -5.707   4.213 123.496  0.00  0.00    +0.000 HD
ENDBRANCH  12  14
ENDBRANCH   5  10
BRANCH   1  21
ATOM     21  O   UNL     1      -5.430  -2.340 126.845  0.00  0.00    +0.000 OA
BRANCH  21  22
ATOM     22  S   UNL     1      -5.864  -2.344 128.467  0.00  0.00    +0.000 S 
ATOM     23  O   UNL     1      -7.017  -3.231 128.628  0.00  0.00    +0.000 OA
ATOM     24  O   UNL     1      -5.897  -1.023 129.001  0.00  0.00    +0.000 OA
BRANCH  22  25
ATOM     25  O   UNL     1      -4.637  -3.069 129.264  0.00  0.00    +0.000 OA
ATOM     26  H   UNL     1      -4.015  -3.469 128.617  0.00  0.00    +0.000 HD
ENDBRANCH  22  25
ENDBRANCH  21  22
ENDBRANCH   1  21
TORSDOF 5
ENDMDL
MODEL 7
REMARK VINA RESULT:      -6.2      6.486      7.747
REMARK  Name = Relebactam
REMARK  5 active torsions:
REMARK  status: ('A' for Active; 'I' for Inactive)
REMARK    1  A    between atoms: O_1  and  S_2
REMARK    2  A    between atoms: S_2  and  O_5
REMARK    3  A    between atoms: O_5  and  N_6
REMARK    4  A    between atoms: C_10  and  C_13
REMARK    5  A    between atoms: N_15  and  C_16
REMARK                            x       y       z     vdW  Elec       q    Type
REMARK                         _______ _______ _______ _____ _____    ______ ____
ROOT
ATOM      1  N   UNL     1      -8.212   0.220 123.853  0.00  0.00    +0.000 N 
ATOM      2  C   UNL     1      -7.649   0.216 125.201  0.00  0.00    +0.000 C 
ATOM      3  C   UNL     1      -8.882  -0.654 125.638  0.00  0.00    +0.000 C 
ATOM      4  N   UNL     1      -8.839  -1.789 124.824  0.00  0.00    +0.000 N 
ATOM      5  C   UNL     1      -7.752  -2.667 125.365  0.00  0.00    +0.000 C 
ATOM      6  C   UNL     1      -6.384  -2.061 125.102  0.00  0.00    +0.000 C 
ATOM      7  C   UNL     1      -6.386  -0.627 125.636  0.00  0.00    +0.000 C 
ATOM      8  C   UNL     1      -8.895  -1.000 123.567  0.00  0.00    +0.000 C 
ATOM      9  O   UNL     1      -9.750  -1.110 122.699  0.00  0.00    +0.000 OA
ENDROOT
BRANCH   5  10
ATOM     10  C   UNL     1      -7.730  -2.755 126.964  0.00  0.00    +0.000 C 
ATOM     11  O   UNL     1      -8.749  -2.901 127.643  0.00  0.00    +0.000 OA
ATOM     12  N   UNL     1      -6.572  -2.516 127.628  0.00  0.00    +0.000 N 
ATOM     13  H   UNL     1      -5.772  -2.197 127.101  0.00  0.00    +0.000 HD
BRANCH  12  14
ATOM     14  C   UNL     1      -6.501  -2.595 129.106  0.00  0.00    +0.000 C 
ATOM     15  C   UNL     1      -5.299  -3.400 129.655  0.00  0.00    +0.000 C 
ATOM     16  C   UNL     1      -4.005  -2.775 129.146  0.00  0.00    +0.000 C 
ATOM     17  N   UNL     1      -3.890  -1.404 129.645  0.00  0.00    +0.000 NA
ATOM     18  C   UNL     1      -5.025  -0.575 129.227  0.00  0.00    +0.000 C 
ATOM     19  C   UNL     1      -6.367  -1.176 129.659  0.00  0.00    +0.000 C 
ATOM     20  H   UNL     1      -3.025  -1.000 129.286  0.00  0.00    +0.000 HD
ENDBRANCH  12  14
ENDBRANCH   5  10
BRANCH   1  21
ATOM     21  O   UNL     1      -8.911   1.483 123.632  0.00  0.00    +0.000 OA
BRANCH  21  22
ATOM     22  S   UNL     1      -8.126   2.777 122.904  0.00  0.00    +0.000 S 
ATOM     23  O   UNL     1      -8.916   3.197 121.746  0.00  0.00    +0.000 OA
ATOM     24  O   UNL     1      -6.730   2.527 122.765  0.00  0.00    +0.000 OA
BRANCH  22  25
ATOM     25  O   UNL     1      -8.209   4.015 123.966  0.00  0.00    +0.000 OA
ATOM     26  H   UNL     1      -7.306   4.235 124.286  0.00  0.00    +0.000 HD
ENDBRANCH  22  25
ENDBRANCH  21  22
ENDBRANCH   1  21
TORSDOF 5
ENDMDL
MODEL 8
REMARK VINA RESULT:      -6.2      6.663      8.465
REMARK  Name = Relebactam
REMARK  5 active torsions:
REMARK  status: ('A' for Active; 'I' for Inactive)
REMARK    1  A    between atoms: O_1  and  S_2
REMARK    2  A    between atoms: S_2  and  O_5
REMARK    3  A    between atoms: O_5  and  N_6
REMARK    4  A    between atoms: C_10  and  C_13
REMARK    5  A    between atoms: N_15  and  C_16
REMARK                            x       y       z     vdW  Elec       q    Type
REMARK                         _______ _______ _______ _____ _____    ______ ____
ROOT
ATOM      1  N   UNL     1      -6.859   2.913 125.423  0.00  0.00    +0.000 N 
ATOM      2  C   UNL     1      -6.763   2.057 124.244  0.00  0.00    +0.000 C 
ATOM      3  C   UNL     1      -7.636   1.006 125.021  0.00  0.00    +0.000 C 
ATOM      4  N   UNL     1      -8.819   1.677 125.343  0.00  0.00    +0.000 N 
ATOM      5  C   UNL     1      -9.632   1.746 124.086  0.00  0.00    +0.000 C 
ATOM      6  C   UNL     1      -9.007   2.708 123.090  0.00  0.00    +0.000 C 
ATOM      7  C   UNL     1      -7.543   2.309 122.894  0.00  0.00    +0.000 C 
ATOM      8  C   UNL     1      -8.113   2.752 126.087  0.00  0.00    +0.000 C 
ATOM      9  O   UNL     1      -8.300   3.041 127.260  0.00  0.00    +0.000 OA
ENDROOT
BRANCH   5  10
ATOM     10  C   UNL     1      -9.617   0.391 123.234  0.00  0.00    +0.000 C 
ATOM     11  O   UNL     1     -10.169   0.281 122.137  0.00  0.00    +0.000 OA
ATOM     12  N   UNL     1      -9.107  -0.738 123.787  0.00  0.00    +0.000 N 
ATOM     13  H   UNL     1      -8.833  -0.717 124.759  0.00  0.00    +0.000 HD
BRANCH  12  14
ATOM     14  C   UNL     1      -9.064  -2.013 123.034  0.00  0.00    +0.000 C 
ATOM     15  C   UNL     1      -7.705  -2.322 122.360  0.00  0.00    +0.000 C 
ATOM     16  C   UNL     1      -6.616  -2.358 123.426  0.00  0.00    +0.000 C 
ATOM     17  N   UNL     1      -6.895  -3.431 124.381  0.00  0.00    +0.000 NA
ATOM     18  C   UNL     1      -8.200  -3.259 125.028  0.00  0.00    +0.000 C 
ATOM     19  C   UNL     1      -9.339  -3.159 124.007  0.00  0.00    +0.000 C 
ATOM     20  H   UNL     1      -6.163  -3.433 125.091  0.00  0.00    +0.000 HD
ENDBRANCH  12  14
ENDBRANCH   5  10
BRANCH   1  21
ATOM     21  O   UNL     1      -5.631   2.789 126.205  0.00  0.00    +0.000 OA
BRANCH  21  22
ATOM     22  S   UNL     1      -4.768   4.155 126.660  0.00  0.00    +0.000 S 
ATOM     23  O   UNL     1      -5.534   5.334 126.256  0.00  0.00    +0.000 OA
ATOM     24  O   UNL     1      -3.391   4.041 126.308  0.00  0.00    +0.000 OA
BRANCH  22  25
ATOM     25  O   UNL     1      -4.766   4.169 128.292  0.00  0.00    +0.000 OA
ATOM     26  H   UNL     1      -3.841   4.229 128.621  0.00  0.00    +0.000 HD
ENDBRANCH  22  25
ENDBRANCH  21  22
ENDBRANCH   1  21
TORSDOF 5
ENDMDL
MODEL 9
REMARK VINA RESULT:      -6.2      3.287      4.827
REMARK  Name = Relebactam
REMARK  5 active torsions:
REMARK  status: ('A' for Active; 'I' for Inactive)
REMARK    1  A    between atoms: O_1  and  S_2
REMARK    2  A    between atoms: S_2  and  O_5
REMARK    3  A    between atoms: O_5  and  N_6
REMARK    4  A    between atoms: C_10  and  C_13
REMARK    5  A    between atoms: N_15  and  C_16
REMARK                            x       y       z     vdW  Elec       q    Type
REMARK                         _______ _______ _______ _____ _____    ______ ____
ROOT
ATOM      1  N   UNL     1     -10.225   6.101 130.614  0.00  0.00    +0.000 N 
ATOM      2  C   UNL     1      -9.161   5.738 129.681  0.00  0.00    +0.000 C 
ATOM      3  C   UNL     1      -8.140   6.306 130.733  0.00  0.00    +0.000 C 
ATOM      4  N   UNL     1      -8.371   5.574 131.901  0.00  0.00    +0.000 N 
ATOM      5  C   UNL     1      -7.745   4.228 131.698  0.00  0.00    +0.000 C 
ATOM      6  C   UNL     1      -8.528   3.416 130.680  0.00  0.00    +0.000 C 
ATOM      7  C   UNL     1      -8.681   4.257 129.412  0.00  0.00    +0.000 C 
ATOM      8  C   UNL     1      -9.802   5.964 131.970  0.00  0.00    +0.000 C 
ATOM      9  O   UNL     1     -10.334   6.543 132.908  0.00  0.00    +0.000 OA
ENDROOT
BRANCH   5  10
ATOM     10  C   UNL     1      -6.312   4.284 130.987  0.00  0.00    +0.000 C 
ATOM     11  O   UNL     1      -5.920   3.424 130.195  0.00  0.00    +0.000 OA
ATOM     12  N   UNL     1      -5.417   5.230 131.368  0.00  0.00    +0.000 N 
ATOM     13  H   UNL     1      -5.644   5.818 132.156  0.00  0.00    +0.000 HD
BRANCH  12  14
ATOM     14  C   UNL     1      -4.081   5.327 130.733  0.00  0.00    +0.000 C 
ATOM     15  C   UNL     1      -3.972   6.389 129.613  0.00  0.00    +0.000 C 
ATOM     16  C   UNL     1      -4.331   7.756 130.185  0.00  0.00    +0.000 C 
ATOM     17  N   UNL     1      -3.380   8.117 131.237  0.00  0.00    +0.000 NA
ATOM     18  C   UNL     1      -3.365   7.128 132.319  0.00  0.00    +0.000 C 
ATOM     19  C   UNL     1      -3.064   5.715 131.805  0.00  0.00    +0.000 C 
ATOM     20  H   UNL     1      -3.642   9.027 131.613  0.00  0.00    +0.000 HD
ENDBRANCH  12  14
ENDBRANCH   5  10
BRANCH   1  21
ATOM     21  O   UNL     1     -10.819   7.367 130.190  0.00  0.00    +0.000 OA
BRANCH  21  22
ATOM     22  S   UNL     1     -12.487   7.538 130.099  0.00  0.00    +0.000 S 
ATOM     23  O   UNL     1     -13.000   6.521 129.180  0.00  0.00    +0.000 OA
ATOM     24  O   UNL     1     -12.862   8.904 129.936  0.00  0.00    +0.000 OA
BRANCH  22  25
ATOM     25  O   UNL     1     -13.067   7.135 131.570  0.00  0.00    +0.000 OA
ATOM     26  H   UNL     1     -13.068   6.156 131.667  0.00  0.00    +0.000 HD
ENDBRANCH  22  25
ENDBRANCH  21  22
ENDBRANCH   1  21
TORSDOF 5
ENDMDL
