MODEL 1
REMARK VINA RESULT:      -9.3      0.000      0.000
REMARK  Name = Relugolix
REMARK  13 active torsions:
REMARK  status: ('A' for Active; 'I' for Inactive)
REMARK    1  A    between atoms: C_1  and  O_2
REMARK    2  A    between atoms: O_2  and  N_3
REMARK    3  A    between atoms: N_6  and  C_7
REMARK    4  A    between atoms: C_10  and  C_13
REMARK    5  A    between atoms: C_14  and  C_15
REMARK    6  A    between atoms: C_15  and  N_16
REMARK    7  A    between atoms: N_16  and  C_17
REMARK    8  A    between atoms: N_16  and  C_18
REMARK    9  A    between atoms: N_22  and  C_23
REMARK   10  A    between atoms: C_23  and  C_24
REMARK   11  A    between atoms: N_34  and  C_37
REMARK   12  A    between atoms: C_40  and  O_41
REMARK   13  A    between atoms: O_41  and  C_42
REMARK                            x       y       z     vdW  Elec       q    Type
REMARK                         _______ _______ _______ _____ _____    ______ ____
ROOT
ATOM      1  C   UNL     1      -8.597   2.354 129.712  0.00  0.00    +0.000 A 
ATOM      2  C   UNL     1      -8.127   1.456 130.666  0.00  0.00    +0.000 A 
ATOM      3  C   UNL     1      -7.590   0.257 130.059  0.00  0.00    +0.000 A 
ATOM      4  C   UNL     1      -7.352   0.386 128.727  0.00  0.00    +0.000 A 
ATOM      5  S   UNL     1      -8.129   1.789 128.119  0.00  0.00    +0.000 S 
ATOM      6  N   UNL     1      -6.596  -0.561 128.008  0.00  0.00    +0.000 N 
ATOM      7  C   UNL     1      -5.829  -1.509 128.779  0.00  0.00    +0.000 A 
ATOM      8  O   UNL     1      -5.010  -2.280 128.276  0.00  0.00    +0.000 OA
ATOM      9  N   UNL     1      -6.127  -1.630 130.133  0.00  0.00    +0.000 N 
ATOM     10  C   UNL     1      -7.202  -0.976 130.701  0.00  0.00    +0.000 A 
ATOM     11  O   UNL     1      -7.834  -1.375 131.684  0.00  0.00    +0.000 OA
ENDROOT
BRANCH   1  15
ATOM     12  C   UNL     1     -10.867   6.065 130.402  0.00  0.00    +0.000 A 
ATOM     13  C   UNL     1      -9.510   6.103 130.055  0.00  0.00    +0.000 A 
ATOM     14  C   UNL     1      -8.771   4.904 129.823  0.00  0.00    +0.000 A 
ATOM     15  C   UNL     1      -9.345   3.633 129.990  0.00  0.00    +0.000 A 
ATOM     16  C   UNL     1     -10.725   3.626 130.277  0.00  0.00    +0.000 A 
ATOM     17  C   UNL     1     -11.467   4.811 130.482  0.00  0.00    +0.000 A 
BRANCH  12  21
ATOM     18  N   UNL     1     -12.835   9.147 129.961  0.00  0.00    +0.000 N 
ATOM     19  C   UNL     1     -12.138   8.018 129.556  0.00  0.00    +0.000 C 
ATOM     20  O   UNL     1     -12.012   7.713 128.373  0.00  0.00    +0.000 OA
ATOM     21  N   UNL     1     -11.630   7.253 130.611  0.00  0.00    +0.000 N 
ATOM     22  H   UNL     1     -12.963   9.459 130.910  0.00  0.00    +0.000 HD
ATOM     23  H   UNL     1     -11.974   7.435 131.542  0.00  0.00    +0.000 HD
BRANCH  18  25
ATOM     24  C   UNL     1     -13.784  11.208 129.349  0.00  0.00    +0.000 C 
ATOM     25  O   UNL     1     -13.393   9.915 128.901  0.00  0.00    +0.000 OA
ENDBRANCH  18  25
ENDBRANCH  12  21
ENDBRANCH   1  15
BRANCH   9  26
ATOM     26  C   UNL     1      -5.516  -2.708 130.875  0.00  0.00    +0.000 A 
ATOM     27  C   UNL     1      -6.022  -3.998 130.743  0.00  0.00    +0.000 A 
ATOM     28  C   UNL     1      -5.585  -5.041 131.536  0.00  0.00    +0.000 A 
ATOM     29  C   UNL     1      -4.576  -4.802 132.428  0.00  0.00    +0.000 A 
ATOM     30  N   UNL     1      -4.018  -3.581 132.546  0.00  0.00    +0.000 NA
ATOM     31  N   UNL     1      -4.500  -2.517 131.754  0.00  0.00    +0.000 NA
BRANCH  29  32
ATOM     32  O   UNL     1      -4.187  -5.905 133.157  0.00  0.00    +0.000 OA
ATOM     33  C   UNL     1      -3.374  -5.621 134.276  0.00  0.00    +0.000 C 
ENDBRANCH  29  32
ENDBRANCH   9  26
BRANCH   2  34
ATOM     34  C   UNL     1      -8.202   1.718 132.148  0.00  0.00    +0.000 C 
BRANCH  34  35
ATOM     35  N   UNL     1      -7.014   2.403 132.618  0.00  0.00    +0.000 NA
ATOM     36  C   UNL     1      -7.189   3.763 133.114  0.00  0.00    +0.000 C 
ATOM     37  C   UNL     1      -6.203   1.594 133.499  0.00  0.00    +0.000 C 
ENDBRANCH  34  35
ENDBRANCH   2  34
BRANCH   6  38
ATOM     38  C   UNL     1      -6.527  -0.597 126.530  0.00  0.00    +0.000 C 
BRANCH  38  39
ATOM     39  C   UNL     1      -7.255  -1.722 125.836  0.00  0.00    +0.000 A 
ATOM     40  C   UNL     1      -8.646  -1.719 125.721  0.00  0.00    +0.000 A 
ATOM     41  F   UNL     1      -9.360  -0.712 126.244  0.00  0.00    +0.000 F 
ATOM     42  C   UNL     1      -9.316  -2.717 125.015  0.00  0.00    +0.000 A 
ATOM     43  C   UNL     1      -8.590  -3.666 124.292  0.00  0.00    +0.000 A 
ATOM     44  C   UNL     1      -7.198  -3.655 124.346  0.00  0.00    +0.000 A 
ATOM     45  C   UNL     1      -6.549  -2.725 125.155  0.00  0.00    +0.000 A 
ATOM     46  F   UNL     1      -5.206  -2.690 125.136  0.00  0.00    +0.000 F 
ENDBRANCH  38  39
ENDBRANCH   6  38
TORSDOF 9
ENDMDL
MODEL 2
REMARK VINA RESULT:      -8.6      1.067      1.401
REMARK  Name = Relugolix
REMARK  13 active torsions:
REMARK  status: ('A' for Active; 'I' for Inactive)
REMARK    1  A    between atoms: C_1  and  O_2
REMARK    2  A    between atoms: O_2  and  N_3
REMARK    3  A    between atoms: N_6  and  C_7
REMARK    4  A    between atoms: C_10  and  C_13
REMARK    5  A    between atoms: C_14  and  C_15
REMARK    6  A    between atoms: C_15  and  N_16
REMARK    7  A    between atoms: N_16  and  C_17
REMARK    8  A    between atoms: N_16  and  C_18
REMARK    9  A    between atoms: N_22  and  C_23
REMARK   10  A    between atoms: C_23  and  C_24
REMARK   11  A    between atoms: N_34  and  C_37
REMARK   12  A    between atoms: C_40  and  O_41
REMARK   13  A    between atoms: O_41  and  C_42
REMARK                            x       y       z     vdW  Elec       q    Type
REMARK                         _______ _______ _______ _____ _____    ______ ____
ROOT
ATOM      1  C   UNL     1      -8.199   1.864 129.552  0.00  0.00    +0.000 A 
ATOM      2  C   UNL     1      -7.720   1.064 130.585  0.00  0.00    +0.000 A 
ATOM      3  C   UNL     1      -7.138  -0.165 130.090  0.00  0.00    +0.000 A 
ATOM      4  C   UNL     1      -6.880  -0.142 128.757  0.00  0.00    +0.000 A 
ATOM      5  S   UNL     1      -7.686   1.181 128.020  0.00  0.00    +0.000 S 
ATOM      6  N   UNL     1      -6.084  -1.122 128.132  0.00  0.00    +0.000 N 
ATOM      7  C   UNL     1      -5.304  -1.978 128.993  0.00  0.00    +0.000 A 
ATOM      8  O   UNL     1      -4.454  -2.763 128.569  0.00  0.00    +0.000 OA
ATOM      9  N   UNL     1      -5.623  -1.994 130.347  0.00  0.00    +0.000 N 
ATOM     10  C   UNL     1      -6.726  -1.327 130.841  0.00  0.00    +0.000 A 
ATOM     11  O   UNL     1      -7.364  -1.661 131.844  0.00  0.00    +0.000 OA
ENDROOT
BRANCH   1  15
ATOM     12  C   UNL     1     -10.404   5.635 130.113  0.00  0.00    +0.000 A 
ATOM     13  C   UNL     1     -10.972   4.407 130.473  0.00  0.00    +0.000 A 
ATOM     14  C   UNL     1     -10.261   3.181 130.301  0.00  0.00    +0.000 A 
ATOM     15  C   UNL     1      -8.988   3.139 129.709  0.00  0.00    +0.000 A 
ATOM     16  C   UNL     1      -8.415   4.393 129.415  0.00  0.00    +0.000 A 
ATOM     17  C   UNL     1      -9.106   5.611 129.609  0.00  0.00    +0.000 A 
BRANCH  12  21
ATOM     18  N   UNL     1     -12.434   8.676 129.672  0.00  0.00    +0.000 N 
ATOM     19  C   UNL     1     -11.866   7.467 129.303  0.00  0.00    +0.000 C 
ATOM     20  O   UNL     1     -12.060   6.958 128.202  0.00  0.00    +0.000 OA
ATOM     21  N   UNL     1     -11.089   6.874 130.304  0.00  0.00    +0.000 N 
ATOM     22  H   UNL     1     -12.304   9.152 130.551  0.00  0.00    +0.000 HD
ATOM     23  H   UNL     1     -11.171   7.227 131.245  0.00  0.00    +0.000 HD
BRANCH  18  25
ATOM     24  C   UNL     1     -13.740  10.546 129.103  0.00  0.00    +0.000 C 
ATOM     25  O   UNL     1     -13.261   9.274 128.680  0.00  0.00    +0.000 OA
ENDBRANCH  18  25
ENDBRANCH  12  21
ENDBRANCH   1  15
BRANCH   9  26
ATOM     26  C   UNL     1      -4.995  -2.986 131.187  0.00  0.00    +0.000 A 
ATOM     27  C   UNL     1      -5.623  -4.214 131.377  0.00  0.00    +0.000 A 
ATOM     28  C   UNL     1      -5.154  -5.144 132.285  0.00  0.00    +0.000 A 
ATOM     29  C   UNL     1      -3.998  -4.867 132.962  0.00  0.00    +0.000 A 
ATOM     30  N   UNL     1      -3.327  -3.715 132.763  0.00  0.00    +0.000 NA
ATOM     31  N   UNL     1      -3.838  -2.760 131.859  0.00  0.00    +0.000 NA
BRANCH  29  32
ATOM     32  O   UNL     1      -3.593  -5.862 133.826  0.00  0.00    +0.000 OA
ATOM     33  C   UNL     1      -4.552  -6.237 134.792  0.00  0.00    +0.000 C 
ENDBRANCH  29  32
ENDBRANCH   9  26
BRANCH   2  34
ATOM     34  C   UNL     1      -7.829   1.447 132.039  0.00  0.00    +0.000 C 
BRANCH  34  35
ATOM     35  N   UNL     1      -6.549   1.881 132.563  0.00  0.00    +0.000 NA
ATOM     36  C   UNL     1      -6.124   3.235 132.230  0.00  0.00    +0.000 C 
ATOM     37  C   UNL     1      -6.377   1.576 133.965  0.00  0.00    +0.000 C 
ENDBRANCH  34  35
ENDBRANCH   2  34
BRANCH   6  38
ATOM     38  C   UNL     1      -5.987  -1.280 126.664  0.00  0.00    +0.000 C 
BRANCH  38  39
ATOM     39  C   UNL     1      -7.217  -1.776 125.944  0.00  0.00    +0.000 A 
ATOM     40  C   UNL     1      -7.470  -1.422 124.618  0.00  0.00    +0.000 A 
ATOM     41  F   UNL     1      -6.618  -0.618 123.965  0.00  0.00    +0.000 F 
ATOM     42  C   UNL     1      -8.564  -1.939 123.926  0.00  0.00    +0.000 A 
ATOM     43  C   UNL     1      -9.353  -2.930 124.512  0.00  0.00    +0.000 A 
ATOM     44  C   UNL     1      -9.087  -3.340 125.817  0.00  0.00    +0.000 A 
ATOM     45  C   UNL     1      -8.064  -2.725 126.535  0.00  0.00    +0.000 A 
ATOM     46  F   UNL     1      -7.782  -3.186 127.765  0.00  0.00    +0.000 F 
ENDBRANCH  38  39
ENDBRANCH   6  38
TORSDOF 9
ENDMDL
MODEL 3
REMARK VINA RESULT:      -8.3      4.901     10.933
REMARK  Name = Relugolix
REMARK  13 active torsions:
REMARK  status: ('A' for Active; 'I' for Inactive)
REMARK    1  A    between atoms: C_1  and  O_2
REMARK    2  A    between atoms: O_2  and  N_3
REMARK    3  A    between atoms: N_6  and  C_7
REMARK    4  A    between atoms: C_10  and  C_13
REMARK    5  A    between atoms: C_14  and  C_15
REMARK    6  A    between atoms: C_15  and  N_16
REMARK    7  A    between atoms: N_16  and  C_17
REMARK    8  A    between atoms: N_16  and  C_18
REMARK    9  A    between atoms: N_22  and  C_23
REMARK   10  A    between atoms: C_23  and  C_24
REMARK   11  A    between atoms: N_34  and  C_37
REMARK   12  A    between atoms: C_40  and  O_41
REMARK   13  A    between atoms: O_41  and  C_42
REMARK                            x       y       z     vdW  Elec       q    Type
REMARK                         _______ _______ _______ _____ _____    ______ ____
ROOT
ATOM      1  C   UNL     1      -6.259  -0.199 127.481  0.00  0.00    +0.000 A 
ATOM      2  C   UNL     1      -6.425  -0.155 126.100  0.00  0.00    +0.000 A 
ATOM      3  C   UNL     1      -6.747   1.178 125.638  0.00  0.00    +0.000 A 
ATOM      4  C   UNL     1      -6.499   2.144 126.560  0.00  0.00    +0.000 A 
ATOM      5  S   UNL     1      -6.259   1.441 128.106  0.00  0.00    +0.000 S 
ATOM      6  N   UNL     1      -6.494   3.513 126.226  0.00  0.00    +0.000 N 
ATOM      7  C   UNL     1      -6.460   3.845 124.822  0.00  0.00    +0.000 A 
ATOM      8  O   UNL     1      -6.295   4.992 124.406  0.00  0.00    +0.000 OA
ATOM      9  N   UNL     1      -6.750   2.831 123.913  0.00  0.00    +0.000 N 
ATOM     10  C   UNL     1      -7.189   1.589 124.326  0.00  0.00    +0.000 A 
ATOM     11  O   UNL     1      -7.919   0.842 123.669  0.00  0.00    +0.000 OA
ENDROOT
BRANCH   1  15
ATOM     12  C   UNL     1      -5.704  -3.744 130.035  0.00  0.00    +0.000 A 
ATOM     13  C   UNL     1      -4.633  -3.198 129.316  0.00  0.00    +0.000 A 
ATOM     14  C   UNL     1      -4.804  -2.044 128.492  0.00  0.00    +0.000 A 
ATOM     15  C   UNL     1      -6.059  -1.440 128.313  0.00  0.00    +0.000 A 
ATOM     16  C   UNL     1      -7.104  -1.971 129.096  0.00  0.00    +0.000 A 
ATOM     17  C   UNL     1      -6.932  -3.096 129.933  0.00  0.00    +0.000 A 
BRANCH  12  21
ATOM     18  N   UNL     1      -5.001  -5.991 132.867  0.00  0.00    +0.000 N 
ATOM     19  C   UNL     1      -5.111  -4.775 132.210  0.00  0.00    +0.000 C 
ATOM     20  O   UNL     1      -4.873  -3.705 132.765  0.00  0.00    +0.000 OA
ATOM     21  N   UNL     1      -5.546  -4.880 130.885  0.00  0.00    +0.000 N 
ATOM     22  H   UNL     1      -5.168  -6.901 132.467  0.00  0.00    +0.000 HD
ATOM     23  H   UNL     1      -5.944  -5.756 130.581  0.00  0.00    +0.000 HD
BRANCH  18  25
ATOM     24  C   UNL     1      -5.711  -6.032 135.107  0.00  0.00    +0.000 C 
ATOM     25  O   UNL     1      -4.599  -5.900 134.229  0.00  0.00    +0.000 OA
ENDBRANCH  18  25
ENDBRANCH  12  21
ENDBRANCH   1  15
BRANCH   9  26
ATOM     26  C   UNL     1      -6.920   3.186 122.524  0.00  0.00    +0.000 A 
ATOM     27  C   UNL     1      -5.794   3.415 121.738  0.00  0.00    +0.000 A 
ATOM     28  C   UNL     1      -5.888   3.905 120.449  0.00  0.00    +0.000 A 
ATOM     29  C   UNL     1      -7.132   4.101 119.916  0.00  0.00    +0.000 A 
ATOM     30  N   UNL     1      -8.249   3.835 120.624  0.00  0.00    +0.000 NA
ATOM     31  N   UNL     1      -8.136   3.370 121.951  0.00  0.00    +0.000 NA
BRANCH  29  32
ATOM     32  O   UNL     1      -7.129   4.566 118.619  0.00  0.00    +0.000 OA
ATOM     33  C   UNL     1      -6.124   5.515 118.330  0.00  0.00    +0.000 C 
ENDBRANCH  29  32
ENDBRANCH   9  26
BRANCH   2  34
ATOM     34  C   UNL     1      -6.303  -1.372 125.220  0.00  0.00    +0.000 C 
BRANCH  34  35
ATOM     35  N   UNL     1      -7.387  -2.304 125.462  0.00  0.00    +0.000 NA
ATOM     36  C   UNL     1      -8.722  -1.739 125.611  0.00  0.00    +0.000 C 
ATOM     37  C   UNL     1      -7.364  -3.443 124.574  0.00  0.00    +0.000 C 
ENDBRANCH  34  35
ENDBRANCH   2  34
BRANCH   6  38
ATOM     38  C   UNL     1      -6.483   4.598 127.233  0.00  0.00    +0.000 C 
BRANCH  38  39
ATOM     39  C   UNL     1      -5.268   4.698 128.122  0.00  0.00    +0.000 A 
ATOM     40  C   UNL     1      -5.387   4.680 129.512  0.00  0.00    +0.000 A 
ATOM     41  F   UNL     1      -6.599   4.587 130.080  0.00  0.00    +0.000 F 
ATOM     42  C   UNL     1      -4.262   4.695 130.336  0.00  0.00    +0.000 A 
ATOM     43  C   UNL     1      -2.988   4.590 129.776  0.00  0.00    +0.000 A 
ATOM     44  C   UNL     1      -2.846   4.550 128.390  0.00  0.00    +0.000 A 
ATOM     45  C   UNL     1      -3.974   4.659 127.580  0.00  0.00    +0.000 A 
ATOM     46  F   UNL     1      -3.819   4.548 126.251  0.00  0.00    +0.000 F 
ENDBRANCH  38  39
ENDBRANCH   6  38
TORSDOF 9
ENDMDL
MODEL 4
REMARK VINA RESULT:      -8.2      2.788      4.001
REMARK  Name = Relugolix
REMARK  13 active torsions:
REMARK  status: ('A' for Active; 'I' for Inactive)
REMARK    1  A    between atoms: C_1  and  O_2
REMARK    2  A    between atoms: O_2  and  N_3
REMARK    3  A    between atoms: N_6  and  C_7
REMARK    4  A    between atoms: C_10  and  C_13
REMARK    5  A    between atoms: C_14  and  C_15
REMARK    6  A    between atoms: C_15  and  N_16
REMARK    7  A    between atoms: N_16  and  C_17
REMARK    8  A    between atoms: N_16  and  C_18
REMARK    9  A    between atoms: N_22  and  C_23
REMARK   10  A    between atoms: C_23  and  C_24
REMARK   11  A    between atoms: N_34  and  C_37
REMARK   12  A    between atoms: C_40  and  O_41
REMARK   13  A    between atoms: O_41  and  C_42
REMARK                            x       y       z     vdW  Elec       q    Type
REMARK                         _______ _______ _______ _____ _____    ______ ____
ROOT
ATOM      1  C   UNL     1      -7.026   1.042 132.193  0.00  0.00    +0.000 A 
ATOM      2  C   UNL     1      -5.877   0.892 132.965  0.00  0.00    +0.000 A 
ATOM      3  C   UNL     1      -5.377  -0.466 132.929  0.00  0.00    +0.000 A 
ATOM      4  C   UNL     1      -5.908  -1.210 131.925  0.00  0.00    +0.000 A 
ATOM      5  S   UNL     1      -7.285  -0.427 131.269  0.00  0.00    +0.000 S 
ATOM      6  N   UNL     1      -5.369  -2.459 131.555  0.00  0.00    +0.000 N 
ATOM      7  C   UNL     1      -4.061  -2.786 132.069  0.00  0.00    +0.000 A 
ATOM      8  O   UNL     1      -3.419  -3.769 131.697  0.00  0.00    +0.000 OA
ATOM      9  N   UNL     1      -3.569  -2.016 133.119  0.00  0.00    +0.000 N 
ATOM     10  C   UNL     1      -4.346  -1.062 133.745  0.00  0.00    +0.000 A 
ATOM     11  O   UNL     1      -4.223  -0.711 134.922  0.00  0.00    +0.000 OA
ENDROOT
BRANCH   1  15
ATOM     12  C   UNL     1      -9.667   4.557 131.952  0.00  0.00    +0.000 A 
ATOM     13  C   UNL     1      -8.746   4.276 130.935  0.00  0.00    +0.000 A 
ATOM     14  C   UNL     1      -7.892   3.135 131.004  0.00  0.00    +0.000 A 
ATOM     15  C   UNL     1      -7.888   2.275 132.114  0.00  0.00    +0.000 A 
ATOM     16  C   UNL     1      -8.868   2.545 133.091  0.00  0.00    +0.000 A 
ATOM     17  C   UNL     1      -9.734   3.660 133.014  0.00  0.00    +0.000 A 
BRANCH  12  21
ATOM     18  N   UNL     1     -12.249   6.996 130.975  0.00  0.00    +0.000 N 
ATOM     19  C   UNL     1     -11.502   5.832 130.876  0.00  0.00    +0.000 C 
ATOM     20  O   UNL     1     -11.693   5.002 129.990  0.00  0.00    +0.000 OA
ATOM     21  N   UNL     1     -10.549   5.679 131.888  0.00  0.00    +0.000 N 
ATOM     22  H   UNL     1     -12.135   7.720 131.666  0.00  0.00    +0.000 HD
ATOM     23  H   UNL     1     -10.615   6.273 132.701  0.00  0.00    +0.000 HD
BRANCH  18  25
ATOM     24  C   UNL     1     -12.880   8.129 129.015  0.00  0.00    +0.000 C 
ATOM     25  O   UNL     1     -13.251   7.148 129.977  0.00  0.00    +0.000 OA
ENDBRANCH  18  25
ENDBRANCH  12  21
ENDBRANCH   1  15
BRANCH   9  26
ATOM     26  C   UNL     1      -2.360  -2.449 133.777  0.00  0.00    +0.000 A 
ATOM     27  C   UNL     1      -2.426  -3.470 134.721  0.00  0.00    +0.000 A 
ATOM     28  C   UNL     1      -1.338  -3.824 135.495  0.00  0.00    +0.000 A 
ATOM     29  C   UNL     1      -0.146  -3.193 135.270  0.00  0.00    +0.000 A 
ATOM     30  N   UNL     1      -0.024  -2.240 134.324  0.00  0.00    +0.000 NA
ATOM     31  N   UNL     1      -1.154  -1.863 133.567  0.00  0.00    +0.000 NA
BRANCH  29  32
ATOM     32  O   UNL     1       0.889  -3.629 136.069  0.00  0.00    +0.000 OA
ATOM     33  C   UNL     1       0.681  -3.459 137.455  0.00  0.00    +0.000 C 
ENDBRANCH  29  32
ENDBRANCH   9  26
BRANCH   2  34
ATOM     34  C   UNL     1      -5.264   2.022 133.752  0.00  0.00    +0.000 C 
BRANCH  34  35
ATOM     35  N   UNL     1      -4.309   2.760 132.948  0.00  0.00    +0.000 NA
ATOM     36  C   UNL     1      -4.604   4.164 132.697  0.00  0.00    +0.000 C 
ATOM     37  C   UNL     1      -2.939   2.547 133.358  0.00  0.00    +0.000 C 
ENDBRANCH  34  35
ENDBRANCH   2  34
BRANCH   6  38
ATOM     38  C   UNL     1      -6.057  -3.410 130.653  0.00  0.00    +0.000 C 
BRANCH  38  39
ATOM     39  C   UNL     1      -6.338  -2.940 129.247  0.00  0.00    +0.000 A 
ATOM     40  C   UNL     1      -5.303  -2.556 128.393  0.00  0.00    +0.000 A 
ATOM     41  F   UNL     1      -4.033  -2.588 128.823  0.00  0.00    +0.000 F 
ATOM     42  C   UNL     1      -5.552  -2.195 127.070  0.00  0.00    +0.000 A 
ATOM     43  C   UNL     1      -6.834  -2.344 126.537  0.00  0.00    +0.000 A 
ATOM     44  C   UNL     1      -7.874  -2.779 127.356  0.00  0.00    +0.000 A 
ATOM     45  C   UNL     1      -7.631  -3.019 128.706  0.00  0.00    +0.000 A 
ATOM     46  F   UNL     1      -8.632  -3.504 129.459  0.00  0.00    +0.000 F 
ENDBRANCH  38  39
ENDBRANCH   6  38
TORSDOF 9
ENDMDL
MODEL 5
REMARK VINA RESULT:      -8.2      4.207      7.213
REMARK  Name = Relugolix
REMARK  13 active torsions:
REMARK  status: ('A' for Active; 'I' for Inactive)
REMARK    1  A    between atoms: C_1  and  O_2
REMARK    2  A    between atoms: O_2  and  N_3
REMARK    3  A    between atoms: N_6  and  C_7
REMARK    4  A    between atoms: C_10  and  C_13
REMARK    5  A    between atoms: C_14  and  C_15
REMARK    6  A    between atoms: C_15  and  N_16
REMARK    7  A    between atoms: N_16  and  C_17
REMARK    8  A    between atoms: N_16  and  C_18
REMARK    9  A    between atoms: N_22  and  C_23
REMARK   10  A    between atoms: C_23  and  C_24
REMARK   11  A    between atoms: N_34  and  C_37
REMARK   12  A    between atoms: C_40  and  O_41
REMARK   13  A    between atoms: O_41  and  C_42
REMARK                            x       y       z     vdW  Elec       q    Type
REMARK                         _______ _______ _______ _____ _____    ______ ____
ROOT
ATOM      1  C   UNL     1      -7.543   1.028 127.242  0.00  0.00    +0.000 A 
ATOM      2  C   UNL     1      -6.670   0.010 127.613  0.00  0.00    +0.000 A 
ATOM      3  C   UNL     1      -6.718  -0.250 129.036  0.00  0.00    +0.000 A 
ATOM      4  C   UNL     1      -7.803   0.293 129.648  0.00  0.00    +0.000 A 
ATOM      5  S   UNL     1      -8.555   1.438 128.616  0.00  0.00    +0.000 S 
ATOM      6  N   UNL     1      -8.174  -0.058 130.961  0.00  0.00    +0.000 N 
ATOM      7  C   UNL     1      -7.549  -1.230 131.527  0.00  0.00    +0.000 A 
ATOM      8  O   UNL     1      -7.901  -1.728 132.598  0.00  0.00    +0.000 OA
ATOM      9  N   UNL     1      -6.422  -1.734 130.885  0.00  0.00    +0.000 N 
ATOM     10  C   UNL     1      -5.832  -1.071 129.827  0.00  0.00    +0.000 A 
ATOM     11  O   UNL     1      -4.635  -1.129 129.536  0.00  0.00    +0.000 OA
ENDROOT
BRANCH   1  15
ATOM     12  C   UNL     1      -7.963   2.944 123.299  0.00  0.00    +0.000 A 
ATOM     13  C   UNL     1      -8.317   1.602 123.491  0.00  0.00    +0.000 A 
ATOM     14  C   UNL     1      -8.191   0.977 124.768  0.00  0.00    +0.000 A 
ATOM     15  C   UNL     1      -7.650   1.652 125.874  0.00  0.00    +0.000 A 
ATOM     16  C   UNL     1      -7.361   3.017 125.669  0.00  0.00    +0.000 A 
ATOM     17  C   UNL     1      -7.510   3.646 124.413  0.00  0.00    +0.000 A 
BRANCH  12  21
ATOM     18  N   UNL     1      -7.405   4.338 119.936  0.00  0.00    +0.000 N 
ATOM     19  C   UNL     1      -7.078   3.644 121.091  0.00  0.00    +0.000 C 
ATOM     20  O   UNL     1      -5.987   3.101 121.245  0.00  0.00    +0.000 OA
ATOM     21  N   UNL     1      -8.108   3.594 122.036  0.00  0.00    +0.000 N 
ATOM     22  H   UNL     1      -8.273   4.815 119.753  0.00  0.00    +0.000 HD
ATOM     23  H   UNL     1      -9.038   3.853 121.743  0.00  0.00    +0.000 HD
BRANCH  18  25
ATOM     24  C   UNL     1      -5.845   5.672 118.792  0.00  0.00    +0.000 C 
ATOM     25  O   UNL     1      -6.383   4.363 118.946  0.00  0.00    +0.000 OA
ENDBRANCH  18  25
ENDBRANCH  12  21
ENDBRANCH   1  15
BRANCH   9  26
ATOM     26  C   UNL     1      -5.668  -2.775 131.542  0.00  0.00    +0.000 A 
ATOM     27  C   UNL     1      -5.833  -4.096 131.135  0.00  0.00    +0.000 A 
ATOM     28  C   UNL     1      -5.261  -5.151 131.821  0.00  0.00    +0.000 A 
ATOM     29  C   UNL     1      -4.454  -4.872 132.888  0.00  0.00    +0.000 A 
ATOM     30  N   UNL     1      -4.220  -3.602 133.278  0.00  0.00    +0.000 NA
ATOM     31  N   UNL     1      -4.840  -2.538 132.591  0.00  0.00    +0.000 NA
BRANCH  29  32
ATOM     32  O   UNL     1      -3.906  -5.982 133.493  0.00  0.00    +0.000 OA
ATOM     33  C   UNL     1      -2.592  -5.806 133.979  0.00  0.00    +0.000 C 
ENDBRANCH  29  32
ENDBRANCH   9  26
BRANCH   2  34
ATOM     34  C   UNL     1      -5.776  -0.703 126.632  0.00  0.00    +0.000 C 
BRANCH  34  35
ATOM     35  N   UNL     1      -6.255  -2.046 126.367  0.00  0.00    +0.000 NA
ATOM     36  C   UNL     1      -7.687  -2.275 126.509  0.00  0.00    +0.000 C 
ATOM     37  C   UNL     1      -5.723  -2.608 125.147  0.00  0.00    +0.000 C 
ENDBRANCH  34  35
ENDBRANCH   2  34
BRANCH   6  38
ATOM     38  C   UNL     1      -9.182   0.684 131.750  0.00  0.00    +0.000 C 
BRANCH  38  39
ATOM     39  C   UNL     1      -8.789   2.051 132.255  0.00  0.00    +0.000 A 
ATOM     40  C   UNL     1      -9.508   3.190 131.890  0.00  0.00    +0.000 A 
ATOM     41  F   UNL     1     -10.561   3.082 131.067  0.00  0.00    +0.000 F 
ATOM     42  C   UNL     1      -9.194   4.443 132.414  0.00  0.00    +0.000 A 
ATOM     43  C   UNL     1      -8.235   4.556 133.422  0.00  0.00    +0.000 A 
ATOM     44  C   UNL     1      -7.542   3.423 133.843  0.00  0.00    +0.000 A 
ATOM     45  C   UNL     1      -7.783   2.200 133.222  0.00  0.00    +0.000 A 
ATOM     46  F   UNL     1      -7.154   1.110 133.692  0.00  0.00    +0.000 F 
ENDBRANCH  38  39
ENDBRANCH   6  38
TORSDOF 9
ENDMDL
MODEL 6
REMARK VINA RESULT:      -8.2      2.530      3.139
REMARK  Name = Relugolix
REMARK  13 active torsions:
REMARK  status: ('A' for Active; 'I' for Inactive)
REMARK    1  A    between atoms: C_1  and  O_2
REMARK    2  A    between atoms: O_2  and  N_3
REMARK    3  A    between atoms: N_6  and  C_7
REMARK    4  A    between atoms: C_10  and  C_13
REMARK    5  A    between atoms: C_14  and  C_15
REMARK    6  A    between atoms: C_15  and  N_16
REMARK    7  A    between atoms: N_16  and  C_17
REMARK    8  A    between atoms: N_16  and  C_18
REMARK    9  A    between atoms: N_22  and  C_23
REMARK   10  A    between atoms: C_23  and  C_24
REMARK   11  A    between atoms: N_34  and  C_37
REMARK   12  A    between atoms: C_40  and  O_41
REMARK   13  A    between atoms: O_41  and  C_42
REMARK                            x       y       z     vdW  Elec       q    Type
REMARK                         _______ _______ _______ _____ _____    ______ ____
ROOT
ATOM      1  C   UNL     1      -7.156   1.670 130.654  0.00  0.00    +0.000 A 
ATOM      2  C   UNL     1      -6.384   1.334 131.762  0.00  0.00    +0.000 A 
ATOM      3  C   UNL     1      -5.668   0.092 131.565  0.00  0.00    +0.000 A 
ATOM      4  C   UNL     1      -5.628  -0.307 130.267  0.00  0.00    +0.000 A 
ATOM      5  S   UNL     1      -6.768   0.576 129.338  0.00  0.00    +0.000 S 
ATOM      6  N   UNL     1      -4.770  -1.335 129.827  0.00  0.00    +0.000 N 
ATOM      7  C   UNL     1      -3.722  -1.745 130.731  0.00  0.00    +0.000 A 
ATOM      8  O   UNL     1      -2.818  -2.516 130.406  0.00  0.00    +0.000 OA
ATOM      9  N   UNL     1      -3.820  -1.338 132.058  0.00  0.00    +0.000 N 
ATOM     10  C   UNL     1      -4.938  -0.686 132.537  0.00  0.00    +0.000 A 
ATOM     11  O   UNL     1      -5.341  -0.735 133.703  0.00  0.00    +0.000 OA
ENDROOT
BRANCH   1  15
ATOM     12  C   UNL     1      -9.942   5.079 130.516  0.00  0.00    +0.000 A 
ATOM     13  C   UNL     1     -10.392   3.791 130.835  0.00  0.00    +0.000 A 
ATOM     14  C   UNL     1      -9.493   2.684 130.889  0.00  0.00    +0.000 A 
ATOM     15  C   UNL     1      -8.133   2.815 130.566  0.00  0.00    +0.000 A 
ATOM     16  C   UNL     1      -7.696   4.130 130.311  0.00  0.00    +0.000 A 
ATOM     17  C   UNL     1      -8.578   5.234 130.282  0.00  0.00    +0.000 A 
BRANCH  12  21
ATOM     18  N   UNL     1     -11.991   7.958 129.478  0.00  0.00    +0.000 N 
ATOM     19  C   UNL     1     -11.138   6.879 129.301  0.00  0.00    +0.000 C 
ATOM     20  O   UNL     1     -10.729   6.539 128.193  0.00  0.00    +0.000 OA
ATOM     21  N   UNL     1     -10.820   6.204 130.484  0.00  0.00    +0.000 N 
ATOM     22  H   UNL     1     -12.350   8.295 130.356  0.00  0.00    +0.000 HD
ATOM     23  H   UNL     1     -11.375   6.392 131.305  0.00  0.00    +0.000 HD
BRANCH  18  25
ATOM     24  C   UNL     1     -13.453   9.514 128.495  0.00  0.00    +0.000 C 
ATOM     25  O   UNL     1     -12.357   8.631 128.279  0.00  0.00    +0.000 OA
ENDBRANCH  18  25
ENDBRANCH  12  21
ENDBRANCH   1  15
BRANCH   9  26
ATOM     26  C   UNL     1      -2.897  -1.900 133.016  0.00  0.00    +0.000 A 
ATOM     27  C   UNL     1      -1.908  -1.090 133.565  0.00  0.00    +0.000 A 
ATOM     28  C   UNL     1      -0.903  -1.600 134.366  0.00  0.00    +0.000 A 
ATOM     29  C   UNL     1      -0.932  -2.932 134.677  0.00  0.00    +0.000 A 
ATOM     30  N   UNL     1      -1.908  -3.740 134.214  0.00  0.00    +0.000 NA
ATOM     31  N   UNL     1      -2.905  -3.211 133.368  0.00  0.00    +0.000 NA
BRANCH  29  32
ATOM     32  O   UNL     1       0.092  -3.346 135.501  0.00  0.00    +0.000 OA
ATOM     33  C   UNL     1       0.352  -2.496 136.598  0.00  0.00    +0.000 C 
ENDBRANCH  29  32
ENDBRANCH   9  26
BRANCH   2  34
ATOM     34  C   UNL     1      -6.337   2.172 133.014  0.00  0.00    +0.000 C 
BRANCH  34  35
ATOM     35  N   UNL     1      -5.180   3.046 133.015  0.00  0.00    +0.000 NA
ATOM     36  C   UNL     1      -5.435   4.479 133.095  0.00  0.00    +0.000 C 
ATOM     37  C   UNL     1      -4.145   2.617 133.928  0.00  0.00    +0.000 C 
ENDBRANCH  34  35
ENDBRANCH   2  34
BRANCH   6  38
ATOM     38  C   UNL     1      -4.874  -1.970 128.494  0.00  0.00    +0.000 C 
BRANCH  38  39
ATOM     39  C   UNL     1      -6.208  -2.566 128.119  0.00  0.00    +0.000 A 
ATOM     40  C   UNL     1      -6.941  -3.327 129.030  0.00  0.00    +0.000 A 
ATOM     41  F   UNL     1      -6.456  -3.550 130.260  0.00  0.00    +0.000 F 
ATOM     42  C   UNL     1      -8.208  -3.815 128.713  0.00  0.00    +0.000 A 
ATOM     43  C   UNL     1      -8.822  -3.432 127.519  0.00  0.00    +0.000 A 
ATOM     44  C   UNL     1      -8.131  -2.626 126.616  0.00  0.00    +0.000 A 
ATOM     45  C   UNL     1      -6.820  -2.249 126.897  0.00  0.00    +0.000 A 
ATOM     46  F   UNL     1      -6.200  -1.415 126.045  0.00  0.00    +0.000 F 
ENDBRANCH  38  39
ENDBRANCH   6  38
TORSDOF 9
ENDMDL
MODEL 7
REMARK VINA RESULT:      -7.9      4.124     10.107
REMARK  Name = Relugolix
REMARK  13 active torsions:
REMARK  status: ('A' for Active; 'I' for Inactive)
REMARK    1  A    between atoms: C_1  and  O_2
REMARK    2  A    between atoms: O_2  and  N_3
REMARK    3  A    between atoms: N_6  and  C_7
REMARK    4  A    between atoms: C_10  and  C_13
REMARK    5  A    between atoms: C_14  and  C_15
REMARK    6  A    between atoms: C_15  and  N_16
REMARK    7  A    between atoms: N_16  and  C_17
REMARK    8  A    between atoms: N_16  and  C_18
REMARK    9  A    between atoms: N_22  and  C_23
REMARK   10  A    between atoms: C_23  and  C_24
REMARK   11  A    between atoms: N_34  and  C_37
REMARK   12  A    between atoms: C_40  and  O_41
REMARK   13  A    between atoms: O_41  and  C_42
REMARK                            x       y       z     vdW  Elec       q    Type
REMARK                         _______ _______ _______ _____ _____    ______ ____
ROOT
ATOM      1  C   UNL     1      -7.653   0.394 131.611  0.00  0.00    +0.000 A 
ATOM      2  C   UNL     1      -7.519   0.210 130.237  0.00  0.00    +0.000 A 
ATOM      3  C   UNL     1      -7.928   1.383 129.494  0.00  0.00    +0.000 A 
ATOM      4  C   UNL     1      -8.035   2.499 130.261  0.00  0.00    +0.000 A 
ATOM      5  S   UNL     1      -8.035   2.078 131.924  0.00  0.00    +0.000 S 
ATOM      6  N   UNL     1      -8.162   3.784 129.698  0.00  0.00    +0.000 N 
ATOM      7  C   UNL     1      -7.872   3.913 128.290  0.00  0.00    +0.000 A 
ATOM      8  O   UNL     1      -7.794   5.001 127.717  0.00  0.00    +0.000 OA
ATOM      9  N   UNL     1      -7.803   2.745 127.536  0.00  0.00    +0.000 N 
ATOM     10  C   UNL     1      -8.130   1.516 128.071  0.00  0.00    +0.000 A 
ATOM     11  O   UNL     1      -8.578   0.562 127.428  0.00  0.00    +0.000 OA
ENDROOT
BRANCH   1  15
ATOM     12  C   UNL     1      -6.945  -2.720 134.643  0.00  0.00    +0.000 A 
ATOM     13  C   UNL     1      -8.007  -2.824 133.737  0.00  0.00    +0.000 A 
ATOM     14  C   UNL     1      -8.238  -1.822 132.746  0.00  0.00    +0.000 A 
ATOM     15  C   UNL     1      -7.456  -0.659 132.671  0.00  0.00    +0.000 A 
ATOM     16  C   UNL     1      -6.357  -0.610 133.553  0.00  0.00    +0.000 A 
ATOM     17  C   UNL     1      -6.109  -1.613 134.517  0.00  0.00    +0.000 A 
BRANCH  12  21
ATOM     18  N   UNL     1      -6.870  -4.760 137.709  0.00  0.00    +0.000 N 
ATOM     19  C   UNL     1      -7.265  -3.711 136.894  0.00  0.00    +0.000 C 
ATOM     20  O   UNL     1      -8.080  -2.866 137.258  0.00  0.00    +0.000 OA
ATOM     21  N   UNL     1      -6.682  -3.725 135.623  0.00  0.00    +0.000 N 
ATOM     22  H   UNL     1      -6.199  -5.474 137.477  0.00  0.00    +0.000 HD
ATOM     23  H   UNL     1      -6.217  -4.568 135.320  0.00  0.00    +0.000 HD
BRANCH  18  25
ATOM     24  C   UNL     1      -8.094  -6.043 139.251  0.00  0.00    +0.000 C 
ATOM     25  O   UNL     1      -7.485  -4.783 138.992  0.00  0.00    +0.000 OA
ENDBRANCH  18  25
ENDBRANCH  12  21
ENDBRANCH   1  15
BRANCH   9  26
ATOM     26  C   UNL     1      -7.716   2.862 126.100  0.00  0.00    +0.000 A 
ATOM     27  C   UNL     1      -6.473   2.762 125.482  0.00  0.00    +0.000 A 
ATOM     28  C   UNL     1      -6.301   3.017 124.135  0.00  0.00    +0.000 A 
ATOM     29  C   UNL     1      -7.405   3.307 123.381  0.00  0.00    +0.000 A 
ATOM     30  N   UNL     1      -8.636   3.356 123.930  0.00  0.00    +0.000 NA
ATOM     31  N   UNL     1      -8.790   3.129 125.314  0.00  0.00    +0.000 NA
BRANCH  29  32
ATOM     32  O   UNL     1      -7.142   3.520 122.046  0.00  0.00    +0.000 OA
ATOM     33  C   UNL     1      -5.814   3.900 121.755  0.00  0.00    +0.000 C 
ENDBRANCH  29  32
ENDBRANCH   9  26
BRANCH   2  34
ATOM     34  C   UNL     1      -7.027  -1.076 129.626  0.00  0.00    +0.000 C 
BRANCH  34  35
ATOM     35  N   UNL     1      -5.644  -0.958 129.203  0.00  0.00    +0.000 NA
ATOM     36  C   UNL     1      -4.639  -1.588 130.049  0.00  0.00    +0.000 C 
ATOM     37  C   UNL     1      -5.453  -1.255 127.801  0.00  0.00    +0.000 C 
ENDBRANCH  34  35
ENDBRANCH   2  34
BRANCH   6  38
ATOM     38  C   UNL     1      -8.533   4.984 130.480  0.00  0.00    +0.000 C 
BRANCH  38  39
ATOM     39  C   UNL     1      -9.826   5.670 130.113  0.00  0.00    +0.000 A 
ATOM     40  C   UNL     1     -11.035   4.974 130.104  0.00  0.00    +0.000 A 
ATOM     41  F   UNL     1     -11.059   3.669 130.411  0.00  0.00    +0.000 F 
ATOM     42  C   UNL     1     -12.242   5.621 129.840  0.00  0.00    +0.000 A 
ATOM     43  C   UNL     1     -12.273   7.011 129.715  0.00  0.00    +0.000 A 
ATOM     44  C   UNL     1     -11.084   7.735 129.776  0.00  0.00    +0.000 A 
ATOM     45  C   UNL     1      -9.875   7.059 129.918  0.00  0.00    +0.000 A 
ATOM     46  F   UNL     1      -8.750   7.782 130.045  0.00  0.00    +0.000 F 
ENDBRANCH  38  39
ENDBRANCH   6  38
TORSDOF 9
ENDMDL
MODEL 8
REMARK VINA RESULT:      -7.9      6.108      9.248
REMARK  Name = Relugolix
REMARK  13 active torsions:
REMARK  status: ('A' for Active; 'I' for Inactive)
REMARK    1  A    between atoms: C_1  and  O_2
REMARK    2  A    between atoms: O_2  and  N_3
REMARK    3  A    between atoms: N_6  and  C_7
REMARK    4  A    between atoms: C_10  and  C_13
REMARK    5  A    between atoms: C_14  and  C_15
REMARK    6  A    between atoms: C_15  and  N_16
REMARK    7  A    between atoms: N_16  and  C_17
REMARK    8  A    between atoms: N_16  and  C_18
REMARK    9  A    between atoms: N_22  and  C_23
REMARK   10  A    between atoms: C_23  and  C_24
REMARK   11  A    between atoms: N_34  and  C_37
REMARK   12  A    between atoms: C_40  and  O_41
REMARK   13  A    between atoms: O_41  and  C_42
REMARK                            x       y       z     vdW  Elec       q    Type
REMARK                         _______ _______ _______ _____ _____    ______ ____
ROOT
ATOM      1  C   UNL     1      -4.439   5.836 131.635  0.00  0.00    +0.000 A 
ATOM      2  C   UNL     1      -4.314   4.896 130.616  0.00  0.00    +0.000 A 
ATOM      3  C   UNL     1      -5.561   4.207 130.362  0.00  0.00    +0.000 A 
ATOM      4  C   UNL     1      -6.640   4.825 130.909  0.00  0.00    +0.000 A 
ATOM      5  S   UNL     1      -6.135   5.999 132.052  0.00  0.00    +0.000 S 
ATOM      6  N   UNL     1      -7.959   4.469 130.563  0.00  0.00    +0.000 N 
ATOM      7  C   UNL     1      -8.130   3.643 129.393  0.00  0.00    +0.000 A 
ATOM      8  O   UNL     1      -9.231   3.396 128.899  0.00  0.00    +0.000 OA
ATOM      9  N   UNL     1      -7.002   3.005 128.884  0.00  0.00    +0.000 N 
ATOM     10  C   UNL     1      -5.789   3.041 129.542  0.00  0.00    +0.000 A 
ATOM     11  O   UNL     1      -4.924   2.162 129.480  0.00  0.00    +0.000 OA
ENDROOT
BRANCH   1  15
ATOM     12  C   UNL     1      -1.100   8.171 133.307  0.00  0.00    +0.000 A 
ATOM     13  C   UNL     1      -1.265   6.817 133.627  0.00  0.00    +0.000 A 
ATOM     14  C   UNL     1      -2.341   6.053 133.083  0.00  0.00    +0.000 A 
ATOM     15  C   UNL     1      -3.317   6.629 132.254  0.00  0.00    +0.000 A 
ATOM     16  C   UNL     1      -3.090   7.975 131.898  0.00  0.00    +0.000 A 
ATOM     17  C   UNL     1      -2.011   8.728 132.414  0.00  0.00    +0.000 A 
BRANCH  12  21
ATOM     18  N   UNL     1       1.011  10.476 135.254  0.00  0.00    +0.000 N 
ATOM     19  C   UNL     1      -0.149   9.795 134.921  0.00  0.00    +0.000 C 
ATOM     20  O   UNL     1      -1.189   9.915 135.565  0.00  0.00    +0.000 OA
ATOM     21  N   UNL     1      -0.015   8.945 133.819  0.00  0.00    +0.000 N 
ATOM     22  H   UNL     1       1.889  10.433 134.763  0.00  0.00    +0.000 HD
ATOM     23  H   UNL     1       0.916   8.723 133.498  0.00  0.00    +0.000 HD
BRANCH  18  25
ATOM     24  C   UNL     1       1.047  12.687 136.050  0.00  0.00    +0.000 C 
ATOM     25  O   UNL     1       0.903  11.315 136.399  0.00  0.00    +0.000 OA
ENDBRANCH  18  25
ENDBRANCH  12  21
ENDBRANCH   1  15
BRANCH   9  26
ATOM     26  C   UNL     1      -7.184   2.020 127.844  0.00  0.00    +0.000 A 
ATOM     27  C   UNL     1      -7.624   0.744 128.184  0.00  0.00    +0.000 A 
ATOM     28  C   UNL     1      -7.671  -0.285 127.262  0.00  0.00    +0.000 A 
ATOM     29  C   UNL     1      -7.338  -0.011 125.964  0.00  0.00    +0.000 A 
ATOM     30  N   UNL     1      -6.963   1.226 125.581  0.00  0.00    +0.000 NA
ATOM     31  N   UNL     1      -6.885   2.257 126.542  0.00  0.00    +0.000 NA
BRANCH  29  32
ATOM     32  O   UNL     1      -7.439  -1.089 125.111  0.00  0.00    +0.000 OA
ATOM     33  C   UNL     1      -7.292  -2.350 125.729  0.00  0.00    +0.000 C 
ENDBRANCH  29  32
ENDBRANCH   9  26
BRANCH   2  34
ATOM     34  C   UNL     1      -3.015   4.632 129.899  0.00  0.00    +0.000 C 
BRANCH  34  35
ATOM     35  N   UNL     1      -3.000   5.266 128.595  0.00  0.00    +0.000 NA
ATOM     36  C   UNL     1      -2.302   6.540 128.489  0.00  0.00    +0.000 C 
ATOM     37  C   UNL     1      -2.658   4.356 127.526  0.00  0.00    +0.000 C 
ENDBRANCH  34  35
ENDBRANCH   2  34
BRANCH   6  38
ATOM     38  C   UNL     1      -9.151   4.930 131.311  0.00  0.00    +0.000 C 
BRANCH  38  39
ATOM     39  C   UNL     1     -10.109   5.840 130.582  0.00  0.00    +0.000 A 
ATOM     40  C   UNL     1      -9.721   7.113 130.165  0.00  0.00    +0.000 A 
ATOM     41  F   UNL     1      -8.480   7.553 130.421  0.00  0.00    +0.000 F 
ATOM     42  C   UNL     1     -10.578   7.926 129.425  0.00  0.00    +0.000 A 
ATOM     43  C   UNL     1     -11.798   7.420 128.972  0.00  0.00    +0.000 A 
ATOM     44  C   UNL     1     -12.185   6.130 129.330  0.00  0.00    +0.000 A 
ATOM     45  C   UNL     1     -11.369   5.377 130.171  0.00  0.00    +0.000 A 
ATOM     46  F   UNL     1     -11.728   4.112 130.444  0.00  0.00    +0.000 F 
ENDBRANCH  38  39
ENDBRANCH   6  38
TORSDOF 9
ENDMDL
MODEL 9
REMARK VINA RESULT:      -7.9      4.905      7.884
REMARK  Name = Relugolix
REMARK  13 active torsions:
REMARK  status: ('A' for Active; 'I' for Inactive)
REMARK    1  A    between atoms: C_1  and  O_2
REMARK    2  A    between atoms: O_2  and  N_3
REMARK    3  A    between atoms: N_6  and  C_7
REMARK    4  A    between atoms: C_10  and  C_13
REMARK    5  A    between atoms: C_14  and  C_15
REMARK    6  A    between atoms: C_15  and  N_16
REMARK    7  A    between atoms: N_16  and  C_17
REMARK    8  A    between atoms: N_16  and  C_18
REMARK    9  A    between atoms: N_22  and  C_23
REMARK   10  A    between atoms: C_23  and  C_24
REMARK   11  A    between atoms: N_34  and  C_37
REMARK   12  A    between atoms: C_40  and  O_41
REMARK   13  A    between atoms: O_41  and  C_42
REMARK                            x       y       z     vdW  Elec       q    Type
REMARK                         _______ _______ _______ _____ _____    ______ ____
ROOT
ATOM      1  C   UNL     1      -7.677   2.277 128.895  0.00  0.00    +0.000 A 
ATOM      2  C   UNL     1      -7.572   3.090 127.769  0.00  0.00    +0.000 A 
ATOM      3  C   UNL     1      -7.447   2.314 126.554  0.00  0.00    +0.000 A 
ATOM      4  C   UNL     1      -7.784   1.007 126.711  0.00  0.00    +0.000 A 
ATOM      5  S   UNL     1      -7.868   0.612 128.378  0.00  0.00    +0.000 S 
ATOM      6  N   UNL     1      -7.982   0.149 125.611  0.00  0.00    +0.000 N 
ATOM      7  C   UNL     1      -8.114   0.767 124.313  0.00  0.00    +0.000 A 
ATOM      8  O   UNL     1      -8.445   0.146 123.303  0.00  0.00    +0.000 OA
ATOM      9  N   UNL     1      -7.729   2.099 124.192  0.00  0.00    +0.000 N 
ATOM     10  C   UNL     1      -7.115   2.775 125.227  0.00  0.00    +0.000 A 
ATOM     11  O   UNL     1      -6.319   3.708 125.089  0.00  0.00    +0.000 OA
ENDROOT
BRANCH   1  15
ATOM     12  C   UNL     1      -7.616   3.506 133.123  0.00  0.00    +0.000 A 
ATOM     13  C   UNL     1      -8.825   3.260 132.461  0.00  0.00    +0.000 A 
ATOM     14  C   UNL     1      -8.852   2.855 131.093  0.00  0.00    +0.000 A 
ATOM     15  C   UNL     1      -7.679   2.742 130.329  0.00  0.00    +0.000 A 
ATOM     16  C   UNL     1      -6.475   2.934 131.036  0.00  0.00    +0.000 A 
ATOM     17  C   UNL     1      -6.444   3.310 132.398  0.00  0.00    +0.000 A 
BRANCH  12  21
ATOM     18  N   UNL     1      -7.381   5.380 136.286  0.00  0.00    +0.000 N 
ATOM     19  C   UNL     1      -7.428   5.216 134.910  0.00  0.00    +0.000 C 
ATOM     20  O   UNL     1      -7.380   6.166 134.132  0.00  0.00    +0.000 OA
ATOM     21  N   UNL     1      -7.568   3.886 134.499  0.00  0.00    +0.000 N 
ATOM     22  H   UNL     1      -7.402   4.645 136.974  0.00  0.00    +0.000 HD
ATOM     23  H   UNL     1      -7.837   3.199 135.187  0.00  0.00    +0.000 HD
BRANCH  18  25
ATOM     24  C   UNL     1      -8.369   7.084 137.567  0.00  0.00    +0.000 C 
ATOM     25  O   UNL     1      -7.280   6.731 136.722  0.00  0.00    +0.000 OA
ENDBRANCH  18  25
ENDBRANCH  12  21
ENDBRANCH   1  15
BRANCH   9  26
ATOM     26  C   UNL     1      -7.662   2.674 122.869  0.00  0.00    +0.000 A 
ATOM     27  C   UNL     1      -6.427   2.787 122.237  0.00  0.00    +0.000 A 
ATOM     28  C   UNL     1      -6.275   3.464 121.042  0.00  0.00    +0.000 A 
ATOM     29  C   UNL     1      -7.389   3.975 120.437  0.00  0.00    +0.000 A 
ATOM     30  N   UNL     1      -8.613   3.836 120.986  0.00  0.00    +0.000 NA
ATOM     31  N   UNL     1      -8.747   3.174 122.225  0.00  0.00    +0.000 NA
BRANCH  29  32
ATOM     32  O   UNL     1      -7.146   4.610 119.238  0.00  0.00    +0.000 OA
ATOM     33  C   UNL     1      -5.895   5.260 119.154  0.00  0.00    +0.000 C 
ENDBRANCH  29  32
ENDBRANCH   9  26
BRANCH   2  34
ATOM     34  C   UNL     1      -7.568   4.595 127.841  0.00  0.00    +0.000 C 
BRANCH  34  35
ATOM     35  N   UNL     1      -8.919   5.122 127.834  0.00  0.00    +0.000 NA
ATOM     36  C   UNL     1      -9.350   5.847 129.022  0.00  0.00    +0.000 C 
ATOM     37  C   UNL     1      -9.249   5.818 126.611  0.00  0.00    +0.000 C 
ENDBRANCH  34  35
ENDBRANCH   2  34
BRANCH   6  38
ATOM     38  C   UNL     1      -8.097  -1.321 125.733  0.00  0.00    +0.000 C 
BRANCH  38  39
ATOM     39  C   UNL     1      -7.049  -2.152 125.033  0.00  0.00    +0.000 A 
ATOM     40  C   UNL     1      -5.703  -1.787 125.056  0.00  0.00    +0.000 A 
ATOM     41  F   UNL     1      -5.323  -0.672 125.697  0.00  0.00    +0.000 F 
ATOM     42  C   UNL     1      -4.724  -2.592 124.476  0.00  0.00    +0.000 A 
ATOM     43  C   UNL     1      -5.063  -3.851 123.979  0.00  0.00    +0.000 A 
ATOM     44  C   UNL     1      -6.394  -4.263 123.995  0.00  0.00    +0.000 A 
ATOM     45  C   UNL     1      -7.376  -3.395 124.468  0.00  0.00    +0.000 A 
ATOM     46  F   UNL     1      -8.641  -3.840 124.539  0.00  0.00    +0.000 F 
ENDBRANCH  38  39
ENDBRANCH   6  38
TORSDOF 9
ENDMDL
