MODEL 1
REMARK VINA RESULT:      -8.6      0.000      0.000
REMARK  Name = Remdesivir
REMARK  20 active torsions:
REMARK  status: ('A' for Active; 'I' for Inactive)
REMARK    1  A    between atoms: C_1  and  C_2
REMARK    2  A    between atoms: C_2  and  C_3
REMARK    3  A    between atoms: C_3  and  C_4
REMARK    4  A    between atoms: C_3  and  C_6
REMARK    5  A    between atoms: C_4  and  C_5
REMARK    6  A    between atoms: C_6  and  O_7
REMARK    7  A    between atoms: O_7  and  C_8
REMARK    8  A    between atoms: C_8  and  C_10
REMARK    9  A    between atoms: C_10  and  C_11
REMARK   10  A    between atoms: C_10  and  N_12
REMARK   11  A    between atoms: N_12  and  P_13
REMARK   12  A    between atoms: P_13  and  O_15
REMARK   13  A    between atoms: P_13  and  O_36
REMARK   14  A    between atoms: O_15  and  C_16
REMARK   15  A    between atoms: C_16  and  C_17
REMARK   16  A    between atoms: C_19  and  C_20
REMARK   17  A    between atoms: C_19  and  C_26
REMARK   18  A    between atoms: C_22  and  O_23
REMARK   19  A    between atoms: C_24  and  O_25
REMARK   20  A    between atoms: O_36  and  C_37
REMARK                            x       y       z     vdW  Elec       q    Type
REMARK                         _______ _______ _______ _____ _____    ______ ____
ROOT
ATOM      1  C   UNL     1      -8.128   3.922 128.343  0.00  0.00    +0.000 C 
ENDROOT
BRANCH   1   2
ATOM      2  C   UNL     1      -7.659   4.180 129.749  0.00  0.00    +0.000 C 
ATOM      3  O   UNL     1      -8.226   5.438 130.164  0.00  0.00    +0.000 OA
ATOM      4  C   UNL     1      -9.353   5.160 131.016  0.00  0.00    +0.000 C 
ATOM      5  C   UNL     1      -9.513   3.624 131.087  0.00  0.00    +0.000 C 
ATOM      6  C   UNL     1      -8.119   3.117 130.725  0.00  0.00    +0.000 C 
BRANCH   4   7
ATOM      7  C   UNL     1     -10.572   5.907 130.496  0.00  0.00    +0.000 A 
ATOM      8  C   UNL     1     -11.689   6.267 131.250  0.00  0.00    +0.000 A 
ATOM      9  C   UNL     1     -12.641   6.862 130.417  0.00  0.00    +0.000 A 
ATOM     10  C   UNL     1     -12.079   6.928 129.178  0.00  0.00    +0.000 A 
ATOM     11  N   UNL     1     -10.820   6.403 129.221  0.00  0.00    +0.000 N 
ATOM     12  N   UNL     1     -10.005   6.502 128.168  0.00  0.00    +0.000 NA
ATOM     13  C   UNL     1     -10.495   7.158 127.159  0.00  0.00    +0.000 A 
ATOM     14  N   UNL     1     -11.729   7.692 127.012  0.00  0.00    +0.000 NA
ATOM     15  C   UNL     1     -12.555   7.534 127.985  0.00  0.00    +0.000 A 
ATOM     16  N   UNL     1     -13.822   7.968 127.808  0.00  0.00    +0.000 N 
ATOM     17  H   UNL     1     -14.086   8.289 126.887  0.00  0.00    +0.000 HD
ATOM     18  H   UNL     1     -14.465   8.029 128.577  0.00  0.00    +0.000 HD
ENDBRANCH   4   7
BRANCH   6  19
ATOM     19  O   UNL     1      -7.264   3.073 131.875  0.00  0.00    +0.000 OA
ATOM     20  H   UNL     1      -7.107   2.149 132.141  0.00  0.00    +0.000 HD
ENDBRANCH   6  19
BRANCH   4  21
ATOM     21  C   UNL     1      -9.012   5.677 132.390  0.00  0.00    +0.000 C 
ATOM     22  N   UNL     1      -8.804   6.089 133.439  0.00  0.00    +0.000 NA
ENDBRANCH   4  21
BRANCH   5  23
ATOM     23  O   UNL     1      -9.978   3.097 132.331  0.00  0.00    +0.000 OA
ATOM     24  H   UNL     1      -9.242   3.145 132.972  0.00  0.00    +0.000 HD
ENDBRANCH   5  23
ENDBRANCH   1   2
BRANCH   1  25
ATOM     25  O   UNL     1      -7.285   2.996 127.553  0.00  0.00    +0.000 OA
BRANCH  25  26
ATOM     26  P   UNL     1      -8.110   1.642 126.968  0.00  0.00    +0.000 P 
ATOM     27  O   UNL     1      -8.948   2.588 126.073  0.00  0.00    +0.000 OA
BRANCH  26  28
ATOM     28  N   UNL     1      -7.172   1.114 125.603  0.00  0.00    +0.000 NA
ATOM     29  H   UNL     1      -6.251   1.538 125.619  0.00  0.00    +0.000 HD
BRANCH  28  30
ATOM     30  C   UNL     1      -7.782   1.298 124.247  0.00  0.00    +0.000 C 
ATOM     31  C   UNL     1      -6.805   1.990 123.318  0.00  0.00    +0.000 C 
BRANCH  30  32
ATOM     32  C   UNL     1      -8.210   0.029 123.541  0.00  0.00    +0.000 C 
ATOM     33  O   UNL     1      -9.365  -0.384 123.547  0.00  0.00    +0.000 OA
BRANCH  32  34
ATOM     34  O   UNL     1      -7.202  -0.496 122.792  0.00  0.00    +0.000 OA
BRANCH  34  35
ATOM     35  C   UNL     1      -7.225  -1.930 122.715  0.00  0.00    +0.000 C 
BRANCH  35  36
ATOM     36  C   UNL     1      -6.425  -2.523 123.899  0.00  0.00    +0.000 C 
BRANCH  36  37
ATOM     37  C   UNL     1      -5.026  -2.963 123.405  0.00  0.00    +0.000 C 
ATOM     38  C   UNL     1      -4.616  -4.381 123.772  0.00  0.00    +0.000 C 
ENDBRANCH  36  37
BRANCH  36  40
ATOM     39  C   UNL     1      -8.740  -3.645 124.248  0.00  0.00    +0.000 C 
ATOM     40  C   UNL     1      -7.245  -3.669 124.534  0.00  0.00    +0.000 C 
ENDBRANCH  36  40
ENDBRANCH  35  36
ENDBRANCH  34  35
ENDBRANCH  32  34
ENDBRANCH  30  32
ENDBRANCH  28  30
ENDBRANCH  26  28
BRANCH  26  41
ATOM     41  O   UNL     1      -7.173   0.585 127.966  0.00  0.00    +0.000 OA
BRANCH  41  42
ATOM     42  C   UNL     1      -7.635  -0.602 128.505  0.00  0.00    +0.000 A 
ATOM     43  C   UNL     1      -7.859  -1.661 127.606  0.00  0.00    +0.000 A 
ATOM     44  C   UNL     1      -8.021  -2.974 128.079  0.00  0.00    +0.000 A 
ATOM     45  C   UNL     1      -7.969  -3.231 129.448  0.00  0.00    +0.000 A 
ATOM     46  C   UNL     1      -7.803  -2.171 130.342  0.00  0.00    +0.000 A 
ATOM     47  C   UNL     1      -7.663  -0.852 129.875  0.00  0.00    +0.000 A 
ENDBRANCH  41  42
ENDBRANCH  26  41
ENDBRANCH  25  26
ENDBRANCH   1  25
TORSDOF 17
ENDMDL
MODEL 2
REMARK VINA RESULT:      -8.5      2.621      8.759
REMARK  Name = Remdesivir
REMARK  20 active torsions:
REMARK  status: ('A' for Active; 'I' for Inactive)
REMARK    1  A    between atoms: C_1  and  C_2
REMARK    2  A    between atoms: C_2  and  C_3
REMARK    3  A    between atoms: C_3  and  C_4
REMARK    4  A    between atoms: C_3  and  C_6
REMARK    5  A    between atoms: C_4  and  C_5
REMARK    6  A    between atoms: C_6  and  O_7
REMARK    7  A    between atoms: O_7  and  C_8
REMARK    8  A    between atoms: C_8  and  C_10
REMARK    9  A    between atoms: C_10  and  C_11
REMARK   10  A    between atoms: C_10  and  N_12
REMARK   11  A    between atoms: N_12  and  P_13
REMARK   12  A    between atoms: P_13  and  O_15
REMARK   13  A    between atoms: P_13  and  O_36
REMARK   14  A    between atoms: O_15  and  C_16
REMARK   15  A    between atoms: C_16  and  C_17
REMARK   16  A    between atoms: C_19  and  C_20
REMARK   17  A    between atoms: C_19  and  C_26
REMARK   18  A    between atoms: C_22  and  O_23
REMARK   19  A    between atoms: C_24  and  O_25
REMARK   20  A    between atoms: O_36  and  C_37
REMARK                            x       y       z     vdW  Elec       q    Type
REMARK                         _______ _______ _______ _____ _____    ______ ____
ROOT
ATOM      1  C   UNL     1      -5.763   3.459 127.480  0.00  0.00    +0.000 C 
ENDROOT
BRANCH   1   2
ATOM      2  C   UNL     1      -5.551   4.066 126.119  0.00  0.00    +0.000 C 
ATOM      3  O   UNL     1      -5.254   2.987 125.212  0.00  0.00    +0.000 OA
ATOM      4  C   UNL     1      -6.445   2.696 124.458  0.00  0.00    +0.000 C 
ATOM      5  C   UNL     1      -7.561   3.634 124.975  0.00  0.00    +0.000 C 
ATOM      6  C   UNL     1      -6.779   4.786 125.600  0.00  0.00    +0.000 C 
BRANCH   4   7
ATOM      7  C   UNL     1      -6.757   1.212 124.562  0.00  0.00    +0.000 A 
ATOM      8  C   UNL     1      -6.089   0.293 125.371  0.00  0.00    +0.000 A 
ATOM      9  C   UNL     1      -6.595  -0.988 125.138  0.00  0.00    +0.000 A 
ATOM     10  C   UNL     1      -7.615  -0.841 124.246  0.00  0.00    +0.000 A 
ATOM     11  N   UNL     1      -7.755   0.479 123.929  0.00  0.00    +0.000 N 
ATOM     12  N   UNL     1      -8.792   0.897 123.198  0.00  0.00    +0.000 NA
ATOM     13  C   UNL     1      -9.639  -0.034 122.871  0.00  0.00    +0.000 A 
ATOM     14  N   UNL     1      -9.578  -1.362 123.116  0.00  0.00    +0.000 NA
ATOM     15  C   UNL     1      -8.543  -1.793 123.747  0.00  0.00    +0.000 A 
ATOM     16  N   UNL     1      -8.418  -3.129 123.904  0.00  0.00    +0.000 N 
ATOM     17  H   UNL     1      -9.077  -3.724 123.422  0.00  0.00    +0.000 HD
ATOM     18  H   UNL     1      -7.732  -3.521 124.526  0.00  0.00    +0.000 HD
ENDBRANCH   4   7
BRANCH   6  19
ATOM     19  O   UNL     1      -6.420   5.768 124.620  0.00  0.00    +0.000 OA
ATOM     20  H   UNL     1      -6.768   6.641 124.876  0.00  0.00    +0.000 HD
ENDBRANCH   6  19
BRANCH   4  21
ATOM     21  C   UNL     1      -6.156   3.036 123.018  0.00  0.00    +0.000 C 
ATOM     22  N   UNL     1      -5.974   3.334 121.926  0.00  0.00    +0.000 NA
ENDBRANCH   4  21
BRANCH   5  23
ATOM     23  O   UNL     1      -8.507   4.082 124.003  0.00  0.00    +0.000 OA
ATOM     24  H   UNL     1      -9.004   3.303 123.685  0.00  0.00    +0.000 HD
ENDBRANCH   5  23
ENDBRANCH   1   2
BRANCH   1  25
ATOM     25  O   UNL     1      -7.176   3.253 127.870  0.00  0.00    +0.000 OA
BRANCH  25  26
ATOM     26  P   UNL     1      -7.588   3.943 129.357  0.00  0.00    +0.000 P 
ATOM     27  O   UNL     1      -6.443   4.966 129.155  0.00  0.00    +0.000 OA
BRANCH  26  28
ATOM     28  N   UNL     1      -8.785   5.141 128.966  0.00  0.00    +0.000 NA
ATOM     29  H   UNL     1      -8.367   5.907 128.451  0.00  0.00    +0.000 HD
BRANCH  28  30
ATOM     30  C   UNL     1      -9.595   5.688 130.103  0.00  0.00    +0.000 C 
ATOM     31  C   UNL     1      -9.354   7.178 130.253  0.00  0.00    +0.000 C 
BRANCH  30  32
ATOM     32  C   UNL     1     -11.093   5.512 129.988  0.00  0.00    +0.000 C 
ATOM     33  O   UNL     1     -11.644   4.416 130.039  0.00  0.00    +0.000 OA
BRANCH  32  34
ATOM     34  O   UNL     1     -11.743   6.707 129.974  0.00  0.00    +0.000 OA
BRANCH  34  35
ATOM     35  C   UNL     1     -13.011   6.668 129.302  0.00  0.00    +0.000 C 
BRANCH  35  36
ATOM     36  C   UNL     1     -13.031   7.731 128.177  0.00  0.00    +0.000 C 
BRANCH  36  37
ATOM     37  C   UNL     1     -12.422   7.126 126.888  0.00  0.00    +0.000 C 
ATOM     38  C   UNL     1     -10.976   7.502 126.607  0.00  0.00    +0.000 C 
ENDBRANCH  36  37
BRANCH  36  40
ATOM     39  C   UNL     1     -13.132   9.955 129.510  0.00  0.00    +0.000 C 
ATOM     40  C   UNL     1     -12.299   8.998 128.671  0.00  0.00    +0.000 C 
ENDBRANCH  36  40
ENDBRANCH  35  36
ENDBRANCH  34  35
ENDBRANCH  32  34
ENDBRANCH  30  32
ENDBRANCH  28  30
ENDBRANCH  26  28
BRANCH  26  41
ATOM     41  O   UNL     1      -8.867   2.801 129.582  0.00  0.00    +0.000 OA
BRANCH  41  42
ATOM     42  C   UNL     1      -8.706   1.533 130.109  0.00  0.00    +0.000 A 
ATOM     43  C   UNL     1      -7.908   0.638 129.373  0.00  0.00    +0.000 A 
ATOM     44  C   UNL     1      -7.433  -0.543 129.965  0.00  0.00    +0.000 A 
ATOM     45  C   UNL     1      -7.760  -0.839 131.287  0.00  0.00    +0.000 A 
ATOM     46  C   UNL     1      -8.600   0.022 131.997  0.00  0.00    +0.000 A 
ATOM     47  C   UNL     1      -9.096   1.195 131.403  0.00  0.00    +0.000 A 
ENDBRANCH  41  42
ENDBRANCH  26  41
ENDBRANCH  25  26
ENDBRANCH   1  25
TORSDOF 17
ENDMDL
MODEL 3
REMARK VINA RESULT:      -8.5      3.165      9.361
REMARK  Name = Remdesivir
REMARK  20 active torsions:
REMARK  status: ('A' for Active; 'I' for Inactive)
REMARK    1  A    between atoms: C_1  and  C_2
REMARK    2  A    between atoms: C_2  and  C_3
REMARK    3  A    between atoms: C_3  and  C_4
REMARK    4  A    between atoms: C_3  and  C_6
REMARK    5  A    between atoms: C_4  and  C_5
REMARK    6  A    between atoms: C_6  and  O_7
REMARK    7  A    between atoms: O_7  and  C_8
REMARK    8  A    between atoms: C_8  and  C_10
REMARK    9  A    between atoms: C_10  and  C_11
REMARK   10  A    between atoms: C_10  and  N_12
REMARK   11  A    between atoms: N_12  and  P_13
REMARK   12  A    between atoms: P_13  and  O_15
REMARK   13  A    between atoms: P_13  and  O_36
REMARK   14  A    between atoms: O_15  and  C_16
REMARK   15  A    between atoms: C_16  and  C_17
REMARK   16  A    between atoms: C_19  and  C_20
REMARK   17  A    between atoms: C_19  and  C_26
REMARK   18  A    between atoms: C_22  and  O_23
REMARK   19  A    between atoms: C_24  and  O_25
REMARK   20  A    between atoms: O_36  and  C_37
REMARK                            x       y       z     vdW  Elec       q    Type
REMARK                         _______ _______ _______ _____ _____    ______ ____
ROOT
ATOM      1  C   UNL     1      -7.590   3.425 128.122  0.00  0.00    +0.000 C 
ENDROOT
BRANCH   1   2
ATOM      2  C   UNL     1      -7.112   4.238 126.950  0.00  0.00    +0.000 C 
ATOM      3  O   UNL     1      -6.124   3.451 126.257  0.00  0.00    +0.000 OA
ATOM      4  C   UNL     1      -6.747   2.876 125.094  0.00  0.00    +0.000 C 
ATOM      5  C   UNL     1      -8.233   3.305 125.104  0.00  0.00    +0.000 C 
ATOM      6  C   UNL     1      -8.221   4.561 125.970  0.00  0.00    +0.000 C 
BRANCH   4   7
ATOM      7  C   UNL     1      -6.515   1.372 125.091  0.00  0.00    +0.000 A 
ATOM      8  C   UNL     1      -5.600   0.688 125.888  0.00  0.00    +0.000 A 
ATOM      9  C   UNL     1      -5.607  -0.667 125.548  0.00  0.00    +0.000 A 
ATOM     10  C   UNL     1      -6.572  -0.819 124.599  0.00  0.00    +0.000 A 
ATOM     11  N   UNL     1      -7.158   0.388 124.349  0.00  0.00    +0.000 N 
ATOM     12  N   UNL     1      -8.244   0.470 123.575  0.00  0.00    +0.000 NA
ATOM     13  C   UNL     1      -8.689  -0.670 123.138  0.00  0.00    +0.000 A 
ATOM     14  N   UNL     1      -8.170  -1.907 123.309  0.00  0.00    +0.000 NA
ATOM     15  C   UNL     1      -7.078  -1.995 123.984  0.00  0.00    +0.000 A 
ATOM     16  N   UNL     1      -6.493  -3.209 124.071  0.00  0.00    +0.000 N 
ATOM     17  H   UNL     1      -6.875  -3.958 123.511  0.00  0.00    +0.000 HD
ATOM     18  H   UNL     1      -5.741  -3.382 124.714  0.00  0.00    +0.000 HD
ENDBRANCH   4   7
BRANCH   6  19
ATOM     19  O   UNL     1      -7.900   5.726 125.198  0.00  0.00    +0.000 OA
ATOM     20  H   UNL     1      -6.941   5.893 125.226  0.00  0.00    +0.000 HD
ENDBRANCH   6  19
BRANCH   4  21
ATOM     21  C   UNL     1      -6.078   3.477 123.886  0.00  0.00    +0.000 C 
ATOM     22  N   UNL     1      -5.592   3.982 122.978  0.00  0.00    +0.000 NA
ENDBRANCH   4  21
BRANCH   5  23
ATOM     23  O   UNL     1      -8.832   3.529 123.827  0.00  0.00    +0.000 OA
ATOM     24  H   UNL     1      -9.145   4.455 123.799  0.00  0.00    +0.000 HD
ENDBRANCH   5  23
ENDBRANCH   1   2
BRANCH   1  25
ATOM     25  O   UNL     1      -8.962   3.727 128.588  0.00  0.00    +0.000 OA
BRANCH  25  26
ATOM     26  P   UNL     1      -9.025   4.530 130.073  0.00  0.00    +0.000 P 
ATOM     27  O   UNL     1      -8.845   3.162 130.776  0.00  0.00    +0.000 OA
BRANCH  26  28
ATOM     28  N   UNL     1      -7.374   4.966 130.404  0.00  0.00    +0.000 NA
ATOM     29  H   UNL     1      -6.895   4.208 130.876  0.00  0.00    +0.000 HD
BRANCH  28  30
ATOM     30  C   UNL     1      -7.146   6.243 131.154  0.00  0.00    +0.000 C 
ATOM     31  C   UNL     1      -7.499   6.066 132.618  0.00  0.00    +0.000 C 
BRANCH  30  32
ATOM     32  C   UNL     1      -5.733   6.781 131.122  0.00  0.00    +0.000 C 
ATOM     33  O   UNL     1      -5.028   6.873 132.123  0.00  0.00    +0.000 OA
BRANCH  32  34
ATOM     34  O   UNL     1      -5.303   7.000 129.850  0.00  0.00    +0.000 OA
BRANCH  34  35
ATOM     35  C   UNL     1      -4.041   7.680 129.773  0.00  0.00    +0.000 C 
BRANCH  35  36
ATOM     36  C   UNL     1      -3.129   6.960 128.751  0.00  0.00    +0.000 C 
BRANCH  36  37
ATOM     37  C   UNL     1      -3.897   5.773 128.122  0.00  0.00    +0.000 C 
ATOM     38  C   UNL     1      -3.034   4.700 127.478  0.00  0.00    +0.000 C 
ENDBRANCH  36  37
BRANCH  36  40
ATOM     39  C   UNL     1      -1.965   6.077 130.897  0.00  0.00    +0.000 C 
ATOM     40  C   UNL     1      -1.818   6.544 129.456  0.00  0.00    +0.000 C 
ENDBRANCH  36  40
ENDBRANCH  35  36
ENDBRANCH  34  35
ENDBRANCH  32  34
ENDBRANCH  30  32
ENDBRANCH  28  30
ENDBRANCH  26  28
BRANCH  26  41
ATOM     41  O   UNL     1      -9.223   6.059 129.288  0.00  0.00    +0.000 OA
BRANCH  41  42
ATOM     42  C   UNL     1     -10.243   6.954 129.556  0.00  0.00    +0.000 A 
ATOM     43  C   UNL     1     -10.489   7.942 128.583  0.00  0.00    +0.000 A 
ATOM     44  C   UNL     1     -11.681   8.685 128.612  0.00  0.00    +0.000 A 
ATOM     45  C   UNL     1     -12.622   8.453 129.613  0.00  0.00    +0.000 A 
ATOM     46  C   UNL     1     -12.349   7.513 130.609  0.00  0.00    +0.000 A 
ATOM     47  C   UNL     1     -11.150   6.781 130.599  0.00  0.00    +0.000 A 
ENDBRANCH  41  42
ENDBRANCH  26  41
ENDBRANCH  25  26
ENDBRANCH   1  25
TORSDOF 17
ENDMDL
MODEL 4
REMARK VINA RESULT:      -8.3      1.549      2.329
REMARK  Name = Remdesivir
REMARK  20 active torsions:
REMARK  status: ('A' for Active; 'I' for Inactive)
REMARK    1  A    between atoms: C_1  and  C_2
REMARK    2  A    between atoms: C_2  and  C_3
REMARK    3  A    between atoms: C_3  and  C_4
REMARK    4  A    between atoms: C_3  and  C_6
REMARK    5  A    between atoms: C_4  and  C_5
REMARK    6  A    between atoms: C_6  and  O_7
REMARK    7  A    between atoms: O_7  and  C_8
REMARK    8  A    between atoms: C_8  and  C_10
REMARK    9  A    between atoms: C_10  and  C_11
REMARK   10  A    between atoms: C_10  and  N_12
REMARK   11  A    between atoms: N_12  and  P_13
REMARK   12  A    between atoms: P_13  and  O_15
REMARK   13  A    between atoms: P_13  and  O_36
REMARK   14  A    between atoms: O_15  and  C_16
REMARK   15  A    between atoms: C_16  and  C_17
REMARK   16  A    between atoms: C_19  and  C_20
REMARK   17  A    between atoms: C_19  and  C_26
REMARK   18  A    between atoms: C_22  and  O_23
REMARK   19  A    between atoms: C_24  and  O_25
REMARK   20  A    between atoms: O_36  and  C_37
REMARK                            x       y       z     vdW  Elec       q    Type
REMARK                         _______ _______ _______ _____ _____    ______ ____
ROOT
ATOM      1  C   UNL     1      -8.329   1.625 130.069  0.00  0.00    +0.000 C 
ENDROOT
BRANCH   1   2
ATOM      2  C   UNL     1      -7.683   2.232 131.285  0.00  0.00    +0.000 C 
ATOM      3  O   UNL     1      -7.520   3.639 131.025  0.00  0.00    +0.000 OA
ATOM      4  C   UNL     1      -8.564   4.346 131.718  0.00  0.00    +0.000 C 
ATOM      5  C   UNL     1      -9.456   3.291 132.413  0.00  0.00    +0.000 C 
ATOM      6  C   UNL     1      -8.529   2.084 132.533  0.00  0.00    +0.000 C 
BRANCH   4   7
ATOM      7  C   UNL     1      -9.292   5.255 130.740  0.00  0.00    +0.000 A 
ATOM      8  C   UNL     1      -9.007   5.384 129.381  0.00  0.00    +0.000 A 
ATOM      9  C   UNL     1      -9.824   6.372 128.825  0.00  0.00    +0.000 A 
ATOM     10  C   UNL     1     -10.651   6.791 129.823  0.00  0.00    +0.000 A 
ATOM     11  N   UNL     1     -10.376   6.096 130.964  0.00  0.00    +0.000 N 
ATOM     12  N   UNL     1     -11.163   6.212 132.038  0.00  0.00    +0.000 NA
ATOM     13  C   UNL     1     -12.194   6.987 131.877  0.00  0.00    +0.000 A 
ATOM     14  N   UNL     1     -12.538   7.731 130.802  0.00  0.00    +0.000 NA
ATOM     15  C   UNL     1     -11.747   7.695 129.788  0.00  0.00    +0.000 A 
ATOM     16  N   UNL     1     -12.022   8.515 128.751  0.00  0.00    +0.000 N 
ATOM     17  H   UNL     1     -12.762   9.193 128.868  0.00  0.00    +0.000 HD
ATOM     18  H   UNL     1     -11.550   8.418 127.869  0.00  0.00    +0.000 HD
ENDBRANCH   4   7
BRANCH   6  19
ATOM     19  O   UNL     1      -7.719   2.163 133.714  0.00  0.00    +0.000 OA
ATOM     20  H   UNL     1      -8.131   2.758 134.365  0.00  0.00    +0.000 HD
ENDBRANCH   6  19
BRANCH   4  21
ATOM     21  C   UNL     1      -7.905   5.194 132.775  0.00  0.00    +0.000 C 
ATOM     22  N   UNL     1      -7.376   5.793 133.597  0.00  0.00    +0.000 NA
ENDBRANCH   4  21
BRANCH   5  23
ATOM     23  O   UNL     1     -10.020   3.672 133.668  0.00  0.00    +0.000 OA
ATOM     24  H   UNL     1      -9.755   3.006 134.333  0.00  0.00    +0.000 HD
ENDBRANCH   5  23
ENDBRANCH   1   2
BRANCH   1  25
ATOM     25  O   UNL     1      -7.899   2.194 128.772  0.00  0.00    +0.000 OA
BRANCH  25  26
ATOM     26  P   UNL     1      -8.178   1.179 127.449  0.00  0.00    +0.000 P 
ATOM     27  O   UNL     1      -8.906   2.355 126.751  0.00  0.00    +0.000 OA
BRANCH  26  28
ATOM     28  N   UNL     1      -6.780   1.388 126.436  0.00  0.00    +0.000 NA
ATOM     29  H   UNL     1      -5.944   1.489 126.999  0.00  0.00    +0.000 HD
BRANCH  28  30
ATOM     30  C   UNL     1      -6.835   2.492 125.423  0.00  0.00    +0.000 C 
ATOM     31  C   UNL     1      -5.565   3.318 125.475  0.00  0.00    +0.000 C 
BRANCH  30  32
ATOM     32  C   UNL     1      -6.996   2.055 123.983  0.00  0.00    +0.000 C 
ATOM     33  O   UNL     1      -6.572   2.707 123.034  0.00  0.00    +0.000 OA
BRANCH  32  34
ATOM     34  O   UNL     1      -7.524   0.804 123.890  0.00  0.00    +0.000 OA
BRANCH  34  35
ATOM     35  C   UNL     1      -6.700  -0.119 123.163  0.00  0.00    +0.000 C 
BRANCH  35  36
ATOM     36  C   UNL     1      -7.150  -1.567 123.473  0.00  0.00    +0.000 C 
BRANCH  36  37
ATOM     37  C   UNL     1      -6.030  -2.553 123.062  0.00  0.00    +0.000 C 
ATOM     38  C   UNL     1      -5.288  -3.219 124.211  0.00  0.00    +0.000 C 
ENDBRANCH  36  37
BRANCH  36  40
ATOM     39  C   UNL     1      -9.244  -3.081 123.221  0.00  0.00    +0.000 C 
ATOM     40  C   UNL     1      -8.498  -1.835 122.766  0.00  0.00    +0.000 C 
ENDBRANCH  36  40
ENDBRANCH  35  36
ENDBRANCH  34  35
ENDBRANCH  32  34
ENDBRANCH  30  32
ENDBRANCH  28  30
ENDBRANCH  26  28
BRANCH  26  41
ATOM     41  O   UNL     1      -7.362  -0.133 128.227  0.00  0.00    +0.000 OA
BRANCH  41  42
ATOM     42  C   UNL     1      -7.693  -1.467 128.072  0.00  0.00    +0.000 A 
ATOM     43  C   UNL     1      -7.776  -2.238 129.247  0.00  0.00    +0.000 A 
ATOM     44  C   UNL     1      -8.400  -3.496 129.228  0.00  0.00    +0.000 A 
ATOM     45  C   UNL     1      -8.932  -3.991 128.038  0.00  0.00    +0.000 A 
ATOM     46  C   UNL     1      -8.798  -3.249 126.863  0.00  0.00    +0.000 A 
ATOM     47  C   UNL     1      -8.155  -1.999 126.871  0.00  0.00    +0.000 A 
ENDBRANCH  41  42
ENDBRANCH  26  41
ENDBRANCH  25  26
ENDBRANCH   1  25
TORSDOF 17
ENDMDL
MODEL 5
REMARK VINA RESULT:      -8.3      3.182      9.030
REMARK  Name = Remdesivir
REMARK  20 active torsions:
REMARK  status: ('A' for Active; 'I' for Inactive)
REMARK    1  A    between atoms: C_1  and  C_2
REMARK    2  A    between atoms: C_2  and  C_3
REMARK    3  A    between atoms: C_3  and  C_4
REMARK    4  A    between atoms: C_3  and  C_6
REMARK    5  A    between atoms: C_4  and  C_5
REMARK    6  A    between atoms: C_6  and  O_7
REMARK    7  A    between atoms: O_7  and  C_8
REMARK    8  A    between atoms: C_8  and  C_10
REMARK    9  A    between atoms: C_10  and  C_11
REMARK   10  A    between atoms: C_10  and  N_12
REMARK   11  A    between atoms: N_12  and  P_13
REMARK   12  A    between atoms: P_13  and  O_15
REMARK   13  A    between atoms: P_13  and  O_36
REMARK   14  A    between atoms: O_15  and  C_16
REMARK   15  A    between atoms: C_16  and  C_17
REMARK   16  A    between atoms: C_19  and  C_20
REMARK   17  A    between atoms: C_19  and  C_26
REMARK   18  A    between atoms: C_22  and  O_23
REMARK   19  A    between atoms: C_24  and  O_25
REMARK   20  A    between atoms: O_36  and  C_37
REMARK                            x       y       z     vdW  Elec       q    Type
REMARK                         _______ _______ _______ _____ _____    ______ ____
ROOT
ATOM      1  C   UNL     1      -7.779   1.314 126.949  0.00  0.00    +0.000 C 
ENDROOT
BRANCH   1   2
ATOM      2  C   UNL     1      -7.428   0.517 125.722  0.00  0.00    +0.000 C 
ATOM      3  O   UNL     1      -6.641  -0.609 126.154  0.00  0.00    +0.000 OA
ATOM      4  C   UNL     1      -7.494  -1.769 126.176  0.00  0.00    +0.000 C 
ATOM      5  C   UNL     1      -8.913  -1.307 125.773  0.00  0.00    +0.000 C 
ATOM      6  C   UNL     1      -8.649  -0.017 125.001  0.00  0.00    +0.000 C 
BRANCH   4   7
ATOM      7  C   UNL     1      -7.401  -2.437 127.539  0.00  0.00    +0.000 A 
ATOM      8  C   UNL     1      -8.463  -2.998 128.245  0.00  0.00    +0.000 A 
ATOM      9  C   UNL     1      -8.013  -3.439 129.492  0.00  0.00    +0.000 A 
ATOM     10  C   UNL     1      -6.670  -3.212 129.517  0.00  0.00    +0.000 A 
ATOM     11  N   UNL     1      -6.281  -2.655 128.334  0.00  0.00    +0.000 N 
ATOM     12  N   UNL     1      -4.985  -2.490 128.053  0.00  0.00    +0.000 NA
ATOM     13  C   UNL     1      -4.169  -2.933 128.963  0.00  0.00    +0.000 A 
ATOM     14  N   UNL     1      -4.455  -3.475 130.168  0.00  0.00    +0.000 NA
ATOM     15  C   UNL     1      -5.697  -3.565 130.490  0.00  0.00    +0.000 A 
ATOM     16  N   UNL     1      -5.991  -4.005 131.733  0.00  0.00    +0.000 N 
ATOM     17  H   UNL     1      -5.227  -4.130 132.382  0.00  0.00    +0.000 HD
ATOM     18  H   UNL     1      -6.929  -4.258 131.989  0.00  0.00    +0.000 HD
ENDBRANCH   4   7
BRANCH   6  19
ATOM     19  O   UNL     1      -8.354  -0.283 123.623  0.00  0.00    +0.000 OA
ATOM     20  H   UNL     1      -7.536   0.174 123.360  0.00  0.00    +0.000 HD
ENDBRANCH   6  19
BRANCH   4  21
ATOM     21  C   UNL     1      -6.979  -2.721 125.128  0.00  0.00    +0.000 C 
ATOM     22  N   UNL     1      -6.570  -3.403 124.301  0.00  0.00    +0.000 NA
ENDBRANCH   4  21
BRANCH   5  23
ATOM     23  O   UNL     1      -9.690  -2.242 125.022  0.00  0.00    +0.000 OA
ATOM     24  H   UNL     1     -10.120  -1.757 124.290  0.00  0.00    +0.000 HD
ENDBRANCH   5  23
ENDBRANCH   1   2
BRANCH   1  25
ATOM     25  O   UNL     1      -8.582   2.534 126.706  0.00  0.00    +0.000 OA
BRANCH  25  26
ATOM     26  P   UNL     1      -7.658   3.927 126.458  0.00  0.00    +0.000 P 
ATOM     27  O   UNL     1      -8.793   4.472 125.556  0.00  0.00    +0.000 OA
BRANCH  26  28
ATOM     28  N   UNL     1      -8.119   4.993 127.752  0.00  0.00    +0.000 NA
ATOM     29  H   UNL     1      -7.505   5.799 127.785  0.00  0.00    +0.000 HD
BRANCH  28  30
ATOM     30  C   UNL     1      -8.224   4.392 129.122  0.00  0.00    +0.000 C 
ATOM     31  C   UNL     1      -7.467   5.236 130.128  0.00  0.00    +0.000 C 
BRANCH  30  32
ATOM     32  C   UNL     1      -9.627   4.241 129.667  0.00  0.00    +0.000 C 
ATOM     33  O   UNL     1     -10.404   5.184 129.789  0.00  0.00    +0.000 OA
BRANCH  32  34
ATOM     34  O   UNL     1      -9.958   2.935 129.856  0.00  0.00    +0.000 OA
BRANCH  34  35
ATOM     35  C   UNL     1     -10.086   2.564 131.237  0.00  0.00    +0.000 C 
BRANCH  35  36
ATOM     36  C   UNL     1      -8.832   1.770 131.677  0.00  0.00    +0.000 C 
BRANCH  36  37
ATOM     37  C   UNL     1      -9.184   0.266 131.774  0.00  0.00    +0.000 C 
ATOM     38  C   UNL     1      -8.028  -0.657 132.127  0.00  0.00    +0.000 C 
ENDBRANCH  36  37
BRANCH  36  40
ATOM     39  C   UNL     1      -9.160   3.455 133.624  0.00  0.00    +0.000 C 
ATOM     40  C   UNL     1      -8.299   2.367 132.998  0.00  0.00    +0.000 C 
ENDBRANCH  36  40
ENDBRANCH  35  36
ENDBRANCH  34  35
ENDBRANCH  32  34
ENDBRANCH  30  32
ENDBRANCH  28  30
ENDBRANCH  26  28
BRANCH  26  41
ATOM     41  O   UNL     1      -6.392   3.321 127.467  0.00  0.00    +0.000 OA
BRANCH  41  42
ATOM     42  C   UNL     1      -5.045   3.567 127.273  0.00  0.00    +0.000 A 
ATOM     43  C   UNL     1      -4.410   4.396 128.217  0.00  0.00    +0.000 A 
ATOM     44  C   UNL     1      -3.009   4.450 128.288  0.00  0.00    +0.000 A 
ATOM     45  C   UNL     1      -2.238   3.687 127.413  0.00  0.00    +0.000 A 
ATOM     46  C   UNL     1      -2.869   2.909 126.440  0.00  0.00    +0.000 A 
ATOM     47  C   UNL     1      -4.271   2.867 126.350  0.00  0.00    +0.000 A 
ENDBRANCH  41  42
ENDBRANCH  26  41
ENDBRANCH  25  26
ENDBRANCH   1  25
TORSDOF 17
ENDMDL
MODEL 6
REMARK VINA RESULT:      -8.2      2.921      9.195
REMARK  Name = Remdesivir
REMARK  20 active torsions:
REMARK  status: ('A' for Active; 'I' for Inactive)
REMARK    1  A    between atoms: C_1  and  C_2
REMARK    2  A    between atoms: C_2  and  C_3
REMARK    3  A    between atoms: C_3  and  C_4
REMARK    4  A    between atoms: C_3  and  C_6
REMARK    5  A    between atoms: C_4  and  C_5
REMARK    6  A    between atoms: C_6  and  O_7
REMARK    7  A    between atoms: O_7  and  C_8
REMARK    8  A    between atoms: C_8  and  C_10
REMARK    9  A    between atoms: C_10  and  C_11
REMARK   10  A    between atoms: C_10  and  N_12
REMARK   11  A    between atoms: N_12  and  P_13
REMARK   12  A    between atoms: P_13  and  O_15
REMARK   13  A    between atoms: P_13  and  O_36
REMARK   14  A    between atoms: O_15  and  C_16
REMARK   15  A    between atoms: C_16  and  C_17
REMARK   16  A    between atoms: C_19  and  C_20
REMARK   17  A    between atoms: C_19  and  C_26
REMARK   18  A    between atoms: C_22  and  O_23
REMARK   19  A    between atoms: C_24  and  O_25
REMARK   20  A    between atoms: O_36  and  C_37
REMARK                            x       y       z     vdW  Elec       q    Type
REMARK                         _______ _______ _______ _____ _____    ______ ____
ROOT
ATOM      1  C   UNL     1      -7.833   2.918 124.126  0.00  0.00    +0.000 C 
ENDROOT
BRANCH   1   2
ATOM      2  C   UNL     1      -8.656   1.843 123.470  0.00  0.00    +0.000 C 
ATOM      3  O   UNL     1      -7.887   0.626 123.517  0.00  0.00    +0.000 OA
ATOM      4  C   UNL     1      -8.402  -0.187 124.587  0.00  0.00    +0.000 C 
ATOM      5  C   UNL     1      -9.537   0.610 125.270  0.00  0.00    +0.000 C 
ATOM      6  C   UNL     1      -9.969   1.592 124.184  0.00  0.00    +0.000 C 
BRANCH   4   7
ATOM      7  C   UNL     1      -7.261  -0.592 125.507  0.00  0.00    +0.000 A 
ATOM      8  C   UNL     1      -5.948  -0.129 125.429  0.00  0.00    +0.000 A 
ATOM      9  C   UNL     1      -5.165  -0.786 126.381  0.00  0.00    +0.000 A 
ATOM     10  C   UNL     1      -6.010  -1.591 127.084  0.00  0.00    +0.000 A 
ATOM     11  N   UNL     1      -7.279  -1.449 126.602  0.00  0.00    +0.000 N 
ATOM     12  N   UNL     1      -8.313  -2.012 127.232  0.00  0.00    +0.000 NA
ATOM     13  C   UNL     1      -8.007  -2.644 128.326  0.00  0.00    +0.000 A 
ATOM     14  N   UNL     1      -6.788  -2.858 128.870  0.00  0.00    +0.000 NA
ATOM     15  C   UNL     1      -5.772  -2.394 128.231  0.00  0.00    +0.000 A 
ATOM     16  N   UNL     1      -4.544  -2.693 128.706  0.00  0.00    +0.000 N 
ATOM     17  H   UNL     1      -4.481  -3.356 129.466  0.00  0.00    +0.000 HD
ATOM     18  H   UNL     1      -3.722  -2.229 128.360  0.00  0.00    +0.000 HD
ENDBRANCH   4   7
BRANCH   6  19
ATOM     19  O   UNL     1     -10.929   1.003 123.298  0.00  0.00    +0.000 OA
ATOM     20  H   UNL     1     -10.568   0.188 122.905  0.00  0.00    +0.000 HD
ENDBRANCH   6  19
BRANCH   4  21
ATOM     21  C   UNL     1      -8.990  -1.426 123.962  0.00  0.00    +0.000 C 
ATOM     22  N   UNL     1      -9.486  -2.343 123.486  0.00  0.00    +0.000 NA
ENDBRANCH   4  21
BRANCH   5  23
ATOM     23  O   UNL     1     -10.630  -0.158 125.776  0.00  0.00    +0.000 OA
ATOM     24  H   UNL     1     -10.607  -0.108 126.752  0.00  0.00    +0.000 HD
ENDBRANCH   5  23
ENDBRANCH   1   2
BRANCH   1  25
ATOM     25  O   UNL     1      -8.479   3.605 125.268  0.00  0.00    +0.000 OA
BRANCH  25  26
ATOM     26  P   UNL     1      -7.570   4.875 125.912  0.00  0.00    +0.000 P 
ATOM     27  O   UNL     1      -8.896   5.588 126.276  0.00  0.00    +0.000 OA
BRANCH  26  28
ATOM     28  N   UNL     1      -7.305   4.426 127.571  0.00  0.00    +0.000 NA
ATOM     29  H   UNL     1      -6.327   4.215 127.730  0.00  0.00    +0.000 HD
BRANCH  28  30
ATOM     30  C   UNL     1      -8.150   3.315 128.116  0.00  0.00    +0.000 C 
ATOM     31  C   UNL     1      -7.307   2.078 128.351  0.00  0.00    +0.000 C 
BRANCH  30  32
ATOM     32  C   UNL     1      -8.850   3.604 129.426  0.00  0.00    +0.000 C 
ATOM     33  O   UNL     1      -8.516   3.094 130.492  0.00  0.00    +0.000 OA
BRANCH  32  34
ATOM     34  O   UNL     1      -9.776   4.593 129.297  0.00  0.00    +0.000 OA
BRANCH  34  35
ATOM     35  C   UNL     1     -10.661   4.708 130.422  0.00  0.00    +0.000 C 
BRANCH  35  36
ATOM     36  C   UNL     1     -11.642   5.882 130.189  0.00  0.00    +0.000 C 
BRANCH  36  37
ATOM     37  C   UNL     1     -11.135   6.750 129.012  0.00  0.00    +0.000 C 
ATOM     38  C   UNL     1     -12.182   7.128 127.977  0.00  0.00    +0.000 C 
ENDBRANCH  36  37
BRANCH  36  40
ATOM     39  C   UNL     1     -12.981   7.635 131.557  0.00  0.00    +0.000 C 
ATOM     40  C   UNL     1     -11.808   6.666 131.510  0.00  0.00    +0.000 C 
ENDBRANCH  36  40
ENDBRANCH  35  36
ENDBRANCH  34  35
ENDBRANCH  32  34
ENDBRANCH  30  32
ENDBRANCH  28  30
ENDBRANCH  26  28
BRANCH  26  41
ATOM     41  O   UNL     1      -6.089   4.079 125.507  0.00  0.00    +0.000 OA
BRANCH  41  42
ATOM     42  C   UNL     1      -4.974   4.029 126.323  0.00  0.00    +0.000 A 
ATOM     43  C   UNL     1      -4.209   2.848 126.278  0.00  0.00    +0.000 A 
ATOM     44  C   UNL     1      -2.912   2.821 126.817  0.00  0.00    +0.000 A 
ATOM     45  C   UNL     1      -2.380   3.965 127.408  0.00  0.00    +0.000 A 
ATOM     46  C   UNL     1      -3.162   5.118 127.502  0.00  0.00    +0.000 A 
ATOM     47  C   UNL     1      -4.468   5.146 126.985  0.00  0.00    +0.000 A 
ENDBRANCH  41  42
ENDBRANCH  26  41
ENDBRANCH  25  26
ENDBRANCH   1  25
TORSDOF 17
ENDMDL
MODEL 7
REMARK VINA RESULT:      -8.2      2.812      4.381
REMARK  Name = Remdesivir
REMARK  20 active torsions:
REMARK  status: ('A' for Active; 'I' for Inactive)
REMARK    1  A    between atoms: C_1  and  C_2
REMARK    2  A    between atoms: C_2  and  C_3
REMARK    3  A    between atoms: C_3  and  C_4
REMARK    4  A    between atoms: C_3  and  C_6
REMARK    5  A    between atoms: C_4  and  C_5
REMARK    6  A    between atoms: C_6  and  O_7
REMARK    7  A    between atoms: O_7  and  C_8
REMARK    8  A    between atoms: C_8  and  C_10
REMARK    9  A    between atoms: C_10  and  C_11
REMARK   10  A    between atoms: C_10  and  N_12
REMARK   11  A    between atoms: N_12  and  P_13
REMARK   12  A    between atoms: P_13  and  O_15
REMARK   13  A    between atoms: P_13  and  O_36
REMARK   14  A    between atoms: O_15  and  C_16
REMARK   15  A    between atoms: C_16  and  C_17
REMARK   16  A    between atoms: C_19  and  C_20
REMARK   17  A    between atoms: C_19  and  C_26
REMARK   18  A    between atoms: C_22  and  O_23
REMARK   19  A    between atoms: C_24  and  O_25
REMARK   20  A    between atoms: O_36  and  C_37
REMARK                            x       y       z     vdW  Elec       q    Type
REMARK                         _______ _______ _______ _____ _____    ______ ____
ROOT
ATOM      1  C   UNL     1      -5.101   3.615 127.932  0.00  0.00    +0.000 C 
ENDROOT
BRANCH   1   2
ATOM      2  C   UNL     1      -4.363   4.921 128.042  0.00  0.00    +0.000 C 
ATOM      3  O   UNL     1      -5.181   5.810 128.827  0.00  0.00    +0.000 OA
ATOM      4  C   UNL     1      -4.643   5.851 130.161  0.00  0.00    +0.000 C 
ATOM      5  C   UNL     1      -3.439   4.883 130.206  0.00  0.00    +0.000 C 
ATOM      6  C   UNL     1      -3.025   4.782 128.740  0.00  0.00    +0.000 C 
BRANCH   4   7
ATOM      7  C   UNL     1      -5.749   5.544 131.159  0.00  0.00    +0.000 A 
ATOM      8  C   UNL     1      -5.604   4.813 132.337  0.00  0.00    +0.000 A 
ATOM      9  C   UNL     1      -6.850   4.663 132.950  0.00  0.00    +0.000 A 
ATOM     10  C   UNL     1      -7.738   5.361 132.189  0.00  0.00    +0.000 A 
ATOM     11  N   UNL     1      -7.084   5.934 131.137  0.00  0.00    +0.000 N 
ATOM     12  N   UNL     1      -7.709   6.803 130.338  0.00  0.00    +0.000 NA
ATOM     13  C   UNL     1      -8.936   7.068 130.675  0.00  0.00    +0.000 A 
ATOM     14  N   UNL     1      -9.675   6.539 131.676  0.00  0.00    +0.000 NA
ATOM     15  C   UNL     1      -9.114   5.639 132.405  0.00  0.00    +0.000 A 
ATOM     16  N   UNL     1      -9.874   5.027 133.339  0.00  0.00    +0.000 N 
ATOM     17  H   UNL     1     -10.865   5.222 133.342  0.00  0.00    +0.000 HD
ATOM     18  H   UNL     1      -9.463   4.445 134.047  0.00  0.00    +0.000 HD
ENDBRANCH   4   7
BRANCH   6  19
ATOM     19  O   UNL     1      -2.141   5.848 128.372  0.00  0.00    +0.000 OA
ATOM     20  H   UNL     1      -1.231   5.514 128.282  0.00  0.00    +0.000 HD
ENDBRANCH   6  19
BRANCH   4  21
ATOM     21  C   UNL     1      -4.146   7.254 130.399  0.00  0.00    +0.000 C 
ATOM     22  N   UNL     1      -3.729   8.313 130.540  0.00  0.00    +0.000 NA
ENDBRANCH   4  21
BRANCH   5  23
ATOM     23  O   UNL     1      -2.355   5.265 131.053  0.00  0.00    +0.000 OA
ATOM     24  H   UNL     1      -2.459   6.213 131.267  0.00  0.00    +0.000 HD
ENDBRANCH   5  23
ENDBRANCH   1   2
BRANCH   1  25
ATOM     25  O   UNL     1      -6.170   3.574 126.909  0.00  0.00    +0.000 OA
BRANCH  25  26
ATOM     26  P   UNL     1      -7.734   3.519 127.549  0.00  0.00    +0.000 P 
ATOM     27  O   UNL     1      -8.071   4.790 126.731  0.00  0.00    +0.000 OA
BRANCH  26  28
ATOM     28  N   UNL     1      -8.624   2.518 126.440  0.00  0.00    +0.000 NA
ATOM     29  H   UNL     1      -9.565   2.358 126.782  0.00  0.00    +0.000 HD
BRANCH  28  30
ATOM     30  C   UNL     1      -8.003   1.207 126.060  0.00  0.00    +0.000 C 
ATOM     31  C   UNL     1      -9.055   0.116 126.026  0.00  0.00    +0.000 C 
BRANCH  30  32
ATOM     32  C   UNL     1      -7.315   1.173 124.713  0.00  0.00    +0.000 C 
ATOM     33  O   UNL     1      -7.099   2.179 124.044  0.00  0.00    +0.000 OA
BRANCH  32  34
ATOM     34  O   UNL     1      -6.844  -0.069 124.418  0.00  0.00    +0.000 OA
BRANCH  34  35
ATOM     35  C   UNL     1      -6.941  -0.411 123.027  0.00  0.00    +0.000 C 
BRANCH  35  36
ATOM     36  C   UNL     1      -6.954  -1.950 122.873  0.00  0.00    +0.000 C 
BRANCH  36  37
ATOM     37  C   UNL     1      -8.417  -2.458 122.901  0.00  0.00    +0.000 C 
ATOM     38  C   UNL     1      -8.821  -3.224 124.150  0.00  0.00    +0.000 C 
ENDBRANCH  36  37
BRANCH  36  40
ATOM     39  C   UNL     1      -4.837  -3.325 123.476  0.00  0.00    +0.000 C 
ATOM     40  C   UNL     1      -6.063  -2.572 123.971  0.00  0.00    +0.000 C 
ENDBRANCH  36  40
ENDBRANCH  35  36
ENDBRANCH  34  35
ENDBRANCH  32  34
ENDBRANCH  30  32
ENDBRANCH  28  30
ENDBRANCH  26  28
BRANCH  26  41
ATOM     41  O   UNL     1      -7.358   2.098 128.460  0.00  0.00    +0.000 OA
BRANCH  41  42
ATOM     42  C   UNL     1      -8.137   1.591 129.484  0.00  0.00    +0.000 A 
ATOM     43  C   UNL     1      -7.917   0.247 129.840  0.00  0.00    +0.000 A 
ATOM     44  C   UNL     1      -8.421  -0.259 131.050  0.00  0.00    +0.000 A 
ATOM     45  C   UNL     1      -9.152   0.569 131.900  0.00  0.00    +0.000 A 
ATOM     46  C   UNL     1      -9.416   1.886 131.518  0.00  0.00    +0.000 A 
ATOM     47  C   UNL     1      -8.934   2.392 130.299  0.00  0.00    +0.000 A 
ENDBRANCH  41  42
ENDBRANCH  26  41
ENDBRANCH  25  26
ENDBRANCH   1  25
TORSDOF 17
ENDMDL
MODEL 8
REMARK VINA RESULT:      -8.1      3.470      8.855
REMARK  Name = Remdesivir
REMARK  20 active torsions:
REMARK  status: ('A' for Active; 'I' for Inactive)
REMARK    1  A    between atoms: C_1  and  C_2
REMARK    2  A    between atoms: C_2  and  C_3
REMARK    3  A    between atoms: C_3  and  C_4
REMARK    4  A    between atoms: C_3  and  C_6
REMARK    5  A    between atoms: C_4  and  C_5
REMARK    6  A    between atoms: C_6  and  O_7
REMARK    7  A    between atoms: O_7  and  C_8
REMARK    8  A    between atoms: C_8  and  C_10
REMARK    9  A    between atoms: C_10  and  C_11
REMARK   10  A    between atoms: C_10  and  N_12
REMARK   11  A    between atoms: N_12  and  P_13
REMARK   12  A    between atoms: P_13  and  O_15
REMARK   13  A    between atoms: P_13  and  O_36
REMARK   14  A    between atoms: O_15  and  C_16
REMARK   15  A    between atoms: C_16  and  C_17
REMARK   16  A    between atoms: C_19  and  C_20
REMARK   17  A    between atoms: C_19  and  C_26
REMARK   18  A    between atoms: C_22  and  O_23
REMARK   19  A    between atoms: C_24  and  O_25
REMARK   20  A    between atoms: O_36  and  C_37
REMARK                            x       y       z     vdW  Elec       q    Type
REMARK                         _______ _______ _______ _____ _____    ______ ____
ROOT
ATOM      1  C   UNL     1      -5.494   3.169 127.457  0.00  0.00    +0.000 C 
ENDROOT
BRANCH   1   2
ATOM      2  C   UNL     1      -5.389   3.934 126.165  0.00  0.00    +0.000 C 
ATOM      3  O   UNL     1      -5.229   2.968 125.108  0.00  0.00    +0.000 OA
ATOM      4  C   UNL     1      -6.500   2.812 124.450  0.00  0.00    +0.000 C 
ATOM      5  C   UNL     1      -7.518   3.712 125.188  0.00  0.00    +0.000 C 
ATOM      6  C   UNL     1      -6.629   4.751 125.865  0.00  0.00    +0.000 C 
BRANCH   4   7
ATOM      7  C   UNL     1      -6.866   1.337 124.404  0.00  0.00    +0.000 A 
ATOM      8  C   UNL     1      -6.181   0.308 125.049  0.00  0.00    +0.000 A 
ATOM      9  C   UNL     1      -6.755  -0.920 124.707  0.00  0.00    +0.000 A 
ATOM     10  C   UNL     1      -7.827  -0.634 123.917  0.00  0.00    +0.000 A 
ATOM     11  N   UNL     1      -7.934   0.718 123.765  0.00  0.00    +0.000 N 
ATOM     12  N   UNL     1      -9.001   1.253 123.167  0.00  0.00    +0.000 NA
ATOM     13  C   UNL     1      -9.907   0.397 122.798  0.00  0.00    +0.000 A 
ATOM     14  N   UNL     1      -9.884  -0.952 122.882  0.00  0.00    +0.000 NA
ATOM     15  C   UNL     1      -8.827  -1.490 123.381  0.00  0.00    +0.000 A 
ATOM     16  N   UNL     1      -8.747  -2.838 123.372  0.00  0.00    +0.000 N 
ATOM     17  H   UNL     1      -9.462  -3.350 122.874  0.00  0.00    +0.000 HD
ATOM     18  H   UNL     1      -8.036  -3.323 123.892  0.00  0.00    +0.000 HD
ENDBRANCH   4   7
BRANCH   6  19
ATOM     19  O   UNL     1      -6.325   5.837 124.980  0.00  0.00    +0.000 OA
ATOM     20  H   UNL     1      -5.541   6.320 125.298  0.00  0.00    +0.000 HD
ENDBRANCH   6  19
BRANCH   4  21
ATOM     21  C   UNL     1      -6.337   3.320 123.040  0.00  0.00    +0.000 C 
ATOM     22  N   UNL     1      -6.269   3.711 121.965  0.00  0.00    +0.000 NA
ENDBRANCH   4  21
BRANCH   5  23
ATOM     23  O   UNL     1      -8.533   4.309 124.379  0.00  0.00    +0.000 OA
ATOM     24  H   UNL     1      -8.929   5.045 124.887  0.00  0.00    +0.000 HD
ENDBRANCH   5  23
ENDBRANCH   1   2
BRANCH   1  25
ATOM     25  O   UNL     1      -5.925   3.961 128.630  0.00  0.00    +0.000 OA
BRANCH  25  26
ATOM     26  P   UNL     1      -5.324   3.393 130.104  0.00  0.00    +0.000 P 
ATOM     27  O   UNL     1      -3.952   3.181 129.417  0.00  0.00    +0.000 OA
BRANCH  26  28
ATOM     28  N   UNL     1      -4.744   4.816 130.918  0.00  0.00    +0.000 NA
ATOM     29  H   UNL     1      -4.041   4.571 131.605  0.00  0.00    +0.000 HD
BRANCH  28  30
ATOM     30  C   UNL     1      -5.773   5.702 131.551  0.00  0.00    +0.000 C 
ATOM     31  C   UNL     1      -5.306   6.158 132.920  0.00  0.00    +0.000 C 
BRANCH  30  32
ATOM     32  C   UNL     1      -6.121   6.959 130.784  0.00  0.00    +0.000 C 
ATOM     33  O   UNL     1      -5.286   7.796 130.455  0.00  0.00    +0.000 OA
BRANCH  32  34
ATOM     34  O   UNL     1      -7.422   6.964 130.384  0.00  0.00    +0.000 OA
BRANCH  34  35
ATOM     35  C   UNL     1      -8.341   6.534 131.399  0.00  0.00    +0.000 C 
BRANCH  35  36
ATOM     36  C   UNL     1      -9.753   6.376 130.785  0.00  0.00    +0.000 C 
BRANCH  36  37
ATOM     37  C   UNL     1      -9.985   7.492 129.738  0.00  0.00    +0.000 C 
ATOM     38  C   UNL     1     -10.388   7.017 128.350  0.00  0.00    +0.000 C 
ENDBRANCH  36  37
BRANCH  36  40
ATOM     39  C   UNL     1     -12.202   6.801 131.530  0.00  0.00    +0.000 C 
ATOM     40  C   UNL     1     -10.797   6.368 131.923  0.00  0.00    +0.000 C 
ENDBRANCH  36  40
ENDBRANCH  35  36
ENDBRANCH  34  35
ENDBRANCH  32  34
ENDBRANCH  30  32
ENDBRANCH  28  30
ENDBRANCH  26  28
BRANCH  26  41
ATOM     41  O   UNL     1      -6.855   3.632 130.871  0.00  0.00    +0.000 OA
BRANCH  41  42
ATOM     42  C   UNL     1      -7.832   2.661 130.996  0.00  0.00    +0.000 A 
ATOM     43  C   UNL     1      -7.514   1.377 130.515  0.00  0.00    +0.000 A 
ATOM     44  C   UNL     1      -8.299   0.269 130.873  0.00  0.00    +0.000 A 
ATOM     45  C   UNL     1      -9.406   0.439 131.702  0.00  0.00    +0.000 A 
ATOM     46  C   UNL     1      -9.753   1.722 132.132  0.00  0.00    +0.000 A 
ATOM     47  C   UNL     1      -8.984   2.837 131.760  0.00  0.00    +0.000 A 
ENDBRANCH  41  42
ENDBRANCH  26  41
ENDBRANCH  25  26
ENDBRANCH   1  25
TORSDOF 17
ENDMDL
MODEL 9
REMARK VINA RESULT:      -8.1      3.059      4.719
REMARK  Name = Remdesivir
REMARK  20 active torsions:
REMARK  status: ('A' for Active; 'I' for Inactive)
REMARK    1  A    between atoms: C_1  and  C_2
REMARK    2  A    between atoms: C_2  and  C_3
REMARK    3  A    between atoms: C_3  and  C_4
REMARK    4  A    between atoms: C_3  and  C_6
REMARK    5  A    between atoms: C_4  and  C_5
REMARK    6  A    between atoms: C_6  and  O_7
REMARK    7  A    between atoms: O_7  and  C_8
REMARK    8  A    between atoms: C_8  and  C_10
REMARK    9  A    between atoms: C_10  and  C_11
REMARK   10  A    between atoms: C_10  and  N_12
REMARK   11  A    between atoms: N_12  and  P_13
REMARK   12  A    between atoms: P_13  and  O_15
REMARK   13  A    between atoms: P_13  and  O_36
REMARK   14  A    between atoms: O_15  and  C_16
REMARK   15  A    between atoms: C_16  and  C_17
REMARK   16  A    between atoms: C_19  and  C_20
REMARK   17  A    between atoms: C_19  and  C_26
REMARK   18  A    between atoms: C_22  and  O_23
REMARK   19  A    between atoms: C_24  and  O_25
REMARK   20  A    between atoms: O_36  and  C_37
REMARK                            x       y       z     vdW  Elec       q    Type
REMARK                         _______ _______ _______ _____ _____    ______ ____
ROOT
ATOM      1  C   UNL     1      -5.125   4.301 128.031  0.00  0.00    +0.000 C 
ENDROOT
BRANCH   1   2
ATOM      2  C   UNL     1      -4.254   5.514 128.214  0.00  0.00    +0.000 C 
ATOM      3  O   UNL     1      -4.953   6.413 129.096  0.00  0.00    +0.000 OA
ATOM      4  C   UNL     1      -4.374   6.292 130.409  0.00  0.00    +0.000 C 
ATOM      5  C   UNL     1      -3.275   5.208 130.331  0.00  0.00    +0.000 C 
ATOM      6  C   UNL     1      -2.917   5.186 128.848  0.00  0.00    +0.000 C 
BRANCH   4   7
ATOM      7  C   UNL     1      -5.475   6.015 131.421  0.00  0.00    +0.000 A 
ATOM      8  C   UNL     1      -5.294   5.486 132.698  0.00  0.00    +0.000 A 
ATOM      9  C   UNL     1      -6.537   5.293 133.304  0.00  0.00    +0.000 A 
ATOM     10  C   UNL     1      -7.467   5.769 132.430  0.00  0.00    +0.000 A 
ATOM     11  N   UNL     1      -6.842   6.249 131.316  0.00  0.00    +0.000 N 
ATOM     12  N   UNL     1      -7.528   6.917 130.384  0.00  0.00    +0.000 NA
ATOM     13  C   UNL     1      -8.787   7.091 130.655  0.00  0.00    +0.000 A 
ATOM     14  N   UNL     1      -9.500   6.638 131.711  0.00  0.00    +0.000 NA
ATOM     15  C   UNL     1      -8.872   5.923 132.577  0.00  0.00    +0.000 A 
ATOM     16  N   UNL     1      -9.595   5.376 133.578  0.00  0.00    +0.000 N 
ATOM     17  H   UNL     1     -10.600   5.459 133.534  0.00  0.00    +0.000 HD
ATOM     18  H   UNL     1      -9.149   4.952 134.373  0.00  0.00    +0.000 HD
ENDBRANCH   4   7
BRANCH   6  19
ATOM     19  O   UNL     1      -1.941   6.186 128.530  0.00  0.00    +0.000 OA
ATOM     20  H   UNL     1      -2.379   7.034 128.336  0.00  0.00    +0.000 HD
ENDBRANCH   6  19
BRANCH   4  21
ATOM     21  C   UNL     1      -3.729   7.614 130.736  0.00  0.00    +0.000 C 
ATOM     22  N   UNL     1      -3.238   8.605 131.039  0.00  0.00    +0.000 NA
ENDBRANCH   4  21
BRANCH   5  23
ATOM     23  O   UNL     1      -2.131   5.410 131.164  0.00  0.00    +0.000 OA
ATOM     24  H   UNL     1      -2.055   6.368 131.343  0.00  0.00    +0.000 HD
ENDBRANCH   5  23
ENDBRANCH   1   2
BRANCH   1  25
ATOM     25  O   UNL     1      -6.439   4.554 127.398  0.00  0.00    +0.000 OA
BRANCH  25  26
ATOM     26  P   UNL     1      -7.757   4.022 128.312  0.00  0.00    +0.000 P 
ATOM     27  O   UNL     1      -8.649   5.022 127.535  0.00  0.00    +0.000 OA
BRANCH  26  28
ATOM     28  N   UNL     1      -8.402   2.682 127.411  0.00  0.00    +0.000 NA
ATOM     29  H   UNL     1      -9.166   2.248 127.917  0.00  0.00    +0.000 HD
BRANCH  28  30
ATOM     30  C   UNL     1      -7.431   1.627 126.975  0.00  0.00    +0.000 C 
ATOM     31  C   UNL     1      -7.932   0.252 127.371  0.00  0.00    +0.000 C 
BRANCH  30  32
ATOM     32  C   UNL     1      -7.153   1.563 125.489  0.00  0.00    +0.000 C 
ATOM     33  O   UNL     1      -6.375   2.323 124.919  0.00  0.00    +0.000 OA
BRANCH  32  34
ATOM     34  O   UNL     1      -7.746   0.484 124.910  0.00  0.00    +0.000 OA
BRANCH  34  35
ATOM     35  C   UNL     1      -7.066   0.008 123.739  0.00  0.00    +0.000 C 
BRANCH  35  36
ATOM     36  C   UNL     1      -7.307  -1.512 123.583  0.00  0.00    +0.000 C 
BRANCH  36  37
ATOM     37  C   UNL     1      -6.202  -2.118 122.684  0.00  0.00    +0.000 C 
ATOM     38  C   UNL     1      -5.144  -2.938 123.406  0.00  0.00    +0.000 C 
ENDBRANCH  36  37
BRANCH  36  40
ATOM     39  C   UNL     1      -9.339  -3.108 123.336  0.00  0.00    +0.000 C 
ATOM     40  C   UNL     1      -8.737  -1.741 123.045  0.00  0.00    +0.000 C 
ENDBRANCH  36  40
ENDBRANCH  35  36
ENDBRANCH  34  35
ENDBRANCH  32  34
ENDBRANCH  30  32
ENDBRANCH  28  30
ENDBRANCH  26  28
BRANCH  26  41
ATOM     41  O   UNL     1      -6.762   2.904 129.178  0.00  0.00    +0.000 OA
BRANCH  41  42
ATOM     42  C   UNL     1      -7.076   2.363 130.411  0.00  0.00    +0.000 A 
ATOM     43  C   UNL     1      -5.995   2.004 131.238  0.00  0.00    +0.000 A 
ATOM     44  C   UNL     1      -6.199   1.748 132.604  0.00  0.00    +0.000 A 
ATOM     45  C   UNL     1      -7.480   1.838 133.145  0.00  0.00    +0.000 A 
ATOM     46  C   UNL     1      -8.560   2.139 132.311  0.00  0.00    +0.000 A 
ATOM     47  C   UNL     1      -8.365   2.375 130.939  0.00  0.00    +0.000 A 
ENDBRANCH  41  42
ENDBRANCH  26  41
ENDBRANCH  25  26
ENDBRANCH   1  25
TORSDOF 17
ENDMDL
