MODEL 1
REMARK VINA RESULT:      -8.2      0.000      0.000
REMARK  Name = Remimazolam
REMARK  7 active torsions:
REMARK  status: ('A' for Active; 'I' for Inactive)
REMARK    1  A    between atoms: C_1  and  O_2
REMARK    2  A    between atoms: O_2  and  C_3
REMARK    3  A    between atoms: C_3  and  C_5
REMARK    4  A    between atoms: C_5  and  C_6
REMARK    5  A    between atoms: C_6  and  C_7
REMARK    6  A    between atoms: C_9  and  C_10
REMARK    7  A    between atoms: C_24  and  C_25
REMARK                            x       y       z     vdW  Elec       q    Type
REMARK                         _______ _______ _______ _____ _____    ______ ____
ROOT
ATOM      1  C   UNL     1      -9.491   6.718 130.584  0.00  0.00    +0.000 C 
ATOM      2  N   UNL     1      -8.059   6.785 130.282  0.00  0.00    +0.000 NA
ATOM      3  C   UNL     1      -7.176   6.347 131.118  0.00  0.00    +0.000 C 
ATOM      4  C   UNL     1      -7.476   5.724 132.459  0.00  0.00    +0.000 A 
ATOM      5  C   UNL     1      -6.632   6.041 133.542  0.00  0.00    +0.000 A 
ATOM      6  C   UNL     1      -6.798   5.421 134.785  0.00  0.00    +0.000 A 
ATOM      7 BR   UNL     1      -5.661   5.861 136.227  0.00  0.00    +0.000 Br
ATOM      8  C   UNL     1      -7.807   4.489 134.981  0.00  0.00    +0.000 A 
ATOM      9  C   UNL     1      -8.669   4.192 133.933  0.00  0.00    +0.000 A 
ATOM     10  C   UNL     1      -8.502   4.783 132.667  0.00  0.00    +0.000 A 
ATOM     11  N   UNL     1      -9.410   4.424 131.640  0.00  0.00    +0.000 N 
ATOM     12  C   UNL     1     -10.023   3.195 131.423  0.00  0.00    +0.000 A 
ATOM     13  C   UNL     1      -9.745   1.906 132.103  0.00  0.00    +0.000 C 
ATOM     14  C   UNL     1     -10.884   3.406 130.368  0.00  0.00    +0.000 A 
ATOM     15  N   UNL     1     -10.829   4.690 129.937  0.00  0.00    +0.000 NA
ATOM     16  C   UNL     1      -9.913   5.283 130.680  0.00  0.00    +0.000 A 
ENDROOT
BRANCH   3  17
ATOM     17  C   UNL     1      -5.727   6.444 130.725  0.00  0.00    +0.000 A 
ATOM     18  C   UNL     1      -4.900   5.331 130.840  0.00  0.00    +0.000 A 
ATOM     19  C   UNL     1      -3.528   5.512 130.685  0.00  0.00    +0.000 A 
ATOM     20  C   UNL     1      -3.041   6.763 130.326  0.00  0.00    +0.000 A 
ATOM     21  C   UNL     1      -3.955   7.785 130.118  0.00  0.00    +0.000 A 
ATOM     22  N   UNL     1      -5.282   7.670 130.357  0.00  0.00    +0.000 NA
ENDBRANCH   3  17
BRANCH   1  23
ATOM     23  C   UNL     1     -10.244   7.420 129.434  0.00  0.00    +0.000 C 
BRANCH  23  24
ATOM     24  C   UNL     1     -11.648   7.905 129.832  0.00  0.00    +0.000 C 
BRANCH  24  25
ATOM     25  C   UNL     1     -12.574   7.893 128.632  0.00  0.00    +0.000 C 
ATOM     26  O   UNL     1     -13.405   8.760 128.376  0.00  0.00    +0.000 OA
BRANCH  25  28
ATOM     27  C   UNL     1     -12.441   7.033 126.459  0.00  0.00    +0.000 C 
ATOM     28  O   UNL     1     -12.379   6.778 127.869  0.00  0.00    +0.000 OA
ENDBRANCH  25  28
ENDBRANCH  24  25
ENDBRANCH  23  24
ENDBRANCH   1  23
TORSDOF 5
ENDMDL
MODEL 2
REMARK VINA RESULT:      -7.8      2.301      3.429
REMARK  Name = Remimazolam
REMARK  7 active torsions:
REMARK  status: ('A' for Active; 'I' for Inactive)
REMARK    1  A    between atoms: C_1  and  O_2
REMARK    2  A    between atoms: O_2  and  C_3
REMARK    3  A    between atoms: C_3  and  C_5
REMARK    4  A    between atoms: C_5  and  C_6
REMARK    5  A    between atoms: C_6  and  C_7
REMARK    6  A    between atoms: C_9  and  C_10
REMARK    7  A    between atoms: C_24  and  C_25
REMARK                            x       y       z     vdW  Elec       q    Type
REMARK                         _______ _______ _______ _____ _____    ______ ____
ROOT
ATOM      1  C   UNL     1      -7.808   6.441 131.731  0.00  0.00    +0.000 C 
ATOM      2  N   UNL     1      -6.886   6.049 130.662  0.00  0.00    +0.000 NA
ATOM      3  C   UNL     1      -5.608   6.046 130.848  0.00  0.00    +0.000 C 
ATOM      4  C   UNL     1      -4.910   6.419 132.133  0.00  0.00    +0.000 A 
ATOM      5  C   UNL     1      -3.714   7.160 132.048  0.00  0.00    +0.000 A 
ATOM      6  C   UNL     1      -2.970   7.451 133.196  0.00  0.00    +0.000 A 
ATOM      7 BR   UNL     1      -1.371   8.449 133.066  0.00  0.00    +0.000 Br
ATOM      8  C   UNL     1      -3.401   7.029 134.445  0.00  0.00    +0.000 A 
ATOM      9  C   UNL     1      -4.597   6.327 134.549  0.00  0.00    +0.000 A 
ATOM     10  C   UNL     1      -5.346   5.999 133.404  0.00  0.00    +0.000 A 
ATOM     11  N   UNL     1      -6.548   5.271 133.582  0.00  0.00    +0.000 N 
ATOM     12  C   UNL     1      -6.832   4.296 134.532  0.00  0.00    +0.000 A 
ATOM     13  C   UNL     1      -5.894   3.648 135.481  0.00  0.00    +0.000 C 
ATOM     14  C   UNL     1      -8.161   3.987 134.340  0.00  0.00    +0.000 A 
ATOM     15  N   UNL     1      -8.697   4.719 133.333  0.00  0.00    +0.000 NA
ATOM     16  C   UNL     1      -7.712   5.458 132.858  0.00  0.00    +0.000 A 
ENDROOT
BRANCH   3  17
ATOM     17  C   UNL     1      -4.731   5.619 129.701  0.00  0.00    +0.000 A 
ATOM     18  C   UNL     1      -4.114   4.373 129.725  0.00  0.00    +0.000 A 
ATOM     19  C   UNL     1      -3.140   4.103 128.767  0.00  0.00    +0.000 A 
ATOM     20  C   UNL     1      -2.888   5.036 127.767  0.00  0.00    +0.000 A 
ATOM     21  C   UNL     1      -3.640   6.201 127.758  0.00  0.00    +0.000 A 
ATOM     22  N   UNL     1      -4.521   6.539 128.727  0.00  0.00    +0.000 NA
ENDBRANCH   3  17
BRANCH   1  23
ATOM     23  C   UNL     1      -9.235   6.437 131.141  0.00  0.00    +0.000 C 
BRANCH  23  24
ATOM     24  C   UNL     1      -9.360   7.253 129.844  0.00  0.00    +0.000 C 
BRANCH  24  25
ATOM     25  C   UNL     1     -10.328   6.585 128.888  0.00  0.00    +0.000 C 
ATOM     26  O   UNL     1     -11.335   5.967 129.224  0.00  0.00    +0.000 OA
BRANCH  25  28
ATOM     27  C   UNL     1     -10.836   7.533 126.809  0.00  0.00    +0.000 C 
ATOM     28  O   UNL     1      -9.931   6.743 127.592  0.00  0.00    +0.000 OA
ENDBRANCH  25  28
ENDBRANCH  24  25
ENDBRANCH  23  24
ENDBRANCH   1  23
TORSDOF 5
ENDMDL
MODEL 3
REMARK VINA RESULT:      -7.6      6.924      9.003
REMARK  Name = Remimazolam
REMARK  7 active torsions:
REMARK  status: ('A' for Active; 'I' for Inactive)
REMARK    1  A    between atoms: C_1  and  O_2
REMARK    2  A    between atoms: O_2  and  C_3
REMARK    3  A    between atoms: C_3  and  C_5
REMARK    4  A    between atoms: C_5  and  C_6
REMARK    5  A    between atoms: C_6  and  C_7
REMARK    6  A    between atoms: C_9  and  C_10
REMARK    7  A    between atoms: C_24  and  C_25
REMARK                            x       y       z     vdW  Elec       q    Type
REMARK                         _______ _______ _______ _____ _____    ______ ____
ROOT
ATOM      1  C   UNL     1      -7.685   2.388 127.314  0.00  0.00    +0.000 C 
ATOM      2  N   UNL     1      -7.857   1.210 126.460  0.00  0.00    +0.000 NA
ATOM      3  C   UNL     1      -7.426   1.197 125.242  0.00  0.00    +0.000 C 
ATOM      4  C   UNL     1      -6.710   2.334 124.556  0.00  0.00    +0.000 A 
ATOM      5  C   UNL     1      -7.015   2.593 123.205  0.00  0.00    +0.000 A 
ATOM      6  C   UNL     1      -6.314   3.568 122.487  0.00  0.00    +0.000 A 
ATOM      7 BR   UNL     1      -6.739   3.905 120.677  0.00  0.00    +0.000 Br
ATOM      8  C   UNL     1      -5.313   4.311 123.094  0.00  0.00    +0.000 A 
ATOM      9  C   UNL     1      -5.024   4.092 124.436  0.00  0.00    +0.000 A 
ATOM     10  C   UNL     1      -5.697   3.097 125.169  0.00  0.00    +0.000 A 
ATOM     11  N   UNL     1      -5.343   2.919 126.529  0.00  0.00    +0.000 N 
ATOM     12  C   UNL     1      -4.094   3.066 127.121  0.00  0.00    +0.000 A 
ATOM     13  C   UNL     1      -2.787   3.274 126.449  0.00  0.00    +0.000 C 
ATOM     14  C   UNL     1      -4.312   2.884 128.469  0.00  0.00    +0.000 A 
ATOM     15  N   UNL     1      -5.621   2.637 128.727  0.00  0.00    +0.000 NA
ATOM     16  C   UNL     1      -6.224   2.621 127.553  0.00  0.00    +0.000 A 
ENDROOT
BRANCH   3  17
ATOM     17  C   UNL     1      -7.634  -0.056 124.435  0.00  0.00    +0.000 A 
ATOM     18  C   UNL     1      -6.546  -0.855 124.100  0.00  0.00    +0.000 A 
ATOM     19  C   UNL     1      -6.739  -1.875 123.172  0.00  0.00    +0.000 A 
ATOM     20  C   UNL     1      -8.019  -2.126 122.690  0.00  0.00    +0.000 A 
ATOM     21  C   UNL     1      -9.062  -1.351 123.173  0.00  0.00    +0.000 A 
ATOM     22  N   UNL     1      -8.896  -0.290 123.997  0.00  0.00    +0.000 NA
ENDBRANCH   3  17
BRANCH   1  23
ATOM     23  C   UNL     1      -8.405   2.104 128.651  0.00  0.00    +0.000 C 
BRANCH  23  24
ATOM     24  C   UNL     1      -8.855   3.379 129.383  0.00  0.00    +0.000 C 
BRANCH  24  25
ATOM     25  C   UNL     1      -9.929   3.055 130.401  0.00  0.00    +0.000 C 
ATOM     26  O   UNL     1      -9.770   2.345 131.391  0.00  0.00    +0.000 OA
BRANCH  25  28
ATOM     27  C   UNL     1     -11.206   5.015 130.482  0.00  0.00    +0.000 C 
ATOM     28  O   UNL     1     -11.116   3.644 130.072  0.00  0.00    +0.000 OA
ENDBRANCH  25  28
ENDBRANCH  24  25
ENDBRANCH  23  24
ENDBRANCH   1  23
TORSDOF 5
ENDMDL
MODEL 4
REMARK VINA RESULT:      -7.4      3.125      5.889
REMARK  Name = Remimazolam
REMARK  7 active torsions:
REMARK  status: ('A' for Active; 'I' for Inactive)
REMARK    1  A    between atoms: C_1  and  O_2
REMARK    2  A    between atoms: O_2  and  C_3
REMARK    3  A    between atoms: C_3  and  C_5
REMARK    4  A    between atoms: C_5  and  C_6
REMARK    5  A    between atoms: C_6  and  C_7
REMARK    6  A    between atoms: C_9  and  C_10
REMARK    7  A    between atoms: C_24  and  C_25
REMARK                            x       y       z     vdW  Elec       q    Type
REMARK                         _______ _______ _______ _____ _____    ______ ____
ROOT
ATOM      1  C   UNL     1      -5.883   4.223 128.702  0.00  0.00    +0.000 C 
ATOM      2  N   UNL     1      -7.279   4.644 128.850  0.00  0.00    +0.000 NA
ATOM      3  C   UNL     1      -7.711   5.156 129.955  0.00  0.00    +0.000 C 
ATOM      4  C   UNL     1      -6.881   5.392 131.192  0.00  0.00    +0.000 A 
ATOM      5  C   UNL     1      -7.471   5.138 132.446  0.00  0.00    +0.000 A 
ATOM      6  C   UNL     1      -6.788   5.430 133.631  0.00  0.00    +0.000 A 
ATOM      7 BR   UNL     1      -7.592   5.081 135.304  0.00  0.00    +0.000 Br
ATOM      8  C   UNL     1      -5.508   5.964 133.597  0.00  0.00    +0.000 A 
ATOM      9  C   UNL     1      -4.898   6.187 132.368  0.00  0.00    +0.000 A 
ATOM     10  C   UNL     1      -5.578   5.927 131.164  0.00  0.00    +0.000 A 
ATOM     11  N   UNL     1      -4.902   6.190 129.947  0.00  0.00    +0.000 N 
ATOM     12  C   UNL     1      -3.985   7.198 129.671  0.00  0.00    +0.000 A 
ATOM     13  C   UNL     1      -3.621   8.356 130.525  0.00  0.00    +0.000 C 
ATOM     14  C   UNL     1      -3.552   6.947 128.388  0.00  0.00    +0.000 A 
ATOM     15  N   UNL     1      -4.151   5.845 127.873  0.00  0.00    +0.000 NA
ATOM     16  C   UNL     1      -4.988   5.421 128.801  0.00  0.00    +0.000 A 
ENDROOT
BRANCH   3  17
ATOM     17  C   UNL     1      -9.156   5.572 130.020  0.00  0.00    +0.000 A 
ATOM     18  C   UNL     1      -9.486   6.917 130.147  0.00  0.00    +0.000 A 
ATOM     19  C   UNL     1     -10.810   7.246 130.429  0.00  0.00    +0.000 A 
ATOM     20  C   UNL     1     -11.768   6.239 130.475  0.00  0.00    +0.000 A 
ATOM     21  C   UNL     1     -11.362   4.939 130.216  0.00  0.00    +0.000 A 
ATOM     22  N   UNL     1     -10.072   4.572 130.039  0.00  0.00    +0.000 NA
ENDBRANCH   3  17
BRANCH   1  23
ATOM     23  C   UNL     1      -5.740   3.563 127.313  0.00  0.00    +0.000 C 
BRANCH  23  24
ATOM     24  C   UNL     1      -6.997   3.704 126.439  0.00  0.00    +0.000 C 
BRANCH  24  25
ATOM     25  C   UNL     1      -6.711   4.580 125.236  0.00  0.00    +0.000 C 
ATOM     26  O   UNL     1      -6.374   5.760 125.289  0.00  0.00    +0.000 OA
BRANCH  25  28
ATOM     27  C   UNL     1      -8.138   3.187 124.011  0.00  0.00    +0.000 C 
ATOM     28  O   UNL     1      -6.892   3.893 124.071  0.00  0.00    +0.000 OA
ENDBRANCH  25  28
ENDBRANCH  24  25
ENDBRANCH  23  24
ENDBRANCH   1  23
TORSDOF 5
ENDMDL
MODEL 5
REMARK VINA RESULT:      -7.3      6.520      8.786
REMARK  Name = Remimazolam
REMARK  7 active torsions:
REMARK  status: ('A' for Active; 'I' for Inactive)
REMARK    1  A    between atoms: C_1  and  O_2
REMARK    2  A    between atoms: O_2  and  C_3
REMARK    3  A    between atoms: C_3  and  C_5
REMARK    4  A    between atoms: C_5  and  C_6
REMARK    5  A    between atoms: C_6  and  C_7
REMARK    6  A    between atoms: C_9  and  C_10
REMARK    7  A    between atoms: C_24  and  C_25
REMARK                            x       y       z     vdW  Elec       q    Type
REMARK                         _______ _______ _______ _____ _____    ______ ____
ROOT
ATOM      1  C   UNL     1      -8.686   1.786 128.516  0.00  0.00    +0.000 C 
ATOM      2  N   UNL     1      -7.939   0.586 128.902  0.00  0.00    +0.000 NA
ATOM      3  C   UNL     1      -7.662  -0.337 128.041  0.00  0.00    +0.000 C 
ATOM      4  C   UNL     1      -8.041  -0.312 126.581  0.00  0.00    +0.000 A 
ATOM      5  C   UNL     1      -8.459  -1.517 125.982  0.00  0.00    +0.000 A 
ATOM      6  C   UNL     1      -8.729  -1.579 124.611  0.00  0.00    +0.000 A 
ATOM      7 BR   UNL     1      -9.294  -3.202 123.826  0.00  0.00    +0.000 Br
ATOM      8  C   UNL     1      -8.602  -0.452 123.813  0.00  0.00    +0.000 A 
ATOM      9  C   UNL     1      -8.224   0.752 124.395  0.00  0.00    +0.000 A 
ATOM     10  C   UNL     1      -7.921   0.831 125.766  0.00  0.00    +0.000 A 
ATOM     11  N   UNL     1      -7.529   2.088 126.290  0.00  0.00    +0.000 N 
ATOM     12  C   UNL     1      -6.794   3.090 125.667  0.00  0.00    +0.000 A 
ATOM     13  C   UNL     1      -6.087   3.024 124.364  0.00  0.00    +0.000 C 
ATOM     14  C   UNL     1      -6.783   4.135 126.564  0.00  0.00    +0.000 A 
ATOM     15  N   UNL     1      -7.469   3.825 127.691  0.00  0.00    +0.000 NA
ATOM     16  C   UNL     1      -7.879   2.581 127.534  0.00  0.00    +0.000 A 
ENDROOT
BRANCH   3  17
ATOM     17  C   UNL     1      -6.882  -1.533 128.518  0.00  0.00    +0.000 A 
ATOM     18  C   UNL     1      -7.488  -2.470 129.348  0.00  0.00    +0.000 A 
ATOM     19  C   UNL     1      -6.683  -3.435 129.949  0.00  0.00    +0.000 A 
ATOM     20  C   UNL     1      -5.332  -3.493 129.626  0.00  0.00    +0.000 A 
ATOM     21  C   UNL     1      -4.843  -2.589 128.695  0.00  0.00    +0.000 A 
ATOM     22  N   UNL     1      -5.573  -1.578 128.169  0.00  0.00    +0.000 NA
ENDBRANCH   3  17
BRANCH   1  23
ATOM     23  C   UNL     1      -8.933   2.613 129.797  0.00  0.00    +0.000 C 
BRANCH  23  24
ATOM     24  C   UNL     1      -8.125   2.118 131.007  0.00  0.00    +0.000 C 
BRANCH  24  25
ATOM     25  C   UNL     1      -9.053   1.690 132.126  0.00  0.00    +0.000 C 
ATOM     26  O   UNL     1     -10.052   0.990 131.982  0.00  0.00    +0.000 OA
BRANCH  25  28
ATOM     27  C   UNL     1      -9.176   3.499 133.605  0.00  0.00    +0.000 C 
ATOM     28  O   UNL     1      -8.646   2.196 133.326  0.00  0.00    +0.000 OA
ENDBRANCH  25  28
ENDBRANCH  24  25
ENDBRANCH  23  24
ENDBRANCH   1  23
TORSDOF 5
ENDMDL
MODEL 6
REMARK VINA RESULT:      -7.3      6.264      8.067
REMARK  Name = Remimazolam
REMARK  7 active torsions:
REMARK  status: ('A' for Active; 'I' for Inactive)
REMARK    1  A    between atoms: C_1  and  O_2
REMARK    2  A    between atoms: O_2  and  C_3
REMARK    3  A    between atoms: C_3  and  C_5
REMARK    4  A    between atoms: C_5  and  C_6
REMARK    5  A    between atoms: C_6  and  C_7
REMARK    6  A    between atoms: C_9  and  C_10
REMARK    7  A    between atoms: C_24  and  C_25
REMARK                            x       y       z     vdW  Elec       q    Type
REMARK                         _______ _______ _______ _____ _____    ______ ____
ROOT
ATOM      1  C   UNL     1      -6.269   1.385 127.869  0.00  0.00    +0.000 C 
ATOM      2  N   UNL     1      -6.780   0.329 126.991  0.00  0.00    +0.000 NA
ATOM      3  C   UNL     1      -7.031  -0.855 127.443  0.00  0.00    +0.000 C 
ATOM      4  C   UNL     1      -6.851  -1.301 128.872  0.00  0.00    +0.000 A 
ATOM      5  C   UNL     1      -6.345  -2.596 129.106  0.00  0.00    +0.000 A 
ATOM      6  C   UNL     1      -6.247  -3.103 130.406  0.00  0.00    +0.000 A 
ATOM      7 BR   UNL     1      -5.562  -4.838 130.701  0.00  0.00    +0.000 Br
ATOM      8  C   UNL     1      -6.636  -2.337 131.495  0.00  0.00    +0.000 A 
ATOM      9  C   UNL     1      -7.104  -1.045 131.284  0.00  0.00    +0.000 A 
ATOM     10  C   UNL     1      -7.236  -0.526 129.983  0.00  0.00    +0.000 A 
ATOM     11  N   UNL     1      -7.733   0.793 129.841  0.00  0.00    +0.000 N 
ATOM     12  C   UNL     1      -8.678   1.447 130.623  0.00  0.00    +0.000 A 
ATOM     13  C   UNL     1      -9.530   0.872 131.693  0.00  0.00    +0.000 C 
ATOM     14  C   UNL     1      -8.723   2.733 130.130  0.00  0.00    +0.000 A 
ATOM     15  N   UNL     1      -7.861   2.894 129.096  0.00  0.00    +0.000 NA
ATOM     16  C   UNL     1      -7.300   1.715 128.905  0.00  0.00    +0.000 A 
ENDROOT
BRANCH   3  17
ATOM     17  C   UNL     1      -7.564  -1.879 126.476  0.00  0.00    +0.000 A 
ATOM     18  C   UNL     1      -6.732  -2.404 125.492  0.00  0.00    +0.000 A 
ATOM     19  C   UNL     1      -7.309  -3.170 124.483  0.00  0.00    +0.000 A 
ATOM     20  C   UNL     1      -8.666  -3.468 124.544  0.00  0.00    +0.000 A 
ATOM     21  C   UNL     1      -9.390  -2.998 125.628  0.00  0.00    +0.000 A 
ATOM     22  N   UNL     1      -8.884  -2.169 126.571  0.00  0.00    +0.000 NA
ENDBRANCH   3  17
BRANCH   1  23
ATOM     23  C   UNL     1      -5.979   2.622 126.991  0.00  0.00    +0.000 C 
BRANCH  23  24
ATOM     24  C   UNL     1      -6.792   2.647 125.686  0.00  0.00    +0.000 C 
BRANCH  24  25
ATOM     25  C   UNL     1      -7.582   3.936 125.577  0.00  0.00    +0.000 C 
ATOM     26  O   UNL     1      -7.154   5.050 125.871  0.00  0.00    +0.000 OA
BRANCH  25  28
ATOM     27  C   UNL     1      -8.949   2.543 124.287  0.00  0.00    +0.000 C 
ATOM     28  O   UNL     1      -8.847   3.704 125.122  0.00  0.00    +0.000 OA
ENDBRANCH  25  28
ENDBRANCH  24  25
ENDBRANCH  23  24
ENDBRANCH   1  23
TORSDOF 5
ENDMDL
MODEL 7
REMARK VINA RESULT:      -7.2      6.062      8.196
REMARK  Name = Remimazolam
REMARK  7 active torsions:
REMARK  status: ('A' for Active; 'I' for Inactive)
REMARK    1  A    between atoms: C_1  and  O_2
REMARK    2  A    between atoms: O_2  and  C_3
REMARK    3  A    between atoms: C_3  and  C_5
REMARK    4  A    between atoms: C_5  and  C_6
REMARK    5  A    between atoms: C_6  and  C_7
REMARK    6  A    between atoms: C_9  and  C_10
REMARK    7  A    between atoms: C_24  and  C_25
REMARK                            x       y       z     vdW  Elec       q    Type
REMARK                         _______ _______ _______ _____ _____    ______ ____
ROOT
ATOM      1  C   UNL     1      -8.533   1.797 128.949  0.00  0.00    +0.000 C 
ATOM      2  N   UNL     1      -7.856   0.550 129.314  0.00  0.00    +0.000 NA
ATOM      3  C   UNL     1      -7.601  -0.358 128.431  0.00  0.00    +0.000 C 
ATOM      4  C   UNL     1      -7.940  -0.269 126.963  0.00  0.00    +0.000 A 
ATOM      5  C   UNL     1      -8.401  -1.433 126.316  0.00  0.00    +0.000 A 
ATOM      6  C   UNL     1      -8.637  -1.439 124.938  0.00  0.00    +0.000 A 
ATOM      7 BR   UNL     1      -9.259  -3.007 124.086  0.00  0.00    +0.000 Br
ATOM      8  C   UNL     1      -8.434  -0.296 124.179  0.00  0.00    +0.000 A 
ATOM      9  C   UNL     1      -8.014   0.870 124.809  0.00  0.00    +0.000 A 
ATOM     10  C   UNL     1      -7.743   0.891 126.189  0.00  0.00    +0.000 A 
ATOM     11  N   UNL     1      -7.305   2.110 126.763  0.00  0.00    +0.000 N 
ATOM     12  C   UNL     1      -6.506   3.093 126.191  0.00  0.00    +0.000 A 
ATOM     13  C   UNL     1      -5.768   3.033 124.905  0.00  0.00    +0.000 C 
ATOM     14  C   UNL     1      -6.467   4.109 127.121  0.00  0.00    +0.000 A 
ATOM     15  N   UNL     1      -7.197   3.797 128.221  0.00  0.00    +0.000 NA
ATOM     16  C   UNL     1      -7.663   2.581 128.013  0.00  0.00    +0.000 A 
ENDROOT
BRANCH   3  17
ATOM     17  C   UNL     1      -6.893  -1.606 128.888  0.00  0.00    +0.000 A 
ATOM     18  C   UNL     1      -7.563  -2.534 129.678  0.00  0.00    +0.000 A 
ATOM     19  C   UNL     1      -6.821  -3.555 130.266  0.00  0.00    +0.000 A 
ATOM     20  C   UNL     1      -5.468  -3.673 129.969  0.00  0.00    +0.000 A 
ATOM     21  C   UNL     1      -4.914  -2.769 129.076  0.00  0.00    +0.000 A 
ATOM     22  N   UNL     1      -5.581  -1.708 128.565  0.00  0.00    +0.000 NA
ENDBRANCH   3  17
BRANCH   1  23
ATOM     23  C   UNL     1      -8.773   2.595 130.249  0.00  0.00    +0.000 C 
BRANCH  23  24
ATOM     24  C   UNL     1     -10.215   3.111 130.388  0.00  0.00    +0.000 C 
BRANCH  24  25
ATOM     25  C   UNL     1     -10.244   4.625 130.335  0.00  0.00    +0.000 C 
ATOM     26  O   UNL     1     -10.123   5.296 129.314  0.00  0.00    +0.000 OA
BRANCH  25  28
ATOM     27  C   UNL     1     -11.209   6.350 131.589  0.00  0.00    +0.000 C 
ATOM     28  O   UNL     1     -10.409   5.160 131.580  0.00  0.00    +0.000 OA
ENDBRANCH  25  28
ENDBRANCH  24  25
ENDBRANCH  23  24
ENDBRANCH   1  23
TORSDOF 5
ENDMDL
MODEL 8
REMARK VINA RESULT:      -7.0      3.606      5.053
REMARK  Name = Remimazolam
REMARK  7 active torsions:
REMARK  status: ('A' for Active; 'I' for Inactive)
REMARK    1  A    between atoms: C_1  and  O_2
REMARK    2  A    between atoms: O_2  and  C_3
REMARK    3  A    between atoms: C_3  and  C_5
REMARK    4  A    between atoms: C_5  and  C_6
REMARK    5  A    between atoms: C_6  and  C_7
REMARK    6  A    between atoms: C_9  and  C_10
REMARK    7  A    between atoms: C_24  and  C_25
REMARK                            x       y       z     vdW  Elec       q    Type
REMARK                         _______ _______ _______ _____ _____    ______ ____
ROOT
ATOM      1  C   UNL     1      -8.472   5.630 129.975  0.00  0.00    +0.000 C 
ATOM      2  N   UNL     1      -8.656   4.910 128.713  0.00  0.00    +0.000 NA
ATOM      3  C   UNL     1      -7.724   4.160 128.226  0.00  0.00    +0.000 C 
ATOM      4  C   UNL     1      -6.376   3.919 128.860  0.00  0.00    +0.000 A 
ATOM      5  C   UNL     1      -5.248   3.854 128.017  0.00  0.00    +0.000 A 
ATOM      6  C   UNL     1      -3.987   3.536 128.533  0.00  0.00    +0.000 A 
ATOM      7 BR   UNL     1      -2.485   3.456 127.390  0.00  0.00    +0.000 Br
ATOM      8  C   UNL     1      -3.817   3.292 129.887  0.00  0.00    +0.000 A 
ATOM      9  C   UNL     1      -4.914   3.387 130.737  0.00  0.00    +0.000 A 
ATOM     10  C   UNL     1      -6.196   3.677 130.235  0.00  0.00    +0.000 A 
ATOM     11  N   UNL     1      -7.270   3.747 131.156  0.00  0.00    +0.000 N 
ATOM     12  C   UNL     1      -7.461   3.003 132.316  0.00  0.00    +0.000 A 
ATOM     13  C   UNL     1      -6.679   1.833 132.785  0.00  0.00    +0.000 C 
ATOM     14  C   UNL     1      -8.595   3.529 132.895  0.00  0.00    +0.000 A 
ATOM     15  N   UNL     1      -9.100   4.546 132.155  0.00  0.00    +0.000 NA
ATOM     16  C   UNL     1      -8.321   4.643 131.094  0.00  0.00    +0.000 A 
ENDROOT
BRANCH   3  17
ATOM     17  C   UNL     1      -7.999   3.448 126.929  0.00  0.00    +0.000 A 
ATOM     18  C   UNL     1      -7.912   4.139 125.725  0.00  0.00    +0.000 A 
ATOM     19  C   UNL     1      -8.388   3.518 124.573  0.00  0.00    +0.000 A 
ATOM     20  C   UNL     1      -8.837   2.204 124.643  0.00  0.00    +0.000 A 
ATOM     21  C   UNL     1      -8.774   1.556 125.867  0.00  0.00    +0.000 A 
ATOM     22  N   UNL     1      -8.412   2.160 127.023  0.00  0.00    +0.000 NA
ENDBRANCH   3  17
BRANCH   1  23
ATOM     23  C   UNL     1      -9.724   6.505 130.201  0.00  0.00    +0.000 C 
BRANCH  23  24
ATOM     24  C   UNL     1     -10.636   6.592 128.967  0.00  0.00    +0.000 C 
BRANCH  24  25
ATOM     25  C   UNL     1     -11.198   7.993 128.820  0.00  0.00    +0.000 C 
ATOM     26  O   UNL     1     -11.916   8.553 129.645  0.00  0.00    +0.000 OA
BRANCH  25  28
ATOM     27  C   UNL     1     -10.926   7.666 126.519  0.00  0.00    +0.000 C 
ATOM     28  O   UNL     1     -10.817   8.556 127.638  0.00  0.00    +0.000 OA
ENDBRANCH  25  28
ENDBRANCH  24  25
ENDBRANCH  23  24
ENDBRANCH   1  23
TORSDOF 5
ENDMDL
MODEL 9
REMARK VINA RESULT:      -6.9      6.329      8.502
REMARK  Name = Remimazolam
REMARK  7 active torsions:
REMARK  status: ('A' for Active; 'I' for Inactive)
REMARK    1  A    between atoms: C_1  and  O_2
REMARK    2  A    between atoms: O_2  and  C_3
REMARK    3  A    between atoms: C_3  and  C_5
REMARK    4  A    between atoms: C_5  and  C_6
REMARK    5  A    between atoms: C_6  and  C_7
REMARK    6  A    between atoms: C_9  and  C_10
REMARK    7  A    between atoms: C_24  and  C_25
REMARK                            x       y       z     vdW  Elec       q    Type
REMARK                         _______ _______ _______ _____ _____    ______ ____
ROOT
ATOM      1  C   UNL     1      -6.215   1.288 127.794  0.00  0.00    +0.000 C 
ATOM      2  N   UNL     1      -6.736   0.221 126.936  0.00  0.00    +0.000 NA
ATOM      3  C   UNL     1      -6.995  -0.953 127.409  0.00  0.00    +0.000 C 
ATOM      4  C   UNL     1      -6.815  -1.376 128.846  0.00  0.00    +0.000 A 
ATOM      5  C   UNL     1      -6.318  -2.669 129.101  0.00  0.00    +0.000 A 
ATOM      6  C   UNL     1      -6.221  -3.154 130.409  0.00  0.00    +0.000 A 
ATOM      7 BR   UNL     1      -5.548  -4.890 130.734  0.00  0.00    +0.000 Br
ATOM      8  C   UNL     1      -6.601  -2.367 131.486  0.00  0.00    +0.000 A 
ATOM      9  C   UNL     1      -7.061  -1.076 131.254  0.00  0.00    +0.000 A 
ATOM     10  C   UNL     1      -7.192  -0.578 129.944  0.00  0.00    +0.000 A 
ATOM     11  N   UNL     1      -7.679   0.742 129.780  0.00  0.00    +0.000 N 
ATOM     12  C   UNL     1      -8.617   1.417 130.553  0.00  0.00    +0.000 A 
ATOM     13  C   UNL     1      -9.472   0.866 131.634  0.00  0.00    +0.000 C 
ATOM     14  C   UNL     1      -8.654   2.694 130.037  0.00  0.00    +0.000 A 
ATOM     15  N   UNL     1      -7.793   2.830 128.998  0.00  0.00    +0.000 NA
ATOM     16  C   UNL     1      -7.242   1.644 128.827  0.00  0.00    +0.000 A 
ENDROOT
BRANCH   3  17
ATOM     17  C   UNL     1      -7.537  -1.989 126.462  0.00  0.00    +0.000 A 
ATOM     18  C   UNL     1      -6.701  -2.569 125.514  0.00  0.00    +0.000 A 
ATOM     19  C   UNL     1      -7.278  -3.349 124.515  0.00  0.00    +0.000 A 
ATOM     20  C   UNL     1      -8.645  -3.604 124.553  0.00  0.00    +0.000 A 
ATOM     21  C   UNL     1      -9.378  -3.078 125.606  0.00  0.00    +0.000 A 
ATOM     22  N   UNL     1      -8.868  -2.237 126.535  0.00  0.00    +0.000 NA
ENDBRANCH   3  17
BRANCH   1  23
ATOM     23  C   UNL     1      -5.918   2.508 126.895  0.00  0.00    +0.000 C 
BRANCH  23  24
ATOM     24  C   UNL     1      -4.590   3.204 127.232  0.00  0.00    +0.000 C 
BRANCH  24  25
ATOM     25  C   UNL     1      -4.700   4.698 127.001  0.00  0.00    +0.000 C 
ATOM     26  O   UNL     1      -5.695   5.271 126.563  0.00  0.00    +0.000 OA
BRANCH  25  28
ATOM     27  C   UNL     1      -2.513   4.450 127.796  0.00  0.00    +0.000 C 
ATOM     28  O   UNL     1      -3.539   5.336 127.328  0.00  0.00    +0.000 OA
ENDBRANCH  25  28
ENDBRANCH  24  25
ENDBRANCH  23  24
ENDBRANCH   1  23
TORSDOF 5
ENDMDL
