MODEL 1
REMARK VINA RESULT:      -6.6      0.000      0.000
REMARK  Name = Remifentanil
REMARK  12 active torsions:
REMARK  status: ('A' for Active; 'I' for Inactive)
REMARK    1  A    between atoms: C_1  and  C_2
REMARK    2  A    between atoms: C_2  and  C_3
REMARK    3  A    between atoms: N_5  and  C_6
REMARK    4  A    between atoms: N_5  and  C_12
REMARK    5  A    between atoms: C_12  and  C_24
REMARK    6  A    between atoms: N_15  and  C_16
REMARK    7  A    between atoms: C_16  and  C_17
REMARK    8  A    between atoms: C_17  and  C_18
REMARK    9  A    between atoms: C_18  and  O_20
REMARK   10  A    between atoms: O_20  and  C_21
REMARK   11  A    between atoms: C_24  and  O_26
REMARK   12  A    between atoms: O_26  and  C_27
REMARK                            x       y       z     vdW  Elec       q    Type
REMARK                         _______ _______ _______ _____ _____    ______ ____
ROOT
ATOM      1  C   UNL     1      -8.100   1.256 124.190  0.00  0.00    +0.000 C 
ATOM      2  C   UNL     1      -7.054   1.984 125.170  0.00  0.00    +0.000 C 
ATOM      3  C   UNL     1      -6.842   1.471 126.576  0.00  0.00    +0.000 C 
ATOM      4  N   UNL     1      -8.128   1.245 127.250  0.00  0.00    +0.000 NA
ATOM      5  C   UNL     1      -8.939   0.442 126.369  0.00  0.00    +0.000 C 
ATOM      6  C   UNL     1      -9.302   1.328 125.151  0.00  0.00    +0.000 C 
ENDROOT
BRANCH   1   9
ATOM      7  C   UNL     1      -9.237  -0.825 123.132  0.00  0.00    +0.000 C 
ATOM      8  O   UNL     1     -10.274  -0.188 122.954  0.00  0.00    +0.000 OA
ATOM      9  N   UNL     1      -8.121  -0.266 123.756  0.00  0.00    +0.000 N 
BRANCH   9  10
ATOM     10  C   UNL     1      -6.839  -1.043 123.873  0.00  0.00    +0.000 A 
ATOM     11  C   UNL     1      -6.132  -1.496 122.741  0.00  0.00    +0.000 A 
ATOM     12  C   UNL     1      -5.331  -2.662 122.813  0.00  0.00    +0.000 A 
ATOM     13  C   UNL     1      -5.033  -3.260 124.036  0.00  0.00    +0.000 A 
ATOM     14  C   UNL     1      -5.625  -2.766 125.184  0.00  0.00    +0.000 A 
ATOM     15  C   UNL     1      -6.544  -1.713 125.089  0.00  0.00    +0.000 A 
ENDBRANCH   9  10
BRANCH   7  17
ATOM     16  C   UNL     1      -9.606  -3.297 123.618  0.00  0.00    +0.000 C 
ATOM     17  C   UNL     1      -9.085  -2.273 122.649  0.00  0.00    +0.000 C 
ENDBRANCH   7  17
ENDBRANCH   1   9
BRANCH   1  18
ATOM     18  C   UNL     1      -7.737   2.114 122.884  0.00  0.00    +0.000 C 
ATOM     19  O   UNL     1      -6.614   2.195 122.394  0.00  0.00    +0.000 OA
BRANCH  18  20
ATOM     20  O   UNL     1      -8.755   2.964 122.497  0.00  0.00    +0.000 OA
ATOM     21  C   UNL     1      -8.725   3.474 121.145  0.00  0.00    +0.000 C 
ENDBRANCH  18  20
ENDBRANCH   1  18
BRANCH   4  22
ATOM     22  C   UNL     1      -7.900   0.577 128.534  0.00  0.00    +0.000 C 
BRANCH  22  23
ATOM     23  C   UNL     1      -6.978  -0.641 128.429  0.00  0.00    +0.000 C 
BRANCH  23  24
ATOM     24  C   UNL     1      -7.601  -1.774 129.201  0.00  0.00    +0.000 C 
ATOM     25  O   UNL     1      -8.168  -1.661 130.261  0.00  0.00    +0.000 OA
BRANCH  24  26
ATOM     26  O   UNL     1      -7.396  -2.952 128.540  0.00  0.00    +0.000 OA
ATOM     27  C   UNL     1      -8.542  -3.364 127.795  0.00  0.00    +0.000 C 
ENDBRANCH  24  26
ENDBRANCH  23  24
ENDBRANCH  22  23
ENDBRANCH   4  22
TORSDOF 9
ENDMDL
MODEL 2
REMARK VINA RESULT:      -6.6      1.933      2.622
REMARK  Name = Remifentanil
REMARK  12 active torsions:
REMARK  status: ('A' for Active; 'I' for Inactive)
REMARK    1  A    between atoms: C_1  and  C_2
REMARK    2  A    between atoms: C_2  and  C_3
REMARK    3  A    between atoms: N_5  and  C_6
REMARK    4  A    between atoms: N_5  and  C_12
REMARK    5  A    between atoms: C_12  and  C_24
REMARK    6  A    between atoms: N_15  and  C_16
REMARK    7  A    between atoms: C_16  and  C_17
REMARK    8  A    between atoms: C_17  and  C_18
REMARK    9  A    between atoms: C_18  and  O_20
REMARK   10  A    between atoms: O_20  and  C_21
REMARK   11  A    between atoms: C_24  and  O_26
REMARK   12  A    between atoms: O_26  and  C_27
REMARK                            x       y       z     vdW  Elec       q    Type
REMARK                         _______ _______ _______ _____ _____    ______ ____
ROOT
ATOM      1  C   UNL     1      -8.333   1.453 123.897  0.00  0.00    +0.000 C 
ATOM      2  C   UNL     1      -7.368   2.293 124.869  0.00  0.00    +0.000 C 
ATOM      3  C   UNL     1      -7.234   1.913 126.326  0.00  0.00    +0.000 C 
ATOM      4  N   UNL     1      -8.555   1.713 126.938  0.00  0.00    +0.000 NA
ATOM      5  C   UNL     1      -9.292   0.814 126.085  0.00  0.00    +0.000 C 
ATOM      6  C   UNL     1      -9.596   1.578 124.772  0.00  0.00    +0.000 C 
ENDROOT
BRANCH   1   9
ATOM      7  C   UNL     1      -9.369  -0.749 122.991  0.00  0.00    +0.000 C 
ATOM      8  O   UNL     1     -10.417  -0.163 122.719  0.00  0.00    +0.000 OA
ATOM      9  N   UNL     1      -8.295  -0.101 123.602  0.00  0.00    +0.000 N 
BRANCH   9  10
ATOM     10  C   UNL     1      -6.998  -0.824 123.835  0.00  0.00    +0.000 A 
ATOM     11  C   UNL     1      -6.245  -1.372 122.776  0.00  0.00    +0.000 A 
ATOM     12  C   UNL     1      -5.416  -2.501 122.993  0.00  0.00    +0.000 A 
ATOM     13  C   UNL     1      -5.139  -2.957 124.280  0.00  0.00    +0.000 A 
ATOM     14  C   UNL     1      -5.778  -2.364 125.353  0.00  0.00    +0.000 A 
ATOM     15  C   UNL     1      -6.721  -1.353 125.122  0.00  0.00    +0.000 A 
ENDBRANCH   9  10
BRANCH   7  17
ATOM     16  C   UNL     1      -9.603  -3.175 123.726  0.00  0.00    +0.000 C 
ATOM     17  C   UNL     1      -9.159  -2.229 122.646  0.00  0.00    +0.000 C 
ENDBRANCH   7  17
ENDBRANCH   1   9
BRANCH   1  18
ATOM     18  C   UNL     1      -7.907   2.201 122.543  0.00  0.00    +0.000 C 
ATOM     19  O   UNL     1      -6.749   2.445 122.218  0.00  0.00    +0.000 OA
BRANCH  18  20
ATOM     20  O   UNL     1      -8.976   2.777 121.885  0.00  0.00    +0.000 OA
ATOM     21  C   UNL     1      -8.685   3.716 120.825  0.00  0.00    +0.000 C 
ENDBRANCH  18  20
ENDBRANCH   1  18
BRANCH   4  22
ATOM     22  C   UNL     1      -8.394   1.169 128.288  0.00  0.00    +0.000 C 
BRANCH  22  23
ATOM     23  C   UNL     1      -7.827   2.182 129.287  0.00  0.00    +0.000 C 
BRANCH  23  24
ATOM     24  C   UNL     1      -8.848   3.269 129.491  0.00  0.00    +0.000 C 
ATOM     25  O   UNL     1      -8.824   4.352 128.958  0.00  0.00    +0.000 OA
BRANCH  24  26
ATOM     26  O   UNL     1      -9.786   2.858 130.398  0.00  0.00    +0.000 OA
ATOM     27  C   UNL     1     -10.892   3.755 130.480  0.00  0.00    +0.000 C 
ENDBRANCH  24  26
ENDBRANCH  23  24
ENDBRANCH  22  23
ENDBRANCH   4  22
TORSDOF 9
ENDMDL
MODEL 3
REMARK VINA RESULT:      -6.5      2.950      4.218
REMARK  Name = Remifentanil
REMARK  12 active torsions:
REMARK  status: ('A' for Active; 'I' for Inactive)
REMARK    1  A    between atoms: C_1  and  C_2
REMARK    2  A    between atoms: C_2  and  C_3
REMARK    3  A    between atoms: N_5  and  C_6
REMARK    4  A    between atoms: N_5  and  C_12
REMARK    5  A    between atoms: C_12  and  C_24
REMARK    6  A    between atoms: N_15  and  C_16
REMARK    7  A    between atoms: C_16  and  C_17
REMARK    8  A    between atoms: C_17  and  C_18
REMARK    9  A    between atoms: C_18  and  O_20
REMARK   10  A    between atoms: O_20  and  C_21
REMARK   11  A    between atoms: C_24  and  O_26
REMARK   12  A    between atoms: O_26  and  C_27
REMARK                            x       y       z     vdW  Elec       q    Type
REMARK                         _______ _______ _______ _____ _____    ______ ____
ROOT
ATOM      1  C   UNL     1      -8.117   1.793 124.561  0.00  0.00    +0.000 C 
ATOM      2  C   UNL     1      -6.898   2.779 124.207  0.00  0.00    +0.000 C 
ATOM      3  C   UNL     1      -5.664   2.812 125.079  0.00  0.00    +0.000 C 
ATOM      4  N   UNL     1      -6.029   2.913 126.499  0.00  0.00    +0.000 NA
ATOM      5  C   UNL     1      -7.002   1.883 126.767  0.00  0.00    +0.000 C 
ATOM      6  C   UNL     1      -8.298   2.273 126.015  0.00  0.00    +0.000 C 
ENDROOT
BRANCH   1   9
ATOM      7  C   UNL     1      -9.145  -0.477 125.290  0.00  0.00    +0.000 C 
ATOM      8  O   UNL     1     -10.146   0.095 125.719  0.00  0.00    +0.000 OA
ATOM      9  N   UNL     1      -8.069   0.222 124.742  0.00  0.00    +0.000 N 
BRANCH   9  10
ATOM     10  C   UNL     1      -6.903  -0.515 124.143  0.00  0.00    +0.000 A 
ATOM     11  C   UNL     1      -6.925  -1.002 122.820  0.00  0.00    +0.000 A 
ATOM     12  C   UNL     1      -6.163  -2.141 122.462  0.00  0.00    +0.000 A 
ATOM     13  C   UNL     1      -5.207  -2.672 123.324  0.00  0.00    +0.000 A 
ATOM     14  C   UNL     1      -5.082  -2.141 124.594  0.00  0.00    +0.000 A 
ATOM     15  C   UNL     1      -5.949  -1.118 125.003  0.00  0.00    +0.000 A 
ENDBRANCH   9  10
BRANCH   7  17
ATOM     16  C   UNL     1      -8.787  -2.594 126.658  0.00  0.00    +0.000 C 
ATOM     17  C   UNL     1      -9.025  -2.006 125.295  0.00  0.00    +0.000 C 
ENDBRANCH   7  17
ENDBRANCH   1   9
BRANCH   1  18
ATOM     18  C   UNL     1      -8.969   2.089 123.235  0.00  0.00    +0.000 C 
ATOM     19  O   UNL     1      -9.670   1.262 122.659  0.00  0.00    +0.000 OA
BRANCH  18  20
ATOM     20  O   UNL     1      -8.647   3.296 122.645  0.00  0.00    +0.000 OA
ATOM     21  C   UNL     1      -8.791   3.401 121.211  0.00  0.00    +0.000 C 
ENDBRANCH  18  20
ENDBRANCH   1  18
BRANCH   4  22
ATOM     22  C   UNL     1      -4.832   2.757 127.327  0.00  0.00    +0.000 C 
BRANCH  22  23
ATOM     23  C   UNL     1      -3.665   3.643 126.882  0.00  0.00    +0.000 C 
BRANCH  23  24
ATOM     24  C   UNL     1      -3.801   4.981 127.560  0.00  0.00    +0.000 C 
ATOM     25  O   UNL     1      -4.586   5.842 127.243  0.00  0.00    +0.000 OA
BRANCH  24  26
ATOM     26  O   UNL     1      -2.879   5.086 128.563  0.00  0.00    +0.000 OA
ATOM     27  C   UNL     1      -2.228   6.356 128.571  0.00  0.00    +0.000 C 
ENDBRANCH  24  26
ENDBRANCH  23  24
ENDBRANCH  22  23
ENDBRANCH   4  22
TORSDOF 9
ENDMDL
MODEL 4
REMARK VINA RESULT:      -6.4      2.235      2.666
REMARK  Name = Remifentanil
REMARK  12 active torsions:
REMARK  status: ('A' for Active; 'I' for Inactive)
REMARK    1  A    between atoms: C_1  and  C_2
REMARK    2  A    between atoms: C_2  and  C_3
REMARK    3  A    between atoms: N_5  and  C_6
REMARK    4  A    between atoms: N_5  and  C_12
REMARK    5  A    between atoms: C_12  and  C_24
REMARK    6  A    between atoms: N_15  and  C_16
REMARK    7  A    between atoms: C_16  and  C_17
REMARK    8  A    between atoms: C_17  and  C_18
REMARK    9  A    between atoms: C_18  and  O_20
REMARK   10  A    between atoms: O_20  and  C_21
REMARK   11  A    between atoms: C_24  and  O_26
REMARK   12  A    between atoms: O_26  and  C_27
REMARK                            x       y       z     vdW  Elec       q    Type
REMARK                         _______ _______ _______ _____ _____    ______ ____
ROOT
ATOM      1  C   UNL     1      -7.627   0.375 125.949  0.00  0.00    +0.000 C 
ATOM      2  C   UNL     1      -6.315   1.228 126.316  0.00  0.00    +0.000 C 
ATOM      3  C   UNL     1      -5.287   0.674 127.275  0.00  0.00    +0.000 C 
ATOM      4  N   UNL     1      -5.932   0.150 128.488  0.00  0.00    +0.000 NA
ATOM      5  C   UNL     1      -6.988  -0.736 128.064  0.00  0.00    +0.000 C 
ATOM      6  C   UNL     1      -8.081   0.140 127.404  0.00  0.00    +0.000 C 
ENDROOT
BRANCH   1   9
ATOM      7  C   UNL     1      -8.888  -1.808 125.328  0.00  0.00    +0.000 C 
ATOM      8  O   UNL     1      -9.922  -1.374 125.835  0.00  0.00    +0.000 OA
ATOM      9  N   UNL     1      -7.694  -1.087 125.348  0.00  0.00    +0.000 N 
BRANCH   9  10
ATOM     10  C   UNL     1      -6.474  -1.606 124.638  0.00  0.00    +0.000 A 
ATOM     11  C   UNL     1      -6.301  -1.463 123.246  0.00  0.00    +0.000 A 
ATOM     12  C   UNL     1      -5.534  -2.406 122.518  0.00  0.00    +0.000 A 
ATOM     13  C   UNL     1      -4.748  -3.355 123.167  0.00  0.00    +0.000 A 
ATOM     14  C   UNL     1      -4.810  -3.446 124.545  0.00  0.00    +0.000 A 
ATOM     15  C   UNL     1      -5.693  -2.619 125.253  0.00  0.00    +0.000 A 
ENDBRANCH   9  10
BRANCH   7  17
ATOM     16  C   UNL     1      -9.597  -3.177 123.303  0.00  0.00    +0.000 C 
ATOM     17  C   UNL     1      -8.849  -3.161 124.606  0.00  0.00    +0.000 C 
ENDBRANCH   7  17
ENDBRANCH   1   9
BRANCH   1  18
ATOM     18  C   UNL     1      -8.172   1.375 124.819  0.00  0.00    +0.000 C 
ATOM     19  O   UNL     1      -7.468   1.923 123.976  0.00  0.00    +0.000 OA
BRANCH  18  20
ATOM     20  O   UNL     1      -9.479   1.768 125.032  0.00  0.00    +0.000 OA
ATOM     21  C   UNL     1     -10.438   1.507 123.982  0.00  0.00    +0.000 C 
ENDBRANCH  18  20
ENDBRANCH   1  18
BRANCH   4  22
ATOM     22  C   UNL     1      -4.941  -0.544 129.312  0.00  0.00    +0.000 C 
BRANCH  22  23
ATOM     23  C   UNL     1      -4.960  -2.065 129.133  0.00  0.00    +0.000 C 
BRANCH  23  24
ATOM     24  C   UNL     1      -3.761  -2.640 129.838  0.00  0.00    +0.000 C 
ATOM     25  O   UNL     1      -2.822  -1.999 130.244  0.00  0.00    +0.000 OA
BRANCH  24  26
ATOM     26  O   UNL     1      -3.879  -3.999 129.917  0.00  0.00    +0.000 OA
ATOM     27  C   UNL     1      -5.088  -4.403 130.558  0.00  0.00    +0.000 C 
ENDBRANCH  24  26
ENDBRANCH  23  24
ENDBRANCH  22  23
ENDBRANCH   4  22
TORSDOF 9
ENDMDL
MODEL 5
REMARK VINA RESULT:      -6.4      3.615      7.354
REMARK  Name = Remifentanil
REMARK  12 active torsions:
REMARK  status: ('A' for Active; 'I' for Inactive)
REMARK    1  A    between atoms: C_1  and  C_2
REMARK    2  A    between atoms: C_2  and  C_3
REMARK    3  A    between atoms: N_5  and  C_6
REMARK    4  A    between atoms: N_5  and  C_12
REMARK    5  A    between atoms: C_12  and  C_24
REMARK    6  A    between atoms: N_15  and  C_16
REMARK    7  A    between atoms: C_16  and  C_17
REMARK    8  A    between atoms: C_17  and  C_18
REMARK    9  A    between atoms: C_18  and  O_20
REMARK   10  A    between atoms: O_20  and  C_21
REMARK   11  A    between atoms: C_24  and  O_26
REMARK   12  A    between atoms: O_26  and  C_27
REMARK                            x       y       z     vdW  Elec       q    Type
REMARK                         _______ _______ _______ _____ _____    ______ ____
ROOT
ATOM      1  C   UNL     1      -6.475   3.947 126.550  0.00  0.00    +0.000 C 
ATOM      2  C   UNL     1      -7.690   3.283 125.733  0.00  0.00    +0.000 C 
ATOM      3  C   UNL     1      -7.472   2.759 124.332  0.00  0.00    +0.000 C 
ATOM      4  N   UNL     1      -6.760   3.747 123.509  0.00  0.00    +0.000 NA
ATOM      5  C   UNL     1      -5.594   4.162 124.250  0.00  0.00    +0.000 C 
ATOM      6  C   UNL     1      -6.094   4.976 125.469  0.00  0.00    +0.000 C 
ENDROOT
BRANCH   1   9
ATOM      7  C   UNL     1      -3.973   4.091 127.230  0.00  0.00    +0.000 C 
ATOM      8  O   UNL     1      -4.023   5.320 127.211  0.00  0.00    +0.000 OA
ATOM      9  N   UNL     1      -5.072   3.300 126.892  0.00  0.00    +0.000 N 
BRANCH   9  10
ATOM     10  C   UNL     1      -5.004   1.803 127.016  0.00  0.00    +0.000 A 
ATOM     11  C   UNL     1      -4.900   0.963 125.889  0.00  0.00    +0.000 A 
ATOM     12  C   UNL     1      -5.419  -0.355 125.926  0.00  0.00    +0.000 A 
ATOM     13  C   UNL     1      -5.833  -0.936 127.123  0.00  0.00    +0.000 A 
ATOM     14  C   UNL     1      -5.839  -0.168 128.272  0.00  0.00    +0.000 A 
ATOM     15  C   UNL     1      -5.477   1.184 128.202  0.00  0.00    +0.000 A 
ENDBRANCH   9  10
BRANCH   7  17
ATOM     16  C   UNL     1      -1.717   3.127 126.552  0.00  0.00    +0.000 C 
ATOM     17  C   UNL     1      -2.707   3.340 127.662  0.00  0.00    +0.000 C 
ENDBRANCH   7  17
ENDBRANCH   1   9
BRANCH   1  18
ATOM     18  C   UNL     1      -7.268   4.111 127.935  0.00  0.00    +0.000 C 
ATOM     19  O   UNL     1      -6.884   4.793 128.880  0.00  0.00    +0.000 OA
BRANCH  18  20
ATOM     20  O   UNL     1      -8.307   3.210 128.071  0.00  0.00    +0.000 OA
ATOM     21  C   UNL     1      -8.810   2.963 129.404  0.00  0.00    +0.000 C 
ENDBRANCH  18  20
ENDBRANCH   1  18
BRANCH   4  22
ATOM     22  C   UNL     1      -6.399   3.148 122.223  0.00  0.00    +0.000 C 
BRANCH  22  23
ATOM     23  C   UNL     1      -5.217   3.842 121.540  0.00  0.00    +0.000 C 
BRANCH  23  24
ATOM     24  C   UNL     1      -5.727   4.540 120.307  0.00  0.00    +0.000 C 
ATOM     25  O   UNL     1      -5.332   5.606 119.901  0.00  0.00    +0.000 OA
BRANCH  24  26
ATOM     26  O   UNL     1      -6.727   3.802 119.738  0.00  0.00    +0.000 OA
ATOM     27  C   UNL     1      -7.440   4.532 118.740  0.00  0.00    +0.000 C 
ENDBRANCH  24  26
ENDBRANCH  23  24
ENDBRANCH  22  23
ENDBRANCH   4  22
TORSDOF 9
ENDMDL
MODEL 6
REMARK VINA RESULT:      -6.2      6.901      9.692
REMARK  Name = Remifentanil
REMARK  12 active torsions:
REMARK  status: ('A' for Active; 'I' for Inactive)
REMARK    1  A    between atoms: C_1  and  C_2
REMARK    2  A    between atoms: C_2  and  C_3
REMARK    3  A    between atoms: N_5  and  C_6
REMARK    4  A    between atoms: N_5  and  C_12
REMARK    5  A    between atoms: C_12  and  C_24
REMARK    6  A    between atoms: N_15  and  C_16
REMARK    7  A    between atoms: C_16  and  C_17
REMARK    8  A    between atoms: C_17  and  C_18
REMARK    9  A    between atoms: C_18  and  O_20
REMARK   10  A    between atoms: O_20  and  C_21
REMARK   11  A    between atoms: C_24  and  O_26
REMARK   12  A    between atoms: O_26  and  C_27
REMARK                            x       y       z     vdW  Elec       q    Type
REMARK                         _______ _______ _______ _____ _____    ______ ____
ROOT
ATOM      1  C   UNL     1      -7.286   5.802 131.766  0.00  0.00    +0.000 C 
ATOM      2  C   UNL     1      -8.342   5.893 132.974  0.00  0.00    +0.000 C 
ATOM      3  C   UNL     1      -9.827   5.822 132.698  0.00  0.00    +0.000 C 
ATOM      4  N   UNL     1     -10.198   6.728 131.602  0.00  0.00    +0.000 NA
ATOM      5  C   UNL     1      -9.306   6.460 130.502  0.00  0.00    +0.000 C 
ATOM      6  C   UNL     1      -7.898   6.942 130.928  0.00  0.00    +0.000 C 
ENDROOT
BRANCH   1   9
ATOM      7  C   UNL     1      -6.246   4.760 129.627  0.00  0.00    +0.000 C 
ATOM      8  O   UNL     1      -5.582   5.778 129.435  0.00  0.00    +0.000 OA
ATOM      9  N   UNL     1      -7.142   4.650 130.691  0.00  0.00    +0.000 N 
BRANCH   9  10
ATOM     10  C   UNL     1      -7.868   3.358 130.950  0.00  0.00    +0.000 A 
ATOM     11  C   UNL     1      -9.197   3.150 130.531  0.00  0.00    +0.000 A 
ATOM     12  C   UNL     1     -10.044   2.264 131.242  0.00  0.00    +0.000 A 
ATOM     13  C   UNL     1      -9.539   1.410 132.220  0.00  0.00    +0.000 A 
ATOM     14  C   UNL     1      -8.207   1.513 132.575  0.00  0.00    +0.000 A 
ATOM     15  C   UNL     1      -7.408   2.501 131.983  0.00  0.00    +0.000 A 
ENDBRANCH   9  10
BRANCH   7  17
ATOM     16  C   UNL     1      -4.808   2.792 128.893  0.00  0.00    +0.000 C 
ATOM     17  C   UNL     1      -6.110   3.525 128.728  0.00  0.00    +0.000 C 
ENDBRANCH   7  17
ENDBRANCH   1   9
BRANCH   1  18
ATOM     18  C   UNL     1      -5.974   5.754 132.688  0.00  0.00    +0.000 C 
ATOM     19  O   UNL     1      -5.878   5.109 133.729  0.00  0.00    +0.000 OA
BRANCH  18  20
ATOM     20  O   UNL     1      -5.036   6.707 132.342  0.00  0.00    +0.000 OA
ATOM     21  C   UNL     1      -3.696   6.548 132.859  0.00  0.00    +0.000 C 
ENDBRANCH  18  20
ENDBRANCH   1  18
BRANCH   4  22
ATOM     22  C   UNL     1     -11.597   6.505 131.232  0.00  0.00    +0.000 C 
BRANCH  22  23
ATOM     23  C   UNL     1     -12.221   7.682 130.477  0.00  0.00    +0.000 C 
BRANCH  23  24
ATOM     24  C   UNL     1     -12.362   7.295 129.029  0.00  0.00    +0.000 C 
ATOM     25  O   UNL     1     -12.634   6.189 128.631  0.00  0.00    +0.000 OA
BRANCH  24  26
ATOM     26  O   UNL     1     -12.100   8.376 128.234  0.00  0.00    +0.000 OA
ATOM     27  C   UNL     1     -10.863   8.249 127.535  0.00  0.00    +0.000 C 
ENDBRANCH  24  26
ENDBRANCH  23  24
ENDBRANCH  22  23
ENDBRANCH   4  22
TORSDOF 9
ENDMDL
MODEL 7
REMARK VINA RESULT:      -6.1      6.680      9.201
REMARK  Name = Remifentanil
REMARK  12 active torsions:
REMARK  status: ('A' for Active; 'I' for Inactive)
REMARK    1  A    between atoms: C_1  and  C_2
REMARK    2  A    between atoms: C_2  and  C_3
REMARK    3  A    between atoms: N_5  and  C_6
REMARK    4  A    between atoms: N_5  and  C_12
REMARK    5  A    between atoms: C_12  and  C_24
REMARK    6  A    between atoms: N_15  and  C_16
REMARK    7  A    between atoms: C_16  and  C_17
REMARK    8  A    between atoms: C_17  and  C_18
REMARK    9  A    between atoms: C_18  and  O_20
REMARK   10  A    between atoms: O_20  and  C_21
REMARK   11  A    between atoms: C_24  and  O_26
REMARK   12  A    between atoms: O_26  and  C_27
REMARK                            x       y       z     vdW  Elec       q    Type
REMARK                         _______ _______ _______ _____ _____    ______ ____
ROOT
ATOM      1  C   UNL     1      -8.944   4.890 130.640  0.00  0.00    +0.000 C 
ATOM      2  C   UNL     1      -8.631   4.227 129.210  0.00  0.00    +0.000 C 
ATOM      3  C   UNL     1      -7.220   3.825 128.848  0.00  0.00    +0.000 C 
ATOM      4  N   UNL     1      -6.274   4.910 129.146  0.00  0.00    +0.000 NA
ATOM      5  C   UNL     1      -6.515   5.329 130.504  0.00  0.00    +0.000 C 
ATOM      6  C   UNL     1      -7.901   6.019 130.530  0.00  0.00    +0.000 C 
ENDROOT
BRANCH   1   9
ATOM      7  C   UNL     1      -8.738   5.079 133.222  0.00  0.00    +0.000 C 
ATOM      8  O   UNL     1      -9.013   6.277 133.173  0.00  0.00    +0.000 OA
ATOM      9  N   UNL     1      -8.629   4.296 132.073  0.00  0.00    +0.000 N 
BRANCH   9  10
ATOM     10  C   UNL     1      -8.383   2.816 132.176  0.00  0.00    +0.000 A 
ATOM     11  C   UNL     1      -7.112   2.251 131.944  0.00  0.00    +0.000 A 
ATOM     12  C   UNL     1      -6.994   0.924 131.460  0.00  0.00    +0.000 A 
ATOM     13  C   UNL     1      -8.093   0.069 131.418  0.00  0.00    +0.000 A 
ATOM     14  C   UNL     1      -9.340   0.565 131.750  0.00  0.00    +0.000 A 
ATOM     15  C   UNL     1      -9.480   1.922 132.073  0.00  0.00    +0.000 A 
ENDBRANCH   9  10
BRANCH   7  17
ATOM     16  C   UNL     1      -7.234   4.696 135.240  0.00  0.00    +0.000 C 
ATOM     17  C   UNL     1      -8.528   4.353 134.557  0.00  0.00    +0.000 C 
ENDBRANCH   7  17
ENDBRANCH   1   9
BRANCH   1  18
ATOM     18  C   UNL     1     -10.540   4.905 130.477  0.00  0.00    +0.000 C 
ATOM     19  O   UNL     1     -11.217   3.930 130.165  0.00  0.00    +0.000 OA
BRANCH  18  20
ATOM     20  O   UNL     1     -11.070   6.181 130.473  0.00  0.00    +0.000 OA
ATOM     21  C   UNL     1     -11.985   6.531 131.535  0.00  0.00    +0.000 C 
ENDBRANCH  18  20
ENDBRANCH   1  18
BRANCH   4  22
ATOM     22  C   UNL     1      -4.902   4.431 128.962  0.00  0.00    +0.000 C 
BRANCH  22  23
ATOM     23  C   UNL     1      -4.227   4.990 127.706  0.00  0.00    +0.000 C 
BRANCH  23  24
ATOM     24  C   UNL     1      -2.746   4.746 127.816  0.00  0.00    +0.000 C 
ATOM     25  O   UNL     1      -2.153   3.834 127.293  0.00  0.00    +0.000 OA
BRANCH  24  26
ATOM     26  O   UNL     1      -2.180   5.691 128.625  0.00  0.00    +0.000 OA
ATOM     27  C   UNL     1      -2.383   7.017 128.137  0.00  0.00    +0.000 C 
ENDBRANCH  24  26
ENDBRANCH  23  24
ENDBRANCH  22  23
ENDBRANCH   4  22
TORSDOF 9
ENDMDL
MODEL 8
REMARK VINA RESULT:      -6.0      2.352      4.675
REMARK  Name = Remifentanil
REMARK  12 active torsions:
REMARK  status: ('A' for Active; 'I' for Inactive)
REMARK    1  A    between atoms: C_1  and  C_2
REMARK    2  A    between atoms: C_2  and  C_3
REMARK    3  A    between atoms: N_5  and  C_6
REMARK    4  A    between atoms: N_5  and  C_12
REMARK    5  A    between atoms: C_12  and  C_24
REMARK    6  A    between atoms: N_15  and  C_16
REMARK    7  A    between atoms: C_16  and  C_17
REMARK    8  A    between atoms: C_17  and  C_18
REMARK    9  A    between atoms: C_18  and  O_20
REMARK   10  A    between atoms: O_20  and  C_21
REMARK   11  A    between atoms: C_24  and  O_26
REMARK   12  A    between atoms: O_26  and  C_27
REMARK                            x       y       z     vdW  Elec       q    Type
REMARK                         _______ _______ _______ _____ _____    ______ ____
ROOT
ATOM      1  C   UNL     1      -9.136   0.213 124.372  0.00  0.00    +0.000 C 
ATOM      2  C   UNL     1      -8.951   1.574 123.538  0.00  0.00    +0.000 C 
ATOM      3  C   UNL     1      -8.189   2.737 124.133  0.00  0.00    +0.000 C 
ATOM      4  N   UNL     1      -8.645   3.014 125.503  0.00  0.00    +0.000 NA
ATOM      5  C   UNL     1      -8.618   1.766 126.225  0.00  0.00    +0.000 C 
ATOM      6  C   UNL     1      -9.733   0.872 125.630  0.00  0.00    +0.000 C 
ENDROOT
BRANCH   1   9
ATOM      7  C   UNL     1      -6.721  -0.742 124.444  0.00  0.00    +0.000 C 
ATOM      8  O   UNL     1      -6.430  -0.125 123.420  0.00  0.00    +0.000 OA
ATOM      9  N   UNL     1      -8.004  -0.704 124.992  0.00  0.00    +0.000 N 
BRANCH   9  10
ATOM     10  C   UNL     1      -8.300  -1.394 126.295  0.00  0.00    +0.000 A 
ATOM     11  C   UNL     1      -7.626  -1.063 127.487  0.00  0.00    +0.000 A 
ATOM     12  C   UNL     1      -7.448  -2.033 128.505  0.00  0.00    +0.000 A 
ATOM     13  C   UNL     1      -8.120  -3.253 128.466  0.00  0.00    +0.000 A 
ATOM     14  C   UNL     1      -8.883  -3.561 127.355  0.00  0.00    +0.000 A 
ATOM     15  C   UNL     1      -8.928  -2.666 126.277  0.00  0.00    +0.000 A 
ENDBRANCH   9  10
BRANCH   7  17
ATOM     16  C   UNL     1      -5.393  -2.908 124.590  0.00  0.00    +0.000 C 
ATOM     17  C   UNL     1      -5.683  -1.570 125.210  0.00  0.00    +0.000 C 
ENDBRANCH   7  17
ENDBRANCH   1   9
BRANCH   1  18
ATOM     18  C   UNL     1      -9.822  -0.623 123.187  0.00  0.00    +0.000 C 
ATOM     19  O   UNL     1     -10.479  -0.128 122.276  0.00  0.00    +0.000 OA
BRANCH  18  20
ATOM     20  O   UNL     1      -9.824  -1.985 123.419  0.00  0.00    +0.000 OA
ATOM     21  C   UNL     1      -8.952  -2.804 122.609  0.00  0.00    +0.000 C 
ENDBRANCH  18  20
ENDBRANCH   1  18
BRANCH   4  22
ATOM     22  C   UNL     1      -7.771   4.015 126.118  0.00  0.00    +0.000 C 
BRANCH  22  23
ATOM     23  C   UNL     1      -6.522   4.324 125.287  0.00  0.00    +0.000 C 
BRANCH  23  24
ATOM     24  C   UNL     1      -5.344   4.416 126.219  0.00  0.00    +0.000 C 
ATOM     25  O   UNL     1      -5.261   5.167 127.160  0.00  0.00    +0.000 OA
BRANCH  24  26
ATOM     26  O   UNL     1      -4.368   3.547 125.816  0.00  0.00    +0.000 OA
ATOM     27  C   UNL     1      -4.608   2.214 126.266  0.00  0.00    +0.000 C 
ENDBRANCH  24  26
ENDBRANCH  23  24
ENDBRANCH  22  23
ENDBRANCH   4  22
TORSDOF 9
ENDMDL
MODEL 9
REMARK VINA RESULT:      -6.0      6.237      9.753
REMARK  Name = Remifentanil
REMARK  12 active torsions:
REMARK  status: ('A' for Active; 'I' for Inactive)
REMARK    1  A    between atoms: C_1  and  C_2
REMARK    2  A    between atoms: C_2  and  C_3
REMARK    3  A    between atoms: N_5  and  C_6
REMARK    4  A    between atoms: N_5  and  C_12
REMARK    5  A    between atoms: C_12  and  C_24
REMARK    6  A    between atoms: N_15  and  C_16
REMARK    7  A    between atoms: C_16  and  C_17
REMARK    8  A    between atoms: C_17  and  C_18
REMARK    9  A    between atoms: C_18  and  O_20
REMARK   10  A    between atoms: O_20  and  C_21
REMARK   11  A    between atoms: C_24  and  O_26
REMARK   12  A    between atoms: O_26  and  C_27
REMARK                            x       y       z     vdW  Elec       q    Type
REMARK                         _______ _______ _______ _____ _____    ______ ____
ROOT
ATOM      1  C   UNL     1      -8.038   3.079 130.709  0.00  0.00    +0.000 C 
ATOM      2  C   UNL     1      -8.082   3.688 129.223  0.00  0.00    +0.000 C 
ATOM      3  C   UNL     1      -8.778   5.003 128.956  0.00  0.00    +0.000 C 
ATOM      4  N   UNL     1     -10.112   5.023 129.574  0.00  0.00    +0.000 NA
ATOM      5  C   UNL     1      -9.952   4.625 130.951  0.00  0.00    +0.000 C 
ATOM      6  C   UNL     1      -9.559   3.128 130.950  0.00  0.00    +0.000 C 
ENDROOT
BRANCH   1   9
ATOM      7  C   UNL     1      -7.765   3.253 133.286  0.00  0.00    +0.000 C 
ATOM      8  O   UNL     1      -8.515   2.291 133.446  0.00  0.00    +0.000 OA
ATOM      9  N   UNL     1      -7.480   3.767 132.021  0.00  0.00    +0.000 N 
BRANCH   9  10
ATOM     10  C   UNL     1      -6.486   4.884 131.855  0.00  0.00    +0.000 A 
ATOM     11  C   UNL     1      -6.888   6.228 131.711  0.00  0.00    +0.000 A 
ATOM     12  C   UNL     1      -6.084   7.144 130.990  0.00  0.00    +0.000 A 
ATOM     13  C   UNL     1      -4.785   6.819 130.604  0.00  0.00    +0.000 A 
ATOM     14  C   UNL     1      -4.320   5.537 130.833  0.00  0.00    +0.000 A 
ATOM     15  C   UNL     1      -5.176   4.583 131.402  0.00  0.00    +0.000 A 
ENDBRANCH   9  10
BRANCH   7  17
ATOM     16  C   UNL     1      -7.906   4.963 135.166  0.00  0.00    +0.000 C 
ATOM     17  C   UNL     1      -7.062   3.935 134.467  0.00  0.00    +0.000 C 
ENDBRANCH   7  17
ENDBRANCH   1   9
BRANCH   1  18
ATOM     18  C   UNL     1      -7.059   1.855 130.366  0.00  0.00    +0.000 C 
ATOM     19  O   UNL     1      -6.835   0.911 131.117  0.00  0.00    +0.000 OA
BRANCH  18  20
ATOM     20  O   UNL     1      -6.287   2.082 129.243  0.00  0.00    +0.000 OA
ATOM     21  C   UNL     1      -5.482   0.986 128.751  0.00  0.00    +0.000 C 
ENDBRANCH  18  20
ENDBRANCH   1  18
BRANCH   4  22
ATOM     22  C   UNL     1     -10.686   6.365 129.461  0.00  0.00    +0.000 C 
BRANCH  22  23
ATOM     23  C   UNL     1     -12.217   6.370 129.440  0.00  0.00    +0.000 C 
BRANCH  23  24
ATOM     24  C   UNL     1     -12.700   7.422 130.402  0.00  0.00    +0.000 C 
ATOM     25  O   UNL     1     -13.286   7.200 131.435  0.00  0.00    +0.000 OA
BRANCH  24  26
ATOM     26  O   UNL     1     -12.409   8.665 129.914  0.00  0.00    +0.000 OA
ATOM     27  C   UNL     1     -13.154   8.975 128.737  0.00  0.00    +0.000 C 
ENDBRANCH  24  26
ENDBRANCH  23  24
ENDBRANCH  22  23
ENDBRANCH   4  22
TORSDOF 9
ENDMDL
