MODEL 1
REMARK VINA RESULT:      -6.6      0.000      0.000
REMARK  Name = Remoxipride
REMARK  9 active torsions:
REMARK  status: ('A' for Active; 'I' for Inactive)
REMARK    1  A    between atoms: C_1  and  C_2
REMARK    2  A    between atoms: C_2  and  N_3
REMARK    3  A    between atoms: C_7  and  C_8
REMARK    4  A    between atoms: C_8  and  N_9
REMARK    5  A    between atoms: C_10  and  C_12
REMARK    6  A    between atoms: C_13  and  O_14
REMARK    7  A    between atoms: O_14  and  C_15
REMARK    8  A    between atoms: C_20  and  O_21
REMARK    9  A    between atoms: O_21  and  C_22
REMARK                            x       y       z     vdW  Elec       q    Type
REMARK                         _______ _______ _______ _____ _____    ______ ____
ROOT
ATOM      1  N   UNL     1     -11.516   5.618 131.449  0.00  0.00    +0.000 N 
ATOM      2  C   UNL     1     -10.162   5.525 131.738  0.00  0.00    +0.000 C 
ATOM      3  O   UNL     1      -9.510   6.514 132.082  0.00  0.00    +0.000 OA
ATOM      4  H   UNL     1     -11.991   4.806 131.078  0.00  0.00    +0.000 HD
ENDROOT
BRANCH   2   5
ATOM      5  C   UNL     1      -9.493   4.172 131.618  0.00  0.00    +0.000 A 
ATOM      6  C   UNL     1      -9.163   3.426 132.781  0.00  0.00    +0.000 A 
ATOM      7  C   UNL     1      -8.596   2.156 132.633  0.00  0.00    +0.000 A 
ATOM      8  C   UNL     1      -8.362   1.619 131.378  0.00  0.00    +0.000 A 
ATOM      9  C   UNL     1      -8.685   2.321 130.218  0.00  0.00    +0.000 A 
ATOM     10 BR   UNL     1      -8.242   1.295 128.664  0.00  0.00    +0.000 Br
ATOM     11  C   UNL     1      -9.255   3.613 130.310  0.00  0.00    +0.000 A 
BRANCH   6  12
ATOM     12  O   UNL     1      -9.426   3.954 134.024  0.00  0.00    +0.000 OA
ATOM     13  C   UNL     1      -8.303   4.440 134.770  0.00  0.00    +0.000 C 
ENDBRANCH   6  12
BRANCH  11  14
ATOM     14  O   UNL     1      -9.590   4.436 129.262  0.00  0.00    +0.000 OA
ATOM     15  C   UNL     1      -8.578   5.058 128.490  0.00  0.00    +0.000 C 
ENDBRANCH  11  14
ENDBRANCH   2   5
BRANCH   1  16
ATOM     16  C   UNL     1     -12.231   6.900 131.537  0.00  0.00    +0.000 C 
BRANCH  16  21
ATOM     17  N   UNL     1     -12.117   8.631 129.687  0.00  0.00    +0.000 NA
ATOM     18  C   UNL     1     -11.201   8.212 128.612  0.00  0.00    +0.000 C 
ATOM     19  C   UNL     1     -11.888   7.042 127.929  0.00  0.00    +0.000 C 
ATOM     20  C   UNL     1     -12.554   6.327 129.087  0.00  0.00    +0.000 C 
ATOM     21  C   UNL     1     -12.784   7.392 130.173  0.00  0.00    +0.000 C 
BRANCH  17  23
ATOM     22  C   UNL     1     -13.356  10.798 130.208  0.00  0.00    +0.000 C 
ATOM     23  C   UNL     1     -13.081   9.657 129.232  0.00  0.00    +0.000 C 
ENDBRANCH  17  23
ENDBRANCH  16  21
ENDBRANCH   1  16
TORSDOF 6
ENDMDL
MODEL 2
REMARK VINA RESULT:      -6.2      7.824     10.271
REMARK  Name = Remoxipride
REMARK  9 active torsions:
REMARK  status: ('A' for Active; 'I' for Inactive)
REMARK    1  A    between atoms: C_1  and  C_2
REMARK    2  A    between atoms: C_2  and  N_3
REMARK    3  A    between atoms: C_7  and  C_8
REMARK    4  A    between atoms: C_8  and  N_9
REMARK    5  A    between atoms: C_10  and  C_12
REMARK    6  A    between atoms: C_13  and  O_14
REMARK    7  A    between atoms: O_14  and  C_15
REMARK    8  A    between atoms: C_20  and  O_21
REMARK    9  A    between atoms: O_21  and  C_22
REMARK                            x       y       z     vdW  Elec       q    Type
REMARK                         _______ _______ _______ _____ _____    ______ ____
ROOT
ATOM      1  N   UNL     1      -7.542   0.447 125.453  0.00  0.00    +0.000 N 
ATOM      2  C   UNL     1      -8.064   1.712 125.218  0.00  0.00    +0.000 C 
ATOM      3  O   UNL     1      -8.737   2.296 126.070  0.00  0.00    +0.000 OA
ATOM      4  H   UNL     1      -7.079  -0.036 124.694  0.00  0.00    +0.000 HD
ENDROOT
BRANCH   2   5
ATOM      5  C   UNL     1      -7.792   2.364 123.879  0.00  0.00    +0.000 A 
ATOM      6  C   UNL     1      -8.800   2.400 122.878  0.00  0.00    +0.000 A 
ATOM      7  C   UNL     1      -8.534   3.058 121.673  0.00  0.00    +0.000 A 
ATOM      8  C   UNL     1      -7.316   3.677 121.449  0.00  0.00    +0.000 A 
ATOM      9  C   UNL     1      -6.312   3.670 122.415  0.00  0.00    +0.000 A 
ATOM     10 BR   UNL     1      -4.770   4.617 121.792  0.00  0.00    +0.000 Br
ATOM     11  C   UNL     1      -6.525   3.012 123.650  0.00  0.00    +0.000 A 
BRANCH   6  12
ATOM     12  O   UNL     1     -10.018   1.808 123.119  0.00  0.00    +0.000 OA
ATOM     13  C   UNL     1     -10.234   0.514 122.541  0.00  0.00    +0.000 C 
ENDBRANCH   6  12
BRANCH  11  14
ATOM     14  O   UNL     1      -5.622   2.890 124.679  0.00  0.00    +0.000 OA
ATOM     15  C   UNL     1      -5.277   4.018 125.465  0.00  0.00    +0.000 C 
ENDBRANCH  11  14
ENDBRANCH   2   5
BRANCH   1  16
ATOM     16  C   UNL     1      -7.770  -0.251 126.726  0.00  0.00    +0.000 C 
BRANCH  16  21
ATOM     17  N   UNL     1      -8.851  -2.537 126.530  0.00  0.00    +0.000 NA
ATOM     18  C   UNL     1      -8.973  -2.958 125.123  0.00  0.00    +0.000 C 
ATOM     19  C   UNL     1      -7.552  -3.222 124.656  0.00  0.00    +0.000 C 
ATOM     20  C   UNL     1      -6.762  -2.144 125.370  0.00  0.00    +0.000 C 
ATOM     21  C   UNL     1      -7.569  -1.787 126.631  0.00  0.00    +0.000 C 
BRANCH  17  23
ATOM     22  C   UNL     1      -8.140  -3.529 128.769  0.00  0.00    +0.000 C 
ATOM     23  C   UNL     1      -8.916  -3.684 127.463  0.00  0.00    +0.000 C 
ENDBRANCH  17  23
ENDBRANCH  16  21
ENDBRANCH   1  16
TORSDOF 6
ENDMDL
MODEL 3
REMARK VINA RESULT:      -6.1      8.529     10.929
REMARK  Name = Remoxipride
REMARK  9 active torsions:
REMARK  status: ('A' for Active; 'I' for Inactive)
REMARK    1  A    between atoms: C_1  and  C_2
REMARK    2  A    between atoms: C_2  and  N_3
REMARK    3  A    between atoms: C_7  and  C_8
REMARK    4  A    between atoms: C_8  and  N_9
REMARK    5  A    between atoms: C_10  and  C_12
REMARK    6  A    between atoms: C_13  and  O_14
REMARK    7  A    between atoms: O_14  and  C_15
REMARK    8  A    between atoms: C_20  and  O_21
REMARK    9  A    between atoms: O_21  and  C_22
REMARK                            x       y       z     vdW  Elec       q    Type
REMARK                         _______ _______ _______ _____ _____    ______ ____
ROOT
ATOM      1  N   UNL     1      -7.317  -0.145 123.234  0.00  0.00    +0.000 N 
ATOM      2  C   UNL     1      -7.804   1.074 123.684  0.00  0.00    +0.000 C 
ATOM      3  O   UNL     1      -9.010   1.254 123.870  0.00  0.00    +0.000 OA
ATOM      4  H   UNL     1      -6.335  -0.221 123.003  0.00  0.00    +0.000 HD
ENDROOT
BRANCH   2   5
ATOM      5  C   UNL     1      -6.815   2.192 123.941  0.00  0.00    +0.000 A 
ATOM      6  C   UNL     1      -6.625   3.220 122.980  0.00  0.00    +0.000 A 
ATOM      7  C   UNL     1      -5.745   4.267 123.272  0.00  0.00    +0.000 A 
ATOM      8  C   UNL     1      -5.069   4.317 124.480  0.00  0.00    +0.000 A 
ATOM      9  C   UNL     1      -5.242   3.329 125.447  0.00  0.00    +0.000 A 
ATOM     10 BR   UNL     1      -4.173   3.703 126.991  0.00  0.00    +0.000 Br
ATOM     11  C   UNL     1      -6.116   2.244 125.201  0.00  0.00    +0.000 A 
BRANCH   6  12
ATOM     12  O   UNL     1      -7.323   3.180 121.795  0.00  0.00    +0.000 OA
ATOM     13  C   UNL     1      -6.725   3.836 120.670  0.00  0.00    +0.000 C 
ENDBRANCH   6  12
BRANCH  11  14
ATOM     14  O   UNL     1      -6.360   1.182 126.039  0.00  0.00    +0.000 OA
ATOM     15  C   UNL     1      -5.318   0.281 126.373  0.00  0.00    +0.000 C 
ENDBRANCH  11  14
ENDBRANCH   2   5
BRANCH   1  16
ATOM     16  C   UNL     1      -8.218  -1.274 122.957  0.00  0.00    +0.000 C 
BRANCH  16  21
ATOM     17  N   UNL     1      -6.797  -2.408 124.726  0.00  0.00    +0.000 NA
ATOM     18  C   UNL     1      -7.561  -2.642 125.964  0.00  0.00    +0.000 C 
ATOM     19  C   UNL     1      -8.577  -3.716 125.616  0.00  0.00    +0.000 C 
ATOM     20  C   UNL     1      -8.957  -3.363 124.192  0.00  0.00    +0.000 C 
ATOM     21  C   UNL     1      -7.753  -2.607 123.602  0.00  0.00    +0.000 C 
BRANCH  17  23
ATOM     22  C   UNL     1      -4.815  -3.195 123.327  0.00  0.00    +0.000 C 
ATOM     23  C   UNL     1      -5.611  -3.288 124.627  0.00  0.00    +0.000 C 
ENDBRANCH  17  23
ENDBRANCH  16  21
ENDBRANCH   1  16
TORSDOF 6
ENDMDL
MODEL 4
REMARK VINA RESULT:      -6.1      1.317      3.028
REMARK  Name = Remoxipride
REMARK  9 active torsions:
REMARK  status: ('A' for Active; 'I' for Inactive)
REMARK    1  A    between atoms: C_1  and  C_2
REMARK    2  A    between atoms: C_2  and  N_3
REMARK    3  A    between atoms: C_7  and  C_8
REMARK    4  A    between atoms: C_8  and  N_9
REMARK    5  A    between atoms: C_10  and  C_12
REMARK    6  A    between atoms: C_13  and  O_14
REMARK    7  A    between atoms: O_14  and  C_15
REMARK    8  A    between atoms: C_20  and  O_21
REMARK    9  A    between atoms: O_21  and  C_22
REMARK                            x       y       z     vdW  Elec       q    Type
REMARK                         _______ _______ _______ _____ _____    ______ ____
ROOT
ATOM      1  N   UNL     1     -11.103   5.618 130.613  0.00  0.00    +0.000 N 
ATOM      2  C   UNL     1      -9.732   5.441 130.490  0.00  0.00    +0.000 C 
ATOM      3  O   UNL     1      -8.946   6.375 130.669  0.00  0.00    +0.000 OA
ATOM      4  H   UNL     1     -11.716   4.853 130.364  0.00  0.00    +0.000 HD
ENDROOT
BRANCH   2   5
ATOM      5  C   UNL     1      -9.214   4.066 130.123  0.00  0.00    +0.000 A 
ATOM      6  C   UNL     1      -8.611   3.839 128.857  0.00  0.00    +0.000 A 
ATOM      7  C   UNL     1      -8.095   2.571 128.572  0.00  0.00    +0.000 A 
ATOM      8  C   UNL     1      -8.156   1.547 129.502  0.00  0.00    +0.000 A 
ATOM      9  C   UNL     1      -8.731   1.742 130.756  0.00  0.00    +0.000 A 
ATOM     10 BR   UNL     1      -8.645   0.137 131.795  0.00  0.00    +0.000 Br
ATOM     11  C   UNL     1      -9.275   3.004 131.096  0.00  0.00    +0.000 A 
BRANCH   6  12
ATOM     12  O   UNL     1      -8.527   4.869 127.949  0.00  0.00    +0.000 OA
ATOM     13  C   UNL     1      -7.906   4.573 126.692  0.00  0.00    +0.000 C 
ENDBRANCH   6  12
BRANCH  11  14
ATOM     14  O   UNL     1      -9.903   3.335 132.272  0.00  0.00    +0.000 OA
ATOM     15  C   UNL     1      -9.164   3.415 133.479  0.00  0.00    +0.000 C 
ENDBRANCH  11  14
ENDBRANCH   2   5
BRANCH   1  16
ATOM     16  C   UNL     1     -11.678   6.926 130.960  0.00  0.00    +0.000 C 
BRANCH  16  21
ATOM     17  N   UNL     1     -12.170   8.691 129.205  0.00  0.00    +0.000 NA
ATOM     18  C   UNL     1     -11.725   8.262 127.868  0.00  0.00    +0.000 C 
ATOM     19  C   UNL     1     -12.660   7.132 127.473  0.00  0.00    +0.000 C 
ATOM     20  C   UNL     1     -12.890   6.417 128.789  0.00  0.00    +0.000 C 
ATOM     21  C   UNL     1     -12.667   7.467 129.892  0.00  0.00    +0.000 C 
BRANCH  17  23
ATOM     22  C   UNL     1     -13.267  10.691 130.345  0.00  0.00    +0.000 C 
ATOM     23  C   UNL     1     -13.191   9.760 129.137  0.00  0.00    +0.000 C 
ENDBRANCH  17  23
ENDBRANCH  16  21
ENDBRANCH   1  16
TORSDOF 6
ENDMDL
MODEL 5
REMARK VINA RESULT:      -6.0      6.580      8.885
REMARK  Name = Remoxipride
REMARK  9 active torsions:
REMARK  status: ('A' for Active; 'I' for Inactive)
REMARK    1  A    between atoms: C_1  and  C_2
REMARK    2  A    between atoms: C_2  and  N_3
REMARK    3  A    between atoms: C_7  and  C_8
REMARK    4  A    between atoms: C_8  and  N_9
REMARK    5  A    between atoms: C_10  and  C_12
REMARK    6  A    between atoms: C_13  and  O_14
REMARK    7  A    between atoms: O_14  and  C_15
REMARK    8  A    between atoms: C_20  and  O_21
REMARK    9  A    between atoms: O_21  and  C_22
REMARK                            x       y       z     vdW  Elec       q    Type
REMARK                         _______ _______ _______ _____ _____    ______ ____
ROOT
ATOM      1  N   UNL     1      -8.607   0.920 123.740  0.00  0.00    +0.000 N 
ATOM      2  C   UNL     1      -9.396   0.389 124.752  0.00  0.00    +0.000 C 
ATOM      3  O   UNL     1     -10.586   0.692 124.862  0.00  0.00    +0.000 OA
ATOM      4  H   UNL     1      -7.615   0.722 123.743  0.00  0.00    +0.000 HD
ENDROOT
BRANCH   2   5
ATOM      5  C   UNL     1      -8.758  -0.575 125.730  0.00  0.00    +0.000 A 
ATOM      6  C   UNL     1      -8.963  -1.974 125.598  0.00  0.00    +0.000 A 
ATOM      7  C   UNL     1      -8.315  -2.840 126.486  0.00  0.00    +0.000 A 
ATOM      8  C   UNL     1      -7.477  -2.354 127.476  0.00  0.00    +0.000 A 
ATOM      9  C   UNL     1      -7.247  -0.988 127.623  0.00  0.00    +0.000 A 
ATOM     10 BR   UNL     1      -6.041  -0.660 129.073  0.00  0.00    +0.000 Br
ATOM     11  C   UNL     1      -7.883  -0.066 126.757  0.00  0.00    +0.000 A 
BRANCH   6  12
ATOM     12  O   UNL     1      -9.773  -2.451 124.594  0.00  0.00    +0.000 OA
ATOM     13  C   UNL     1      -9.129  -3.150 123.522  0.00  0.00    +0.000 C 
ENDBRANCH   6  12
BRANCH  11  14
ATOM     14  O   UNL     1      -7.783   1.303 126.802  0.00  0.00    +0.000 OA
ATOM     15  C   UNL     1      -8.359   2.027 127.876  0.00  0.00    +0.000 C 
ENDBRANCH  11  14
ENDBRANCH   2   5
BRANCH   1  16
ATOM     16  C   UNL     1      -9.155   1.867 122.759  0.00  0.00    +0.000 C 
BRANCH  16  21
ATOM     17  N   UNL     1      -6.831   2.882 122.768  0.00  0.00    +0.000 NA
ATOM     18  C   UNL     1      -6.232   2.873 121.422  0.00  0.00    +0.000 C 
ATOM     19  C   UNL     1      -7.031   3.882 120.617  0.00  0.00    +0.000 C 
ATOM     20  C   UNL     1      -8.438   3.691 121.148  0.00  0.00    +0.000 C 
ATOM     21  C   UNL     1      -8.285   3.139 122.576  0.00  0.00    +0.000 C 
BRANCH  17  23
ATOM     22  C   UNL     1      -5.626   3.335 124.970  0.00  0.00    +0.000 C 
ATOM     23  C   UNL     1      -6.189   3.876 123.658  0.00  0.00    +0.000 C 
ENDBRANCH  17  23
ENDBRANCH  16  21
ENDBRANCH   1  16
TORSDOF 6
ENDMDL
MODEL 6
REMARK VINA RESULT:      -6.0      8.484     10.908
REMARK  Name = Remoxipride
REMARK  9 active torsions:
REMARK  status: ('A' for Active; 'I' for Inactive)
REMARK    1  A    between atoms: C_1  and  C_2
REMARK    2  A    between atoms: C_2  and  N_3
REMARK    3  A    between atoms: C_7  and  C_8
REMARK    4  A    between atoms: C_8  and  N_9
REMARK    5  A    between atoms: C_10  and  C_12
REMARK    6  A    between atoms: C_13  and  O_14
REMARK    7  A    between atoms: O_14  and  C_15
REMARK    8  A    between atoms: C_20  and  O_21
REMARK    9  A    between atoms: O_21  and  C_22
REMARK                            x       y       z     vdW  Elec       q    Type
REMARK                         _______ _______ _______ _____ _____    ______ ____
ROOT
ATOM      1  N   UNL     1      -7.613   1.144 123.319  0.00  0.00    +0.000 N 
ATOM      2  C   UNL     1      -7.845   2.512 123.286  0.00  0.00    +0.000 C 
ATOM      3  O   UNL     1      -8.843   3.006 123.817  0.00  0.00    +0.000 OA
ATOM      4  H   UNL     1      -6.837   0.770 122.789  0.00  0.00    +0.000 HD
ENDROOT
BRANCH   2   5
ATOM      5  C   UNL     1      -6.842   3.394 122.573  0.00  0.00    +0.000 A 
ATOM      6  C   UNL     1      -5.678   3.851 123.248  0.00  0.00    +0.000 A 
ATOM      7  C   UNL     1      -4.745   4.618 122.544  0.00  0.00    +0.000 A 
ATOM      8  C   UNL     1      -4.935   4.929 121.208  0.00  0.00    +0.000 A 
ATOM      9  C   UNL     1      -6.061   4.486 120.516  0.00  0.00    +0.000 A 
ATOM     10 BR   UNL     1      -6.010   5.081 118.697  0.00  0.00    +0.000 Br
ATOM     11  C   UNL     1      -7.041   3.712 121.181  0.00  0.00    +0.000 A 
BRANCH   6  12
ATOM     12  O   UNL     1      -5.481   3.513 124.567  0.00  0.00    +0.000 OA
ATOM     13  C   UNL     1      -5.625   4.564 125.531  0.00  0.00    +0.000 C 
ENDBRANCH   6  12
BRANCH  11  14
ATOM     14  O   UNL     1      -8.213   3.237 120.643  0.00  0.00    +0.000 OA
ATOM     15  C   UNL     1      -9.158   4.134 120.086  0.00  0.00    +0.000 C 
ENDBRANCH  11  14
ENDBRANCH   2   5
BRANCH   1  16
ATOM     16  C   UNL     1      -8.547   0.225 123.986  0.00  0.00    +0.000 C 
BRANCH  16  21
ATOM     17  N   UNL     1      -7.893  -2.225 123.907  0.00  0.00    +0.000 NA
ATOM     18  C   UNL     1      -6.548  -2.406 123.332  0.00  0.00    +0.000 C 
ATOM     19  C   UNL     1      -5.588  -1.840 124.363  0.00  0.00    +0.000 C 
ATOM     20  C   UNL     1      -6.351  -0.649 124.908  0.00  0.00    +0.000 C 
ATOM     21  C   UNL     1      -7.843  -0.963 124.695  0.00  0.00    +0.000 C 
BRANCH  17  23
ATOM     22  C   UNL     1      -9.297  -3.093 125.851  0.00  0.00    +0.000 C 
ATOM     23  C   UNL     1      -8.314  -3.388 124.719  0.00  0.00    +0.000 C 
ENDBRANCH  17  23
ENDBRANCH  16  21
ENDBRANCH   1  16
TORSDOF 6
ENDMDL
MODEL 7
REMARK VINA RESULT:      -6.0      4.080      6.529
REMARK  Name = Remoxipride
REMARK  9 active torsions:
REMARK  status: ('A' for Active; 'I' for Inactive)
REMARK    1  A    between atoms: C_1  and  C_2
REMARK    2  A    between atoms: C_2  and  N_3
REMARK    3  A    between atoms: C_7  and  C_8
REMARK    4  A    between atoms: C_8  and  N_9
REMARK    5  A    between atoms: C_10  and  C_12
REMARK    6  A    between atoms: C_13  and  O_14
REMARK    7  A    between atoms: O_14  and  C_15
REMARK    8  A    between atoms: C_20  and  O_21
REMARK    9  A    between atoms: O_21  and  C_22
REMARK                            x       y       z     vdW  Elec       q    Type
REMARK                         _______ _______ _______ _____ _____    ______ ____
ROOT
ATOM      1  N   UNL     1      -7.648   5.596 130.182  0.00  0.00    +0.000 N 
ATOM      2  C   UNL     1      -8.823   5.403 129.469  0.00  0.00    +0.000 C 
ATOM      3  O   UNL     1      -8.846   4.715 128.446  0.00  0.00    +0.000 OA
ATOM      4  H   UNL     1      -7.651   6.245 130.958  0.00  0.00    +0.000 HD
ENDROOT
BRANCH   2   5
ATOM      5  C   UNL     1     -10.087   6.065 129.975  0.00  0.00    +0.000 A 
ATOM      6  C   UNL     1     -10.669   5.660 131.206  0.00  0.00    +0.000 A 
ATOM      7  C   UNL     1     -11.805   6.329 131.671  0.00  0.00    +0.000 A 
ATOM      8  C   UNL     1     -12.361   7.377 130.956  0.00  0.00    +0.000 A 
ATOM      9  C   UNL     1     -11.808   7.805 129.751  0.00  0.00    +0.000 A 
ATOM     10 BR   UNL     1     -12.808   9.270 129.032  0.00  0.00    +0.000 Br
ATOM     11  C   UNL     1     -10.661   7.159 129.231  0.00  0.00    +0.000 A 
BRANCH   6  12
ATOM     12  O   UNL     1     -10.094   4.637 131.925  0.00  0.00    +0.000 OA
ATOM     13  C   UNL     1      -9.438   4.996 133.147  0.00  0.00    +0.000 C 
ENDBRANCH   6  12
BRANCH  11  14
ATOM     14  O   UNL     1     -10.028   7.443 128.045  0.00  0.00    +0.000 OA
ATOM     15  C   UNL     1     -10.706   7.267 126.813  0.00  0.00    +0.000 C 
ENDBRANCH  11  14
ENDBRANCH   2   5
BRANCH   1  16
ATOM     16  C   UNL     1      -6.380   4.991 129.748  0.00  0.00    +0.000 C 
BRANCH  16  21
ATOM     17  N   UNL     1      -3.957   5.696 129.491  0.00  0.00    +0.000 NA
ATOM     18  C   UNL     1      -3.846   7.097 129.049  0.00  0.00    +0.000 C 
ATOM     19  C   UNL     1      -4.311   7.932 130.230  0.00  0.00    +0.000 C 
ATOM     20  C   UNL     1      -5.433   7.093 130.807  0.00  0.00    +0.000 C 
ATOM     21  C   UNL     1      -5.131   5.639 130.404  0.00  0.00    +0.000 C 
BRANCH  17  23
ATOM     22  C   UNL     1      -2.881   4.512 131.477  0.00  0.00    +0.000 C 
ATOM     23  C   UNL     1      -2.713   5.213 130.130  0.00  0.00    +0.000 C 
ENDBRANCH  17  23
ENDBRANCH  16  21
ENDBRANCH   1  16
TORSDOF 6
ENDMDL
MODEL 8
REMARK VINA RESULT:      -5.9      7.515      9.679
REMARK  Name = Remoxipride
REMARK  9 active torsions:
REMARK  status: ('A' for Active; 'I' for Inactive)
REMARK    1  A    between atoms: C_1  and  C_2
REMARK    2  A    between atoms: C_2  and  N_3
REMARK    3  A    between atoms: C_7  and  C_8
REMARK    4  A    between atoms: C_8  and  N_9
REMARK    5  A    between atoms: C_10  and  C_12
REMARK    6  A    between atoms: C_13  and  O_14
REMARK    7  A    between atoms: O_14  and  C_15
REMARK    8  A    between atoms: C_20  and  O_21
REMARK    9  A    between atoms: O_21  and  C_22
REMARK                            x       y       z     vdW  Elec       q    Type
REMARK                         _______ _______ _______ _____ _____    ______ ____
ROOT
ATOM      1  N   UNL     1      -7.538   0.376 125.632  0.00  0.00    +0.000 N 
ATOM      2  C   UNL     1      -7.934   1.704 125.551  0.00  0.00    +0.000 C 
ATOM      3  O   UNL     1      -9.039   2.069 125.960  0.00  0.00    +0.000 OA
ATOM      4  H   UNL     1      -6.666   0.102 125.198  0.00  0.00    +0.000 HD
ENDROOT
BRANCH   2   5
ATOM      5  C   UNL     1      -6.976   2.705 124.941  0.00  0.00    +0.000 A 
ATOM      6  C   UNL     1      -6.095   3.454 125.767  0.00  0.00    +0.000 A 
ATOM      7  C   UNL     1      -5.185   4.329 125.167  0.00  0.00    +0.000 A 
ATOM      8  C   UNL     1      -5.125   4.467 123.790  0.00  0.00    +0.000 A 
ATOM      9  C   UNL     1      -5.968   3.738 122.953  0.00  0.00    +0.000 A 
ATOM     10 BR   UNL     1      -5.622   4.158 121.118  0.00  0.00    +0.000 Br
ATOM     11  C   UNL     1      -6.913   2.843 123.507  0.00  0.00    +0.000 A 
BRANCH   6  12
ATOM     12  O   UNL     1      -6.139   3.289 127.132  0.00  0.00    +0.000 OA
ATOM     13  C   UNL     1      -4.930   2.861 127.771  0.00  0.00    +0.000 C 
ENDBRANCH   6  12
BRANCH  11  14
ATOM     14  O   UNL     1      -7.829   2.087 122.815  0.00  0.00    +0.000 OA
ATOM     15  C   UNL     1      -8.924   2.711 122.165  0.00  0.00    +0.000 C 
ENDBRANCH  11  14
ENDBRANCH   2   5
BRANCH   1  16
ATOM     16  C   UNL     1      -8.418  -0.652 126.205  0.00  0.00    +0.000 C 
BRANCH  16  21
ATOM     17  N   UNL     1      -7.942  -1.863 124.027  0.00  0.00    +0.000 NA
ATOM     18  C   UNL     1      -7.211  -3.121 124.257  0.00  0.00    +0.000 C 
ATOM     19  C   UNL     1      -8.204  -4.046 124.940  0.00  0.00    +0.000 C 
ATOM     20  C   UNL     1      -8.981  -3.098 125.832  0.00  0.00    +0.000 C 
ATOM     21  C   UNL     1      -8.883  -1.712 125.170  0.00  0.00    +0.000 C 
BRANCH  17  23
ATOM     22  C   UNL     1      -9.757  -0.829 122.563  0.00  0.00    +0.000 C 
ATOM     23  C   UNL     1      -8.630  -1.848 122.717  0.00  0.00    +0.000 C 
ENDBRANCH  17  23
ENDBRANCH  16  21
ENDBRANCH   1  16
TORSDOF 6
ENDMDL
MODEL 9
REMARK VINA RESULT:      -5.9      7.275      8.883
REMARK  Name = Remoxipride
REMARK  9 active torsions:
REMARK  status: ('A' for Active; 'I' for Inactive)
REMARK    1  A    between atoms: C_1  and  C_2
REMARK    2  A    between atoms: C_2  and  N_3
REMARK    3  A    between atoms: C_7  and  C_8
REMARK    4  A    between atoms: C_8  and  N_9
REMARK    5  A    between atoms: C_10  and  C_12
REMARK    6  A    between atoms: C_13  and  O_14
REMARK    7  A    between atoms: O_14  and  C_15
REMARK    8  A    between atoms: C_20  and  O_21
REMARK    9  A    between atoms: O_21  and  C_22
REMARK                            x       y       z     vdW  Elec       q    Type
REMARK                         _______ _______ _______ _____ _____    ______ ____
ROOT
ATOM      1  N   UNL     1      -7.720   0.479 124.981  0.00  0.00    +0.000 N 
ATOM      2  C   UNL     1      -8.852  -0.027 125.604  0.00  0.00    +0.000 C 
ATOM      3  O   UNL     1      -9.949   0.524 125.487  0.00  0.00    +0.000 OA
ATOM      4  H   UNL     1      -6.824   0.054 125.181  0.00  0.00    +0.000 HD
ENDROOT
BRANCH   2   5
ATOM      5  C   UNL     1      -8.711  -1.280 126.442  0.00  0.00    +0.000 A 
ATOM      6  C   UNL     1      -9.188  -2.528 125.958  0.00  0.00    +0.000 A 
ATOM      7  C   UNL     1      -8.993  -3.675 126.733  0.00  0.00    +0.000 A 
ATOM      8  C   UNL     1      -8.339  -3.612 127.952  0.00  0.00    +0.000 A 
ATOM      9  C   UNL     1      -7.850  -2.406 128.449  0.00  0.00    +0.000 A 
ATOM     10 BR   UNL     1      -6.997  -2.670 130.143  0.00  0.00    +0.000 Br
ATOM     11  C   UNL     1      -8.025  -1.213 127.709  0.00  0.00    +0.000 A 
BRANCH   6  12
ATOM     12  O   UNL     1      -9.811  -2.588 124.732  0.00  0.00    +0.000 OA
ATOM     13  C   UNL     1      -9.115  -3.278 123.687  0.00  0.00    +0.000 C 
ENDBRANCH   6  12
BRANCH  11  14
ATOM     14  O   UNL     1      -7.632   0.050 128.084  0.00  0.00    +0.000 OA
ATOM     15  C   UNL     1      -6.260   0.339 128.289  0.00  0.00    +0.000 C 
ENDBRANCH  11  14
ENDBRANCH   2   5
BRANCH   1  16
ATOM     16  C   UNL     1      -7.779   1.696 124.158  0.00  0.00    +0.000 C 
BRANCH  16  21
ATOM     17  N   UNL     1      -6.523   3.802 123.510  0.00  0.00    +0.000 NA
ATOM     18  C   UNL     1      -6.289   4.672 124.676  0.00  0.00    +0.000 C 
ATOM     19  C   UNL     1      -5.277   3.934 125.535  0.00  0.00    +0.000 C 
ATOM     20  C   UNL     1      -5.691   2.486 125.364  0.00  0.00    +0.000 C 
ATOM     21  C   UNL     1      -6.406   2.403 124.003  0.00  0.00    +0.000 C 
BRANCH  17  23
ATOM     22  C   UNL     1      -5.784   3.273 121.127  0.00  0.00    +0.000 C 
ATOM     23  C   UNL     1      -5.590   4.095 122.399  0.00  0.00    +0.000 C 
ENDBRANCH  17  23
ENDBRANCH  16  21
ENDBRANCH   1  16
TORSDOF 6
ENDMDL
