MODEL 1
REMARK VINA RESULT:      -7.7      0.000      0.000
REMARK  Name = Repaglinide
REMARK  14 active torsions:
REMARK  status: ('A' for Active; 'I' for Inactive)
REMARK    1  A    between atoms: C_1  and  C_2
REMARK    2  A    between atoms: C_2  and  O_3
REMARK    3  A    between atoms: O_3  and  C_4
REMARK    4  A    between atoms: C_5  and  C_31
REMARK    5  A    between atoms: C_8  and  C_9
REMARK    6  A    between atoms: C_9  and  C_10
REMARK    7  A    between atoms: N_12  and  C_13
REMARK    8  A    between atoms: C_13  and  C_14
REMARK    9  A    between atoms: C_13  and  C_18
REMARK   10  A    between atoms: C_14  and  C_15
REMARK   11  A    between atoms: C_15  and  C_16
REMARK   12  A    between atoms: C_15  and  C_17
REMARK   13  A    between atoms: C_23  and  N_24
REMARK   14  A    between atoms: C_31  and  O_32
REMARK                            x       y       z     vdW  Elec       q    Type
REMARK                         _______ _______ _______ _____ _____    ______ ____
ROOT
ATOM      1  C   UNL     1      -5.681   0.457 127.037  0.00  0.00    +0.000 C 
ATOM      2  O   UNL     1      -5.023  -0.059 126.134  0.00  0.00    +0.000 OA
ATOM      3  N   UNL     1      -7.072   0.335 127.074  0.00  0.00    +0.000 N 
ATOM      4  H   UNL     1      -7.637   1.003 127.580  0.00  0.00    +0.000 HD
ENDROOT
BRANCH   1   5
ATOM      5  C   UNL     1      -5.036   1.051 128.324  0.00  0.00    +0.000 C 
BRANCH   5  10
ATOM      6  C   UNL     1      -4.816   4.895 128.936  0.00  0.00    +0.000 A 
ATOM      7  C   UNL     1      -3.741   5.261 128.118  0.00  0.00    +0.000 A 
ATOM      8  C   UNL     1      -3.186   4.271 127.276  0.00  0.00    +0.000 A 
ATOM      9  C   UNL     1      -3.593   2.922 127.350  0.00  0.00    +0.000 A 
ATOM     10  C   UNL     1      -4.584   2.523 128.249  0.00  0.00    +0.000 A 
ATOM     11  C   UNL     1      -5.186   3.546 128.998  0.00  0.00    +0.000 A 
BRANCH   7  12
ATOM     12  C   UNL     1      -3.151   6.633 128.269  0.00  0.00    +0.000 C 
ATOM     13  O   UNL     1      -1.941   6.865 128.273  0.00  0.00    +0.000 OA
BRANCH  12  14
ATOM     14  O   UNL     1      -4.020   7.664 128.311  0.00  0.00    +0.000 OA
ATOM     15  H   UNL     1      -3.932   8.364 127.648  0.00  0.00    +0.000 HD
ENDBRANCH  12  14
ENDBRANCH   7  12
BRANCH   6  16
ATOM     16  O   UNL     1      -5.573   5.855 129.564  0.00  0.00    +0.000 OA
BRANCH  16  18
ATOM     17  C   UNL     1      -6.813   6.448 131.532  0.00  0.00    +0.000 C 
ATOM     18  C   UNL     1      -6.590   5.392 130.463  0.00  0.00    +0.000 C 
ENDBRANCH  16  18
ENDBRANCH   6  16
ENDBRANCH   5  10
ENDBRANCH   1   5
BRANCH   3  19
ATOM     19  C   UNL     1      -7.747  -0.687 126.271  0.00  0.00    +0.000 C 
BRANCH  19  20
ATOM     20  C   UNL     1      -8.518  -0.063 125.122  0.00  0.00    +0.000 A 
ATOM     21  C   UNL     1      -9.310   1.085 125.368  0.00  0.00    +0.000 A 
ATOM     22  C   UNL     1     -10.150   1.607 124.396  0.00  0.00    +0.000 A 
ATOM     23  C   UNL     1     -10.109   1.073 123.119  0.00  0.00    +0.000 A 
ATOM     24  C   UNL     1      -9.268  -0.012 122.838  0.00  0.00    +0.000 A 
ATOM     25  C   UNL     1      -8.473  -0.619 123.829  0.00  0.00    +0.000 A 
BRANCH  25  26
ATOM     26  N   UNL     1      -7.718  -1.728 123.514  0.00  0.00    +0.000 N 
ATOM     27  C   UNL     1      -8.262  -3.078 123.589  0.00  0.00    +0.000 C 
ATOM     28  C   UNL     1      -7.340  -3.906 124.485  0.00  0.00    +0.000 C 
ATOM     29  C   UNL     1      -5.881  -3.841 124.013  0.00  0.00    +0.000 C 
ATOM     30  C   UNL     1      -5.413  -2.401 123.822  0.00  0.00    +0.000 C 
ATOM     31  C   UNL     1      -6.378  -1.632 122.940  0.00  0.00    +0.000 C 
ENDBRANCH  25  26
ENDBRANCH  19  20
BRANCH  19  32
ATOM     32  C   UNL     1      -8.665  -1.717 127.021  0.00  0.00    +0.000 C 
BRANCH  32  33
ATOM     33  C   UNL     1      -7.934  -2.725 127.909  0.00  0.00    +0.000 C 
ATOM     34  C   UNL     1      -7.833  -2.186 129.319  0.00  0.00    +0.000 C 
ATOM     35  C   UNL     1      -8.693  -4.020 128.129  0.00  0.00    +0.000 C 
ENDBRANCH  32  33
ENDBRANCH  19  32
ENDBRANCH   3  19
TORSDOF 11
ENDMDL
MODEL 2
REMARK VINA RESULT:      -7.7      3.429      9.085
REMARK  Name = Repaglinide
REMARK  14 active torsions:
REMARK  status: ('A' for Active; 'I' for Inactive)
REMARK    1  A    between atoms: C_1  and  C_2
REMARK    2  A    between atoms: C_2  and  O_3
REMARK    3  A    between atoms: O_3  and  C_4
REMARK    4  A    between atoms: C_5  and  C_31
REMARK    5  A    between atoms: C_8  and  C_9
REMARK    6  A    between atoms: C_9  and  C_10
REMARK    7  A    between atoms: N_12  and  C_13
REMARK    8  A    between atoms: C_13  and  C_14
REMARK    9  A    between atoms: C_13  and  C_18
REMARK   10  A    between atoms: C_14  and  C_15
REMARK   11  A    between atoms: C_15  and  C_16
REMARK   12  A    between atoms: C_15  and  C_17
REMARK   13  A    between atoms: C_23  and  N_24
REMARK   14  A    between atoms: C_31  and  O_32
REMARK                            x       y       z     vdW  Elec       q    Type
REMARK                         _______ _______ _______ _____ _____    ______ ____
ROOT
ATOM      1  C   UNL     1      -7.784   3.821 126.344  0.00  0.00    +0.000 C 
ATOM      2  O   UNL     1      -8.641   4.669 126.094  0.00  0.00    +0.000 OA
ATOM      3  N   UNL     1      -7.474   3.478 127.662  0.00  0.00    +0.000 N 
ATOM      4  H   UNL     1      -6.583   3.063 127.893  0.00  0.00    +0.000 HD
ENDROOT
BRANCH   1   5
ATOM      5  C   UNL     1      -7.170   2.890 125.258  0.00  0.00    +0.000 C 
BRANCH   5  10
ATOM      6  C   UNL     1      -7.904  -0.737 124.030  0.00  0.00    +0.000 A 
ATOM      7  C   UNL     1      -8.888  -1.158 124.932  0.00  0.00    +0.000 A 
ATOM      8  C   UNL     1      -9.394  -0.208 125.847  0.00  0.00    +0.000 A 
ATOM      9  C   UNL     1      -8.837   1.084 125.959  0.00  0.00    +0.000 A 
ATOM     10  C   UNL     1      -7.774   1.476 125.144  0.00  0.00    +0.000 A 
ATOM     11  C   UNL     1      -7.361   0.546 124.176  0.00  0.00    +0.000 A 
BRANCH   7  12
ATOM     12  C   UNL     1      -9.258  -2.613 124.973  0.00  0.00    +0.000 C 
ATOM     13  O   UNL     1      -9.100  -3.335 125.958  0.00  0.00    +0.000 OA
BRANCH  12  14
ATOM     14  O   UNL     1      -9.880  -3.108 123.884  0.00  0.00    +0.000 OA
ATOM     15  H   UNL     1     -10.770  -3.474 123.992  0.00  0.00    +0.000 HD
ENDBRANCH  12  14
ENDBRANCH   7  12
BRANCH   6  16
ATOM     16  O   UNL     1      -7.571  -1.515 122.948  0.00  0.00    +0.000 OA
BRANCH  16  18
ATOM     17  C   UNL     1      -5.751  -2.859 123.750  0.00  0.00    +0.000 C 
ATOM     18  C   UNL     1      -6.178  -1.793 122.755  0.00  0.00    +0.000 C 
ENDBRANCH  16  18
ENDBRANCH   6  16
ENDBRANCH   5  10
ENDBRANCH   1   5
BRANCH   3  19
ATOM     19  C   UNL     1      -8.384   3.834 128.753  0.00  0.00    +0.000 C 
BRANCH  19  20
ATOM     20  C   UNL     1      -7.754   4.853 129.685  0.00  0.00    +0.000 A 
ATOM     21  C   UNL     1      -6.374   4.749 129.984  0.00  0.00    +0.000 A 
ATOM     22  C   UNL     1      -5.778   5.557 130.941  0.00  0.00    +0.000 A 
ATOM     23  C   UNL     1      -6.521   6.574 131.515  0.00  0.00    +0.000 A 
ATOM     24  C   UNL     1      -7.868   6.742 131.167  0.00  0.00    +0.000 A 
ATOM     25  C   UNL     1      -8.521   5.880 130.267  0.00  0.00    +0.000 A 
BRANCH  25  26
ATOM     26  N   UNL     1      -9.866   6.048 130.014  0.00  0.00    +0.000 N 
ATOM     27  C   UNL     1     -10.347   6.782 128.851  0.00  0.00    +0.000 C 
ATOM     28  C   UNL     1     -11.293   7.877 129.345  0.00  0.00    +0.000 C 
ATOM     29  C   UNL     1     -12.407   7.306 130.232  0.00  0.00    +0.000 C 
ATOM     30  C   UNL     1     -11.846   6.434 131.352  0.00  0.00    +0.000 C 
ATOM     31  C   UNL     1     -10.904   5.383 130.798  0.00  0.00    +0.000 C 
ENDBRANCH  25  26
ENDBRANCH  19  20
BRANCH  19  32
ATOM     32  C   UNL     1      -9.006   2.665 129.597  0.00  0.00    +0.000 C 
BRANCH  32  33
ATOM     33  C   UNL     1      -8.003   1.672 130.186  0.00  0.00    +0.000 C 
ATOM     34  C   UNL     1      -8.523   1.138 131.502  0.00  0.00    +0.000 C 
ATOM     35  C   UNL     1      -7.847   0.398 129.377  0.00  0.00    +0.000 C 
ENDBRANCH  32  33
ENDBRANCH  19  32
ENDBRANCH   3  19
TORSDOF 11
ENDMDL
MODEL 3
REMARK VINA RESULT:      -7.6      3.563      6.112
REMARK  Name = Repaglinide
REMARK  14 active torsions:
REMARK  status: ('A' for Active; 'I' for Inactive)
REMARK    1  A    between atoms: C_1  and  C_2
REMARK    2  A    between atoms: C_2  and  O_3
REMARK    3  A    between atoms: O_3  and  C_4
REMARK    4  A    between atoms: C_5  and  C_31
REMARK    5  A    between atoms: C_8  and  C_9
REMARK    6  A    between atoms: C_9  and  C_10
REMARK    7  A    between atoms: N_12  and  C_13
REMARK    8  A    between atoms: C_13  and  C_14
REMARK    9  A    between atoms: C_13  and  C_18
REMARK   10  A    between atoms: C_14  and  C_15
REMARK   11  A    between atoms: C_15  and  C_16
REMARK   12  A    between atoms: C_15  and  C_17
REMARK   13  A    between atoms: C_23  and  N_24
REMARK   14  A    between atoms: C_31  and  O_32
REMARK                            x       y       z     vdW  Elec       q    Type
REMARK                         _______ _______ _______ _____ _____    ______ ____
ROOT
ATOM      1  C   UNL     1      -8.247  -2.921 127.304  0.00  0.00    +0.000 C 
ATOM      2  O   UNL     1      -9.128  -2.652 126.488  0.00  0.00    +0.000 OA
ATOM      3  N   UNL     1      -6.950  -2.427 127.152  0.00  0.00    +0.000 N 
ATOM      4  H   UNL     1      -6.165  -2.889 127.590  0.00  0.00    +0.000 HD
ENDROOT
BRANCH   1   5
ATOM      5  C   UNL     1      -8.539  -3.598 128.675  0.00  0.00    +0.000 C 
BRANCH   5  10
ATOM      6  C   UNL     1      -7.522  -1.214 131.587  0.00  0.00    +0.000 A 
ATOM      7  C   UNL     1      -6.467  -1.913 132.184  0.00  0.00    +0.000 A 
ATOM      8  C   UNL     1      -6.014  -3.091 131.549  0.00  0.00    +0.000 A 
ATOM      9  C   UNL     1      -6.684  -3.636 130.433  0.00  0.00    +0.000 A 
ATOM     10  C   UNL     1      -7.812  -3.009 129.901  0.00  0.00    +0.000 A 
ATOM     11  C   UNL     1      -8.175  -1.787 130.490  0.00  0.00    +0.000 A 
BRANCH   7  12
ATOM     12  C   UNL     1      -5.962  -1.458 133.523  0.00  0.00    +0.000 C 
ATOM     13  O   UNL     1      -4.772  -1.280 133.785  0.00  0.00    +0.000 OA
BRANCH  12  14
ATOM     14  O   UNL     1      -6.895  -1.147 134.447  0.00  0.00    +0.000 OA
ATOM     15  H   UNL     1      -6.758  -1.449 135.356  0.00  0.00    +0.000 HD
ENDBRANCH  12  14
ENDBRANCH   7  12
BRANCH   6  16
ATOM     16  O   UNL     1      -7.826   0.066 131.988  0.00  0.00    +0.000 OA
BRANCH  16  18
ATOM     17  C   UNL     1      -9.298   1.940 132.268  0.00  0.00    +0.000 C 
ATOM     18  C   UNL     1      -9.169   0.513 131.761  0.00  0.00    +0.000 C 
ENDBRANCH  16  18
ENDBRANCH   6  16
ENDBRANCH   5  10
ENDBRANCH   1   5
BRANCH   3  19
ATOM     19  C   UNL     1      -6.686  -1.305 126.249  0.00  0.00    +0.000 C 
BRANCH  19  20
ATOM     20  C   UNL     1      -6.287  -1.792 124.868  0.00  0.00    +0.000 A 
ATOM     21  C   UNL     1      -5.415  -2.902 124.756  0.00  0.00    +0.000 A 
ATOM     22  C   UNL     1      -4.899  -3.298 123.531  0.00  0.00    +0.000 A 
ATOM     23  C   UNL     1      -5.356  -2.676 122.381  0.00  0.00    +0.000 A 
ATOM     24  C   UNL     1      -6.284  -1.629 122.469  0.00  0.00    +0.000 A 
ATOM     25  C   UNL     1      -6.754  -1.148 123.705  0.00  0.00    +0.000 A 
BRANCH  25  26
ATOM     26  N   UNL     1      -7.611  -0.070 123.737  0.00  0.00    +0.000 N 
ATOM     27  C   UNL     1      -7.153   1.288 123.469  0.00  0.00    +0.000 C 
ATOM     28  C   UNL     1      -7.561   2.163 124.654  0.00  0.00    +0.000 C 
ATOM     29  C   UNL     1      -9.062   2.054 124.950  0.00  0.00    +0.000 C 
ATOM     30  C   UNL     1      -9.506   0.599 125.085  0.00  0.00    +0.000 C 
ATOM     31  C   UNL     1      -9.057  -0.216 123.889  0.00  0.00    +0.000 C 
ENDBRANCH  25  26
ENDBRANCH  19  20
BRANCH  19  32
ATOM     32  C   UNL     1      -5.676  -0.202 126.727  0.00  0.00    +0.000 C 
BRANCH  32  33
ATOM     33  C   UNL     1      -5.898   0.322 128.147  0.00  0.00    +0.000 C 
ATOM     34  C   UNL     1      -4.915   1.432 128.442  0.00  0.00    +0.000 C 
ATOM     35  C   UNL     1      -7.227   1.029 128.344  0.00  0.00    +0.000 C 
ENDBRANCH  32  33
ENDBRANCH  19  32
ENDBRANCH   3  19
TORSDOF 11
ENDMDL
MODEL 4
REMARK VINA RESULT:      -7.5      2.581      3.522
REMARK  Name = Repaglinide
REMARK  14 active torsions:
REMARK  status: ('A' for Active; 'I' for Inactive)
REMARK    1  A    between atoms: C_1  and  C_2
REMARK    2  A    between atoms: C_2  and  O_3
REMARK    3  A    between atoms: O_3  and  C_4
REMARK    4  A    between atoms: C_5  and  C_31
REMARK    5  A    between atoms: C_8  and  C_9
REMARK    6  A    between atoms: C_9  and  C_10
REMARK    7  A    between atoms: N_12  and  C_13
REMARK    8  A    between atoms: C_13  and  C_14
REMARK    9  A    between atoms: C_13  and  C_18
REMARK   10  A    between atoms: C_14  and  C_15
REMARK   11  A    between atoms: C_15  and  C_16
REMARK   12  A    between atoms: C_15  and  C_17
REMARK   13  A    between atoms: C_23  and  N_24
REMARK   14  A    between atoms: C_31  and  O_32
REMARK                            x       y       z     vdW  Elec       q    Type
REMARK                         _______ _______ _______ _____ _____    ______ ____
ROOT
ATOM      1  C   UNL     1      -6.322   1.244 127.143  0.00  0.00    +0.000 C 
ATOM      2  O   UNL     1      -5.429   0.903 126.367  0.00  0.00    +0.000 OA
ATOM      3  N   UNL     1      -7.634   0.800 126.969  0.00  0.00    +0.000 N 
ATOM      4  H   UNL     1      -8.411   1.313 127.362  0.00  0.00    +0.000 HD
ENDROOT
BRANCH   1   5
ATOM      5  C   UNL     1      -6.041   1.963 128.494  0.00  0.00    +0.000 C 
BRANCH   5  10
ATOM      6  C   UNL     1      -9.018   3.301 130.628  0.00  0.00    +0.000 A 
ATOM      7  C   UNL     1      -9.251   4.555 130.053  0.00  0.00    +0.000 A 
ATOM      8  C   UNL     1      -8.520   4.895 128.891  0.00  0.00    +0.000 A 
ATOM      9  C   UNL     1      -7.486   4.070 128.399  0.00  0.00    +0.000 A 
ATOM     10  C   UNL     1      -7.165   2.870 129.036  0.00  0.00    +0.000 A 
ATOM     11  C   UNL     1      -7.975   2.513 130.126  0.00  0.00    +0.000 A 
BRANCH   7  12
ATOM     12  C   UNL     1     -10.154   5.522 130.763  0.00  0.00    +0.000 C 
ATOM     13  O   UNL     1      -9.862   6.696 130.992  0.00  0.00    +0.000 OA
BRANCH  12  14
ATOM     14  O   UNL     1     -11.388   5.075 131.077  0.00  0.00    +0.000 OA
ATOM     15  H   UNL     1     -12.046   5.014 130.371  0.00  0.00    +0.000 HD
ENDBRANCH  12  14
ENDBRANCH   7  12
BRANCH   6  16
ATOM     16  O   UNL     1      -9.875   2.799 131.577  0.00  0.00    +0.000 OA
BRANCH  16  18
ATOM     17  C   UNL     1      -9.151   3.591 133.724  0.00  0.00    +0.000 C 
ATOM     18  C   UNL     1      -9.293   2.380 132.818  0.00  0.00    +0.000 C 
ENDBRANCH  16  18
ENDBRANCH   6  16
ENDBRANCH   5  10
ENDBRANCH   1   5
BRANCH   3  19
ATOM     19  C   UNL     1      -7.920  -0.346 126.103  0.00  0.00    +0.000 C 
BRANCH  19  20
ATOM     20  C   UNL     1      -8.753   0.066 124.902  0.00  0.00    +0.000 A 
ATOM     21  C   UNL     1      -9.666   1.140 125.035  0.00  0.00    +0.000 A 
ATOM     22  C   UNL     1     -10.556   1.463 124.022  0.00  0.00    +0.000 A 
ATOM     23  C   UNL     1     -10.455   0.806 122.808  0.00  0.00    +0.000 A 
ATOM     24  C   UNL     1      -9.499  -0.205 122.633  0.00  0.00    +0.000 A 
ATOM     25  C   UNL     1      -8.644  -0.614 123.674  0.00  0.00    +0.000 A 
BRANCH  25  26
ATOM     26  N   UNL     1      -7.772  -1.661 123.469  0.00  0.00    +0.000 N 
ATOM     27  C   UNL     1      -8.221  -3.047 123.454  0.00  0.00    +0.000 C 
ATOM     28  C   UNL     1      -7.385  -3.822 124.473  0.00  0.00    +0.000 C 
ATOM     29  C   UNL     1      -5.881  -3.645 124.225  0.00  0.00    +0.000 C 
ATOM     30  C   UNL     1      -5.496  -2.172 124.114  0.00  0.00    +0.000 C 
ATOM     31  C   UNL     1      -6.372  -1.460 123.102  0.00  0.00    +0.000 C 
ENDBRANCH  25  26
ENDBRANCH  19  20
BRANCH  19  32
ATOM     32  C   UNL     1      -8.549  -1.623 126.764  0.00  0.00    +0.000 C 
BRANCH  32  33
ATOM     33  C   UNL     1      -7.833  -2.137 128.014  0.00  0.00    +0.000 C 
ATOM     34  C   UNL     1      -8.371  -3.500 128.388  0.00  0.00    +0.000 C 
ATOM     35  C   UNL     1      -6.360  -2.435 127.805  0.00  0.00    +0.000 C 
ENDBRANCH  32  33
ENDBRANCH  19  32
ENDBRANCH   3  19
TORSDOF 11
ENDMDL
MODEL 5
REMARK VINA RESULT:      -7.5      2.864      4.274
REMARK  Name = Repaglinide
REMARK  14 active torsions:
REMARK  status: ('A' for Active; 'I' for Inactive)
REMARK    1  A    between atoms: C_1  and  C_2
REMARK    2  A    between atoms: C_2  and  O_3
REMARK    3  A    between atoms: O_3  and  C_4
REMARK    4  A    between atoms: C_5  and  C_31
REMARK    5  A    between atoms: C_8  and  C_9
REMARK    6  A    between atoms: C_9  and  C_10
REMARK    7  A    between atoms: N_12  and  C_13
REMARK    8  A    between atoms: C_13  and  C_14
REMARK    9  A    between atoms: C_13  and  C_18
REMARK   10  A    between atoms: C_14  and  C_15
REMARK   11  A    between atoms: C_15  and  C_16
REMARK   12  A    between atoms: C_15  and  C_17
REMARK   13  A    between atoms: C_23  and  N_24
REMARK   14  A    between atoms: C_31  and  O_32
REMARK                            x       y       z     vdW  Elec       q    Type
REMARK                         _______ _______ _______ _____ _____    ______ ____
ROOT
ATOM      1  C   UNL     1      -4.061   2.620 126.428  0.00  0.00    +0.000 C 
ATOM      2  O   UNL     1      -4.494   1.474 126.307  0.00  0.00    +0.000 OA
ATOM      3  N   UNL     1      -4.617   3.680 125.710  0.00  0.00    +0.000 N 
ATOM      4  H   UNL     1      -4.088   4.522 125.535  0.00  0.00    +0.000 HD
ENDROOT
BRANCH   1   5
ATOM      5  C   UNL     1      -3.060   3.034 127.547  0.00  0.00    +0.000 C 
BRANCH   5  10
ATOM      6  C   UNL     1      -4.599   6.009 129.542  0.00  0.00    +0.000 A 
ATOM      7  C   UNL     1      -3.651   7.019 129.341  0.00  0.00    +0.000 A 
ATOM      8  C   UNL     1      -2.588   6.757 128.448  0.00  0.00    +0.000 A 
ATOM      9  C   UNL     1      -2.392   5.478 127.883  0.00  0.00    +0.000 A 
ATOM     10  C   UNL     1      -3.267   4.429 128.171  0.00  0.00    +0.000 A 
ATOM     11  C   UNL     1      -4.370   4.748 128.979  0.00  0.00    +0.000 A 
BRANCH   7  12
ATOM     12  C   UNL     1      -3.734   8.267 130.172  0.00  0.00    +0.000 C 
ATOM     13  O   UNL     1      -3.316   8.351 131.328  0.00  0.00    +0.000 OA
BRANCH  12  14
ATOM     14  O   UNL     1      -4.216   9.369 129.562  0.00  0.00    +0.000 OA
ATOM     15  H   UNL     1      -4.293  10.183 130.081  0.00  0.00    +0.000 HD
ENDBRANCH  12  14
ENDBRANCH   7  12
BRANCH   6  16
ATOM     16  O   UNL     1      -5.791   6.287 130.168  0.00  0.00    +0.000 OA
BRANCH  16  18
ATOM     17  C   UNL     1      -5.832   6.079 132.558  0.00  0.00    +0.000 C 
ATOM     18  C   UNL     1      -6.179   5.414 131.237  0.00  0.00    +0.000 C 
ENDBRANCH  16  18
ENDBRANCH   6  16
ENDBRANCH   5  10
ENDBRANCH   1   5
BRANCH   3  19
ATOM     19  C   UNL     1      -5.934   3.540 125.084  0.00  0.00    +0.000 C 
BRANCH  19  20
ATOM     20  C   UNL     1      -5.834   3.600 123.571  0.00  0.00    +0.000 A 
ATOM     21  C   UNL     1      -4.918   4.503 122.978  0.00  0.00    +0.000 A 
ATOM     22  C   UNL     1      -4.889   4.710 121.608  0.00  0.00    +0.000 A 
ATOM     23  C   UNL     1      -5.678   3.915 120.794  0.00  0.00    +0.000 A 
ATOM     24  C   UNL     1      -6.530   2.957 121.362  0.00  0.00    +0.000 A 
ATOM     25  C   UNL     1      -6.646   2.791 122.754  0.00  0.00    +0.000 A 
BRANCH  25  26
ATOM     26  N   UNL     1      -7.552   1.883 123.260  0.00  0.00    +0.000 N 
ATOM     27  C   UNL     1      -7.133   0.603 123.817  0.00  0.00    +0.000 C 
ATOM     28  C   UNL     1      -7.903  -0.499 123.091  0.00  0.00    +0.000 C 
ATOM     29  C   UNL     1      -9.418  -0.259 123.139  0.00  0.00    +0.000 C 
ATOM     30  C   UNL     1      -9.782   1.148 122.672  0.00  0.00    +0.000 C 
ATOM     31  C   UNL     1      -8.972   2.190 123.417  0.00  0.00    +0.000 C 
ENDBRANCH  25  26
ENDBRANCH  19  20
BRANCH  19  32
ATOM     32  C   UNL     1      -7.081   4.494 125.572  0.00  0.00    +0.000 C 
BRANCH  32  33
ATOM     33  C   UNL     1      -8.043   3.896 126.599  0.00  0.00    +0.000 C 
ATOM     34  C   UNL     1      -7.696   2.444 126.841  0.00  0.00    +0.000 C 
ATOM     35  C   UNL     1      -7.903   4.481 127.992  0.00  0.00    +0.000 C 
ENDBRANCH  32  33
ENDBRANCH  19  32
ENDBRANCH   3  19
TORSDOF 11
ENDMDL
MODEL 6
REMARK VINA RESULT:      -7.4      3.785      6.631
REMARK  Name = Repaglinide
REMARK  14 active torsions:
REMARK  status: ('A' for Active; 'I' for Inactive)
REMARK    1  A    between atoms: C_1  and  C_2
REMARK    2  A    between atoms: C_2  and  O_3
REMARK    3  A    between atoms: O_3  and  C_4
REMARK    4  A    between atoms: C_5  and  C_31
REMARK    5  A    between atoms: C_8  and  C_9
REMARK    6  A    between atoms: C_9  and  C_10
REMARK    7  A    between atoms: N_12  and  C_13
REMARK    8  A    between atoms: C_13  and  C_14
REMARK    9  A    between atoms: C_13  and  C_18
REMARK   10  A    between atoms: C_14  and  C_15
REMARK   11  A    between atoms: C_15  and  C_16
REMARK   12  A    between atoms: C_15  and  C_17
REMARK   13  A    between atoms: C_23  and  N_24
REMARK   14  A    between atoms: C_31  and  O_32
REMARK                            x       y       z     vdW  Elec       q    Type
REMARK                         _______ _______ _______ _____ _____    ______ ____
ROOT
ATOM      1  C   UNL     1      -8.095  -2.826 127.325  0.00  0.00    +0.000 C 
ATOM      2  O   UNL     1      -8.941  -2.634 126.451  0.00  0.00    +0.000 OA
ATOM      3  N   UNL     1      -6.809  -2.295 127.211  0.00  0.00    +0.000 N 
ATOM      4  H   UNL     1      -6.033  -2.703 127.713  0.00  0.00    +0.000 HD
ENDROOT
BRANCH   1   5
ATOM      5  C   UNL     1      -8.437  -3.434 128.717  0.00  0.00    +0.000 C 
BRANCH   5  10
ATOM      6  C   UNL     1      -5.784  -3.044 131.547  0.00  0.00    +0.000 A 
ATOM      7  C   UNL     1      -6.178  -1.847 132.156  0.00  0.00    +0.000 A 
ATOM      8  C   UNL     1      -7.383  -1.250 131.719  0.00  0.00    +0.000 A 
ATOM      9  C   UNL     1      -8.100  -1.752 130.611  0.00  0.00    +0.000 A 
ATOM     10  C   UNL     1      -7.650  -2.879 129.922  0.00  0.00    +0.000 A 
ATOM     11  C   UNL     1      -6.508  -3.508 130.442  0.00  0.00    +0.000 A 
BRANCH   7  12
ATOM     12  C   UNL     1      -5.248  -1.192 133.136  0.00  0.00    +0.000 C 
ATOM     13  O   UNL     1      -4.731  -0.088 132.961  0.00  0.00    +0.000 OA
BRANCH  12  14
ATOM     14  O   UNL     1      -5.059  -1.832 134.308  0.00  0.00    +0.000 OA
ATOM     15  H   UNL     1      -4.794  -1.308 135.079  0.00  0.00    +0.000 HD
ENDBRANCH  12  14
ENDBRANCH   7  12
BRANCH   6  16
ATOM     16  O   UNL     1      -4.789  -3.813 132.101  0.00  0.00    +0.000 OA
BRANCH  16  18
ATOM     17  C   UNL     1      -5.834  -5.221 133.740  0.00  0.00    +0.000 C 
ATOM     18  C   UNL     1      -5.116  -5.176 132.402  0.00  0.00    +0.000 C 
ENDBRANCH  16  18
ENDBRANCH   6  16
ENDBRANCH   5  10
ENDBRANCH   1   5
BRANCH   3  19
ATOM     19  C   UNL     1      -6.535  -1.217 126.258  0.00  0.00    +0.000 C 
BRANCH  19  20
ATOM     20  C   UNL     1      -6.221  -1.768 124.879  0.00  0.00    +0.000 A 
ATOM     21  C   UNL     1      -5.366  -2.891 124.766  0.00  0.00    +0.000 A 
ATOM     22  C   UNL     1      -4.925  -3.344 123.532  0.00  0.00    +0.000 A 
ATOM     23  C   UNL     1      -5.442  -2.768 122.384  0.00  0.00    +0.000 A 
ATOM     24  C   UNL     1      -6.354  -1.708 122.480  0.00  0.00    +0.000 A 
ATOM     25  C   UNL     1      -6.748  -1.170 123.718  0.00  0.00    +0.000 A 
BRANCH  25  26
ATOM     26  N   UNL     1      -7.593  -0.081 123.752  0.00  0.00    +0.000 N 
ATOM     27  C   UNL     1      -7.122   1.270 123.479  0.00  0.00    +0.000 C 
ATOM     28  C   UNL     1      -7.514   2.152 124.664  0.00  0.00    +0.000 C 
ATOM     29  C   UNL     1      -9.015   2.060 124.968  0.00  0.00    +0.000 C 
ATOM     30  C   UNL     1      -9.475   0.611 125.108  0.00  0.00    +0.000 C 
ATOM     31  C   UNL     1      -9.040  -0.211 123.911  0.00  0.00    +0.000 C 
ENDBRANCH  25  26
ENDBRANCH  19  20
BRANCH  19  32
ATOM     32  C   UNL     1      -5.455  -0.148 126.654  0.00  0.00    +0.000 C 
BRANCH  32  33
ATOM     33  C   UNL     1      -5.820   0.748 127.839  0.00  0.00    +0.000 C 
ATOM     34  C   UNL     1      -7.313   0.700 128.077  0.00  0.00    +0.000 C 
ATOM     35  C   UNL     1      -5.281   0.261 129.171  0.00  0.00    +0.000 C 
ENDBRANCH  32  33
ENDBRANCH  19  32
ENDBRANCH   3  19
TORSDOF 11
ENDMDL
MODEL 7
REMARK VINA RESULT:      -7.3      1.838      3.990
REMARK  Name = Repaglinide
REMARK  14 active torsions:
REMARK  status: ('A' for Active; 'I' for Inactive)
REMARK    1  A    between atoms: C_1  and  C_2
REMARK    2  A    between atoms: C_2  and  O_3
REMARK    3  A    between atoms: O_3  and  C_4
REMARK    4  A    between atoms: C_5  and  C_31
REMARK    5  A    between atoms: C_8  and  C_9
REMARK    6  A    between atoms: C_9  and  C_10
REMARK    7  A    between atoms: N_12  and  C_13
REMARK    8  A    between atoms: C_13  and  C_14
REMARK    9  A    between atoms: C_13  and  C_18
REMARK   10  A    between atoms: C_14  and  C_15
REMARK   11  A    between atoms: C_15  and  C_16
REMARK   12  A    between atoms: C_15  and  C_17
REMARK   13  A    between atoms: C_23  and  N_24
REMARK   14  A    between atoms: C_31  and  O_32
REMARK                            x       y       z     vdW  Elec       q    Type
REMARK                         _______ _______ _______ _____ _____    ______ ____
ROOT
ATOM      1  C   UNL     1      -5.394   0.707 126.499  0.00  0.00    +0.000 C 
ATOM      2  O   UNL     1      -6.581   1.028 126.571  0.00  0.00    +0.000 OA
ATOM      3  N   UNL     1      -5.013  -0.635 126.443  0.00  0.00    +0.000 N 
ATOM      4  H   UNL     1      -4.085  -0.922 126.719  0.00  0.00    +0.000 HD
ENDROOT
BRANCH   1   5
ATOM      5  C   UNL     1      -4.256   1.729 126.207  0.00  0.00    +0.000 C 
BRANCH   5  10
ATOM      6  C   UNL     1      -4.123   3.446 129.705  0.00  0.00    +0.000 A 
ATOM      7  C   UNL     1      -3.205   4.481 129.489  0.00  0.00    +0.000 A 
ATOM      8  C   UNL     1      -2.742   4.687 128.170  0.00  0.00    +0.000 A 
ATOM      9  C   UNL     1      -3.069   3.799 127.122  0.00  0.00    +0.000 A 
ATOM     10  C   UNL     1      -3.889   2.694 127.353  0.00  0.00    +0.000 A 
ATOM     11  C   UNL     1      -4.416   2.575 128.649  0.00  0.00    +0.000 A 
BRANCH   7  12
ATOM     12  C   UNL     1      -2.663   5.227 130.673  0.00  0.00    +0.000 C 
ATOM     13  O   UNL     1      -2.613   6.455 130.748  0.00  0.00    +0.000 OA
BRANCH  12  14
ATOM     14  O   UNL     1      -2.301   4.486 131.740  0.00  0.00    +0.000 OA
ATOM     15  H   UNL     1      -2.780   3.662 131.909  0.00  0.00    +0.000 HD
ENDBRANCH  12  14
ENDBRANCH   7  12
BRANCH   6  16
ATOM     16  O   UNL     1      -4.817   3.366 130.888  0.00  0.00    +0.000 OA
BRANCH  16  18
ATOM     17  C   UNL     1      -7.168   2.929 131.089  0.00  0.00    +0.000 C 
ATOM     18  C   UNL     1      -6.103   3.999 130.928  0.00  0.00    +0.000 C 
ENDBRANCH  16  18
ENDBRANCH   6  16
ENDBRANCH   5  10
ENDBRANCH   1   5
BRANCH   3  19
ATOM     19  C   UNL     1      -5.994  -1.670 126.107  0.00  0.00    +0.000 C 
BRANCH  19  20
ATOM     20  C   UNL     1      -6.691  -2.192 127.351  0.00  0.00    +0.000 A 
ATOM     21  C   UNL     1      -5.931  -2.403 128.527  0.00  0.00    +0.000 A 
ATOM     22  C   UNL     1      -6.479  -3.017 129.643  0.00  0.00    +0.000 A 
ATOM     23  C   UNL     1      -7.834  -3.304 129.650  0.00  0.00    +0.000 A 
ATOM     24  C   UNL     1      -8.618  -3.024 128.522  0.00  0.00    +0.000 A 
ATOM     25  C   UNL     1      -8.068  -2.486 127.344  0.00  0.00    +0.000 A 
BRANCH  25  26
ATOM     26  N   UNL     1      -8.872  -2.297 126.240  0.00  0.00    +0.000 N 
ATOM     27  C   UNL     1      -9.495  -3.413 125.540  0.00  0.00    +0.000 C 
ATOM     28  C   UNL     1      -9.104  -3.319 124.065  0.00  0.00    +0.000 C 
ATOM     29  C   UNL     1      -9.438  -1.941 123.476  0.00  0.00    +0.000 C 
ATOM     30  C   UNL     1      -8.872  -0.810 124.331  0.00  0.00    +0.000 C 
ATOM     31  C   UNL     1      -9.282  -0.972 125.781  0.00  0.00    +0.000 C 
ENDBRANCH  25  26
ENDBRANCH  19  20
BRANCH  19  32
ATOM     32  C   UNL     1      -5.511  -2.879 125.230  0.00  0.00    +0.000 C 
BRANCH  32  33
ATOM     33  C   UNL     1      -4.875  -2.507 123.890  0.00  0.00    +0.000 C 
ATOM     34  C   UNL     1      -4.167  -3.709 123.308  0.00  0.00    +0.000 C 
ATOM     35  C   UNL     1      -5.879  -2.184 122.798  0.00  0.00    +0.000 C 
ENDBRANCH  32  33
ENDBRANCH  19  32
ENDBRANCH   3  19
TORSDOF 11
ENDMDL
MODEL 8
REMARK VINA RESULT:      -7.3      3.606      9.231
REMARK  Name = Repaglinide
REMARK  14 active torsions:
REMARK  status: ('A' for Active; 'I' for Inactive)
REMARK    1  A    between atoms: C_1  and  C_2
REMARK    2  A    between atoms: C_2  and  O_3
REMARK    3  A    between atoms: O_3  and  C_4
REMARK    4  A    between atoms: C_5  and  C_31
REMARK    5  A    between atoms: C_8  and  C_9
REMARK    6  A    between atoms: C_9  and  C_10
REMARK    7  A    between atoms: N_12  and  C_13
REMARK    8  A    between atoms: C_13  and  C_14
REMARK    9  A    between atoms: C_13  and  C_18
REMARK   10  A    between atoms: C_14  and  C_15
REMARK   11  A    between atoms: C_15  and  C_16
REMARK   12  A    between atoms: C_15  and  C_17
REMARK   13  A    between atoms: C_23  and  N_24
REMARK   14  A    between atoms: C_31  and  O_32
REMARK                            x       y       z     vdW  Elec       q    Type
REMARK                         _______ _______ _______ _____ _____    ______ ____
ROOT
ATOM      1  C   UNL     1      -7.344   3.341 128.938  0.00  0.00    +0.000 C 
ATOM      2  O   UNL     1      -7.297   2.561 129.889  0.00  0.00    +0.000 OA
ATOM      3  N   UNL     1      -7.775   4.658 129.108  0.00  0.00    +0.000 N 
ATOM      4  H   UNL     1      -8.136   5.190 128.329  0.00  0.00    +0.000 HD
ENDROOT
BRANCH   1   5
ATOM      5  C   UNL     1      -6.703   3.030 127.553  0.00  0.00    +0.000 C 
BRANCH   5  10
ATOM      6  C   UNL     1      -9.246   0.840 125.569  0.00  0.00    +0.000 A 
ATOM      7  C   UNL     1      -9.443   1.598 124.408  0.00  0.00    +0.000 A 
ATOM      8  C   UNL     1      -8.643   2.749 124.228  0.00  0.00    +0.000 A 
ATOM      9  C   UNL     1      -7.774   3.213 125.240  0.00  0.00    +0.000 A 
ATOM     10  C   UNL     1      -7.659   2.530 126.451  0.00  0.00    +0.000 A 
ATOM     11  C   UNL     1      -8.389   1.335 126.559  0.00  0.00    +0.000 A 
BRANCH   7  12
ATOM     12  C   UNL     1     -10.570   1.232 123.487  0.00  0.00    +0.000 C 
ATOM     13  O   UNL     1     -10.413   0.834 122.332  0.00  0.00    +0.000 OA
BRANCH  12  14
ATOM     14  O   UNL     1     -11.813   1.263 124.011  0.00  0.00    +0.000 OA
ATOM     15  H   UNL     1     -12.330   0.445 124.013  0.00  0.00    +0.000 HD
ENDBRANCH  12  14
ENDBRANCH   7  12
BRANCH   6  16
ATOM     16  O   UNL     1      -9.781  -0.421 125.677  0.00  0.00    +0.000 OA
BRANCH  16  18
ATOM     17  C   UNL     1      -9.116  -2.411 124.511  0.00  0.00    +0.000 C 
ATOM     18  C   UNL     1      -8.856  -1.516 125.711  0.00  0.00    +0.000 C 
ENDBRANCH  16  18
ENDBRANCH   6  16
ENDBRANCH   5  10
ENDBRANCH   1   5
BRANCH   3  19
ATOM     19  C   UNL     1      -7.835   5.251 130.446  0.00  0.00    +0.000 C 
BRANCH  19  20
ATOM     20  C   UNL     1      -9.224   5.782 130.751  0.00  0.00    +0.000 A 
ATOM     21  C   UNL     1      -9.947   6.441 129.727  0.00  0.00    +0.000 A 
ATOM     22  C   UNL     1     -11.152   7.077 129.986  0.00  0.00    +0.000 A 
ATOM     23  C   UNL     1     -11.722   6.946 131.241  0.00  0.00    +0.000 A 
ATOM     24  C   UNL     1     -11.056   6.226 132.243  0.00  0.00    +0.000 A 
ATOM     25  C   UNL     1      -9.790   5.648 132.033  0.00  0.00    +0.000 A 
BRANCH  25  26
ATOM     26  N   UNL     1      -9.149   5.012 133.075  0.00  0.00    +0.000 N 
ATOM     27  C   UNL     1      -8.388   5.747 134.077  0.00  0.00    +0.000 C 
ATOM     28  C   UNL     1      -6.980   5.153 134.126  0.00  0.00    +0.000 C 
ATOM     29  C   UNL     1      -7.012   3.635 134.349  0.00  0.00    +0.000 C 
ATOM     30  C   UNL     1      -7.934   2.937 133.353  0.00  0.00    +0.000 C 
ATOM     31  C   UNL     1      -9.305   3.584 133.342  0.00  0.00    +0.000 C 
ENDBRANCH  25  26
ENDBRANCH  19  20
BRANCH  19  32
ATOM     32  C   UNL     1      -6.765   6.338 130.813  0.00  0.00    +0.000 C 
BRANCH  32  33
ATOM     33  C   UNL     1      -5.327   6.010 130.409  0.00  0.00    +0.000 C 
ATOM     34  C   UNL     1      -4.421   7.171 130.751  0.00  0.00    +0.000 C 
ATOM     35  C   UNL     1      -4.701   4.884 131.212  0.00  0.00    +0.000 C 
ENDBRANCH  32  33
ENDBRANCH  19  32
ENDBRANCH   3  19
TORSDOF 11
ENDMDL
MODEL 9
REMARK VINA RESULT:      -7.3      3.054      4.977
REMARK  Name = Repaglinide
REMARK  14 active torsions:
REMARK  status: ('A' for Active; 'I' for Inactive)
REMARK    1  A    between atoms: C_1  and  C_2
REMARK    2  A    between atoms: C_2  and  O_3
REMARK    3  A    between atoms: O_3  and  C_4
REMARK    4  A    between atoms: C_5  and  C_31
REMARK    5  A    between atoms: C_8  and  C_9
REMARK    6  A    between atoms: C_9  and  C_10
REMARK    7  A    between atoms: N_12  and  C_13
REMARK    8  A    between atoms: C_13  and  C_14
REMARK    9  A    between atoms: C_13  and  C_18
REMARK   10  A    between atoms: C_14  and  C_15
REMARK   11  A    between atoms: C_15  and  C_16
REMARK   12  A    between atoms: C_15  and  C_17
REMARK   13  A    between atoms: C_23  and  N_24
REMARK   14  A    between atoms: C_31  and  O_32
REMARK                            x       y       z     vdW  Elec       q    Type
REMARK                         _______ _______ _______ _____ _____    ______ ____
ROOT
ATOM      1  C   UNL     1      -6.521   0.639 128.929  0.00  0.00    +0.000 C 
ATOM      2  O   UNL     1      -6.687   0.136 130.040  0.00  0.00    +0.000 OA
ATOM      3  N   UNL     1      -5.835  -0.047 127.924  0.00  0.00    +0.000 N 
ATOM      4  H   UNL     1      -5.403   0.451 127.159  0.00  0.00    +0.000 HD
ENDROOT
BRANCH   1   5
ATOM      5  C   UNL     1      -7.256   1.930 128.463  0.00  0.00    +0.000 C 
BRANCH   5  10
ATOM      6  C   UNL     1      -7.804   2.848 124.714  0.00  0.00    +0.000 A 
ATOM      7  C   UNL     1      -6.519   3.233 124.316  0.00  0.00    +0.000 A 
ATOM      8  C   UNL     1      -5.463   3.064 125.239  0.00  0.00    +0.000 A 
ATOM      9  C   UNL     1      -5.700   2.657 126.570  0.00  0.00    +0.000 A 
ATOM     10  C   UNL     1      -6.995   2.383 127.013  0.00  0.00    +0.000 A 
ATOM     11  C   UNL     1      -8.009   2.463 126.044  0.00  0.00    +0.000 A 
BRANCH   7  12
ATOM     12  C   UNL     1      -6.347   3.924 122.993  0.00  0.00    +0.000 C 
ATOM     13  O   UNL     1      -5.409   4.676 122.727  0.00  0.00    +0.000 OA
BRANCH  12  14
ATOM     14  O   UNL     1      -7.237   3.612 122.029  0.00  0.00    +0.000 OA
ATOM     15  H   UNL     1      -7.305   2.687 121.750  0.00  0.00    +0.000 HD
ENDBRANCH  12  14
ENDBRANCH   7  12
BRANCH   6  16
ATOM     16  O   UNL     1      -8.813   2.725 123.789  0.00  0.00    +0.000 OA
BRANCH  16  18
ATOM     17  C   UNL     1     -10.057   1.007 122.667  0.00  0.00    +0.000 C 
ATOM     18  C   UNL     1      -9.760   1.670 124.001  0.00  0.00    +0.000 C 
ENDBRANCH  16  18
ENDBRANCH   6  16
ENDBRANCH   5  10
ENDBRANCH   1   5
BRANCH   3  19
ATOM     19  C   UNL     1      -5.615  -1.491 128.031  0.00  0.00    +0.000 C 
BRANCH  19  20
ATOM     20  C   UNL     1      -6.891  -2.264 127.749  0.00  0.00    +0.000 A 
ATOM     21  C   UNL     1      -7.660  -2.740 128.839  0.00  0.00    +0.000 A 
ATOM     22  C   UNL     1      -8.749  -3.577 128.646  0.00  0.00    +0.000 A 
ATOM     23  C   UNL     1      -9.170  -3.839 127.353  0.00  0.00    +0.000 A 
ATOM     24  C   UNL     1      -8.467  -3.306 126.264  0.00  0.00    +0.000 A 
ATOM     25  C   UNL     1      -7.306  -2.529 126.430  0.00  0.00    +0.000 A 
BRANCH  25  26
ATOM     26  N   UNL     1      -6.614  -2.090 125.322  0.00  0.00    +0.000 N 
ATOM     27  C   UNL     1      -6.970  -0.858 124.628  0.00  0.00    +0.000 C 
ATOM     28  C   UNL     1      -7.190  -1.197 123.154  0.00  0.00    +0.000 C 
ATOM     29  C   UNL     1      -5.983  -1.931 122.554  0.00  0.00    +0.000 C 
ATOM     30  C   UNL     1      -5.574  -3.132 123.401  0.00  0.00    +0.000 C 
ATOM     31  C   UNL     1      -5.389  -2.732 124.852  0.00  0.00    +0.000 C 
ENDBRANCH  25  26
ENDBRANCH  19  20
BRANCH  19  32
ATOM     32  C   UNL     1      -4.951  -2.035 129.345  0.00  0.00    +0.000 C 
BRANCH  32  33
ATOM     33  C   UNL     1      -4.453  -3.480 129.281  0.00  0.00    +0.000 C 
ATOM     34  C   UNL     1      -2.941  -3.501 129.291  0.00  0.00    +0.000 C 
ATOM     35  C   UNL     1      -4.779  -4.301 130.515  0.00  0.00    +0.000 C 
ENDBRANCH  32  33
ENDBRANCH  19  32
ENDBRANCH   3  19
TORSDOF 11
ENDMDL
