MODEL 1
REMARK VINA RESULT:      -8.9      0.000      0.000
REMARK  Name = Rescinnamine
REMARK  17 active torsions:
REMARK  status: ('A' for Active; 'I' for Inactive)
REMARK    1  A    between atoms: C_4  and  O_5
REMARK    2  A    between atoms: O_5  and  C_6
REMARK    3  A    between atoms: C_6  and  C_8
REMARK    4  A    between atoms: C_9  and  C_10
REMARK    5  A    between atoms: C_12  and  O_13
REMARK    6  A    between atoms: O_13  and  C_14
REMARK    7  A    between atoms: C_15  and  O_16
REMARK    8  A    between atoms: O_16  and  C_17
REMARK    9  A    between atoms: C_18  and  O_19
REMARK   10  A    between atoms: O_19  and  C_20
REMARK   11  A    between atoms: C_22  and  O_23
REMARK   12  A    between atoms: O_23  and  C_24
REMARK   13  A    between atoms: C_25  and  C_26
REMARK   14  A    between atoms: C_26  and  O_28
REMARK   15  A    between atoms: O_28  and  C_29
REMARK   16  A    between atoms: C_45  and  O_46
REMARK   17  A    between atoms: O_46  and  C_47
REMARK                            x       y       z     vdW  Elec       q    Type
REMARK                         _______ _______ _______ _____ _____    ______ ____
ROOT
ATOM      1  C   UNL     1      -3.683   5.040 127.802  0.00  0.00    +0.000 C 
ATOM      2  C   UNL     1      -3.872   6.132 128.766  0.00  0.00    +0.000 C 
ATOM      3  C   UNL     1      -4.992   5.738 129.875  0.00  0.00    +0.000 C 
ATOM      4  C   UNL     1      -4.274   6.014 131.117  0.00  0.00    +0.000 C 
ATOM      5  C   UNL     1      -3.492   4.220 130.834  0.00  0.00    +0.000 C 
ATOM      6  C   UNL     1      -2.991   4.026 128.833  0.00  0.00    +0.000 C 
ATOM      7  C   UNL     1      -3.464   2.642 127.626  0.00  0.00    +0.000 C 
ATOM      8  C   UNL     1      -4.976   2.372 127.226  0.00  0.00    +0.000 C 
ATOM      9  N   UNL     1      -5.566   3.577 126.608  0.00  0.00    +0.000 NA
ATOM     10  C   UNL     1      -7.066   3.467 126.570  0.00  0.00    +0.000 C 
ATOM     11  C   UNL     1      -7.205   2.565 125.352  0.00  0.00    +0.000 C 
ATOM     12  C   UNL     1      -6.394   1.306 125.536  0.00  0.00    +0.000 A 
ATOM     13  C   UNL     1      -5.310   1.246 126.379  0.00  0.00    +0.000 A 
ATOM     14  N   UNL     1      -4.854  -0.022 126.486  0.00  0.00    +0.000 N 
ATOM     15  C   UNL     1      -5.452  -0.740 125.491  0.00  0.00    +0.000 A 
ATOM     16  C   UNL     1      -6.398   0.087 124.880  0.00  0.00    +0.000 A 
ATOM     17  C   UNL     1      -7.122  -0.360 123.788  0.00  0.00    +0.000 A 
ATOM     18  C   UNL     1      -6.865  -1.646 123.338  0.00  0.00    +0.000 A 
ATOM     19  C   UNL     1      -5.928  -2.476 123.970  0.00  0.00    +0.000 A 
ATOM     20  C   UNL     1      -5.205  -2.036 125.077  0.00  0.00    +0.000 A 
ATOM     21  C   UNL     1      -5.093   4.861 127.071  0.00  0.00    +0.000 C 
ATOM     22  H   UNL     1      -4.162  -0.375 127.135  0.00  0.00    +0.000 HD
ENDROOT
BRANCH   4  23
ATOM     23  O   UNL     1      -4.185   7.579 130.939  0.00  0.00    +0.000 OA
ATOM     24  C   UNL     1      -3.020   8.264 131.762  0.00  0.00    +0.000 C 
ENDBRANCH   4  23
BRANCH   5  25
ATOM     25  C   UNL     1      -4.687   2.663 131.487  0.00  0.00    +0.000 C 
ATOM     26  O   UNL     1      -5.059   2.405 132.660  0.00  0.00    +0.000 OA
BRANCH  25  27
ATOM     27  O   UNL     1      -4.481   1.136 130.706  0.00  0.00    +0.000 OA
ATOM     28  C   UNL     1      -4.080  -0.404 130.892  0.00  0.00    +0.000 C 
ENDBRANCH  25  27
ENDBRANCH   5  25
BRANCH  19  29
ATOM     29  O   UNL     1      -5.786  -3.721 123.416  0.00  0.00    +0.000 OA
ATOM     30  C   UNL     1      -4.565  -4.391 123.710  0.00  0.00    +0.000 C 
ENDBRANCH  19  29
BRANCH   3  31
ATOM     31  O   UNL     1      -5.324   4.439 130.392  0.00  0.00    +0.000 OA
BRANCH  31  32
ATOM     32  C   UNL     1      -6.700   4.164 130.273  0.00  0.00    +0.000 C 
ATOM     33  O   UNL     1      -6.973   5.210 130.910  0.00  0.00    +0.000 OA
BRANCH  32  34
ATOM     34  C   UNL     1      -7.480   2.413 129.772  0.00  0.00    +0.000 C 
ATOM     35  C   UNL     1      -7.999   1.370 130.491  0.00  0.00    +0.000 C 
BRANCH  35  36
ATOM     36  C   UNL     1      -7.713  -0.081 130.561  0.00  0.00    +0.000 A 
ATOM     37  C   UNL     1      -7.654  -0.704 129.331  0.00  0.00    +0.000 A 
ATOM     38  C   UNL     1      -7.313  -2.047 129.261  0.00  0.00    +0.000 A 
ATOM     39  C   UNL     1      -7.146  -2.809 130.443  0.00  0.00    +0.000 A 
ATOM     40  C   UNL     1      -7.433  -2.240 131.682  0.00  0.00    +0.000 A 
ATOM     41  C   UNL     1      -7.792  -0.904 131.709  0.00  0.00    +0.000 A 
BRANCH  38  42
ATOM     42  O   UNL     1      -7.098  -2.455 127.967  0.00  0.00    +0.000 OA
ATOM     43  C   UNL     1      -8.261  -2.847 127.256  0.00  0.00    +0.000 C 
ENDBRANCH  38  42
BRANCH  39  44
ATOM     44  O   UNL     1      -6.690  -4.082 130.281  0.00  0.00    +0.000 OA
ATOM     45  C   UNL     1      -5.311  -4.347 130.361  0.00  0.00    +0.000 C 
ENDBRANCH  39  44
BRANCH  40  46
ATOM     46  O   UNL     1      -7.292  -2.999 132.809  0.00  0.00    +0.000 OA
ATOM     47  C   UNL     1      -8.223  -2.929 133.874  0.00  0.00    +0.000 C 
ENDBRANCH  40  46
ENDBRANCH  35  36
ENDBRANCH  32  34
ENDBRANCH  31  32
ENDBRANCH   3  31
TORSDOF 11
ENDMDL
MODEL 2
REMARK VINA RESULT:      -8.8      0.775      2.015
REMARK  Name = Rescinnamine
REMARK  17 active torsions:
REMARK  status: ('A' for Active; 'I' for Inactive)
REMARK    1  A    between atoms: C_4  and  O_5
REMARK    2  A    between atoms: O_5  and  C_6
REMARK    3  A    between atoms: C_6  and  C_8
REMARK    4  A    between atoms: C_9  and  C_10
REMARK    5  A    between atoms: C_12  and  O_13
REMARK    6  A    between atoms: O_13  and  C_14
REMARK    7  A    between atoms: C_15  and  O_16
REMARK    8  A    between atoms: O_16  and  C_17
REMARK    9  A    between atoms: C_18  and  O_19
REMARK   10  A    between atoms: O_19  and  C_20
REMARK   11  A    between atoms: C_22  and  O_23
REMARK   12  A    between atoms: O_23  and  C_24
REMARK   13  A    between atoms: C_25  and  C_26
REMARK   14  A    between atoms: C_26  and  O_28
REMARK   15  A    between atoms: O_28  and  C_29
REMARK   16  A    between atoms: C_45  and  O_46
REMARK   17  A    between atoms: O_46  and  C_47
REMARK                            x       y       z     vdW  Elec       q    Type
REMARK                         _______ _______ _______ _____ _____    ______ ____
ROOT
ATOM      1  C   UNL     1      -3.257   5.401 127.867  0.00  0.00    +0.000 C 
ATOM      2  C   UNL     1      -3.381   6.514 128.818  0.00  0.00    +0.000 C 
ATOM      3  C   UNL     1      -4.580   6.238 129.879  0.00  0.00    +0.000 C 
ATOM      4  C   UNL     1      -3.892   6.455 131.150  0.00  0.00    +0.000 C 
ATOM      5  C   UNL     1      -3.275   4.592 130.909  0.00  0.00    +0.000 C 
ATOM      6  C   UNL     1      -2.710   4.334 128.932  0.00  0.00    +0.000 C 
ATOM      7  C   UNL     1      -3.262   2.992 127.711  0.00  0.00    +0.000 C 
ATOM      8  C   UNL     1      -4.774   2.865 127.247  0.00  0.00    +0.000 C 
ATOM      9  N   UNL     1      -5.218   4.115 126.599  0.00  0.00    +0.000 NA
ATOM     10  C   UNL     1      -6.719   4.149 126.497  0.00  0.00    +0.000 C 
ATOM     11  C   UNL     1      -6.892   3.254 125.278  0.00  0.00    +0.000 C 
ATOM     12  C   UNL     1      -6.215   1.925 125.502  0.00  0.00    +0.000 A 
ATOM     13  C   UNL     1      -5.179   1.769 126.391  0.00  0.00    +0.000 A 
ATOM     14  N   UNL     1      -4.851   0.463 126.523  0.00  0.00    +0.000 N 
ATOM     15  C   UNL     1      -5.473  -0.202 125.507  0.00  0.00    +0.000 A 
ATOM     16  C   UNL     1      -6.308   0.706 124.852  0.00  0.00    +0.000 A 
ATOM     17  C   UNL     1      -7.024   0.322 123.731  0.00  0.00    +0.000 A 
ATOM     18  C   UNL     1      -6.873  -0.986 123.298  0.00  0.00    +0.000 A 
ATOM     19  C   UNL     1      -6.048  -1.898 123.974  0.00  0.00    +0.000 A 
ATOM     20  C   UNL     1      -5.334  -1.519 125.110  0.00  0.00    +0.000 A 
ATOM     21  C   UNL     1      -4.645   5.351 127.077  0.00  0.00    +0.000 C 
ATOM     22  H   UNL     1      -4.225   0.051 127.204  0.00  0.00    +0.000 HD
ENDROOT
BRANCH   4  23
ATOM     23  O   UNL     1      -3.646   8.003 130.969  0.00  0.00    +0.000 OA
ATOM     24  C   UNL     1      -2.743   8.655 132.093  0.00  0.00    +0.000 C 
ENDBRANCH   4  23
BRANCH   5  25
ATOM     25  C   UNL     1      -4.641   3.162 131.516  0.00  0.00    +0.000 C 
ATOM     26  O   UNL     1      -5.035   2.906 132.682  0.00  0.00    +0.000 OA
BRANCH  25  27
ATOM     27  O   UNL     1      -4.618   1.651 130.679  0.00  0.00    +0.000 OA
ATOM     28  C   UNL     1      -4.110   0.132 130.700  0.00  0.00    +0.000 C 
ENDBRANCH  25  27
ENDBRANCH   5  25
BRANCH  19  29
ATOM     29  O   UNL     1      -6.003  -3.155 123.432  0.00  0.00    +0.000 OA
ATOM     30  C   UNL     1      -4.886  -3.950 123.814  0.00  0.00    +0.000 C 
ENDBRANCH  19  29
BRANCH   3  31
ATOM     31  O   UNL     1      -5.057   4.982 130.386  0.00  0.00    +0.000 OA
BRANCH  31  32
ATOM     32  C   UNL     1      -6.454   4.862 130.259  0.00  0.00    +0.000 C 
ATOM     33  O   UNL     1      -6.617   5.833 131.037  0.00  0.00    +0.000 OA
BRANCH  32  34
ATOM     34  C   UNL     1      -7.408   3.280 129.541  0.00  0.00    +0.000 C 
ATOM     35  C   UNL     1      -8.022   2.204 130.123  0.00  0.00    +0.000 C 
BRANCH  35  36
ATOM     36  C   UNL     1      -7.881   0.737 129.989  0.00  0.00    +0.000 A 
ATOM     37  C   UNL     1      -7.764   0.070 131.191  0.00  0.00    +0.000 A 
ATOM     38  C   UNL     1      -7.705  -1.317 131.202  0.00  0.00    +0.000 A 
ATOM     39  C   UNL     1      -7.642  -2.042 129.987  0.00  0.00    +0.000 A 
ATOM     40  C   UNL     1      -7.526  -1.362 128.776  0.00  0.00    +0.000 A 
ATOM     41  C   UNL     1      -7.565   0.021 128.810  0.00  0.00    +0.000 A 
BRANCH  38  42
ATOM     42  O   UNL     1      -7.799  -1.826 132.474  0.00  0.00    +0.000 OA
ATOM     43  C   UNL     1      -6.738  -1.472 133.346  0.00  0.00    +0.000 C 
ENDBRANCH  38  42
BRANCH  39  44
ATOM     44  O   UNL     1      -7.716  -3.399 130.090  0.00  0.00    +0.000 OA
ATOM     45  C   UNL     1      -6.536  -4.160 130.168  0.00  0.00    +0.000 C 
ENDBRANCH  39  44
BRANCH  40  46
ATOM     46  O   UNL     1      -7.440  -2.079 127.618  0.00  0.00    +0.000 OA
ATOM     47  C   UNL     1      -8.561  -2.266 126.774  0.00  0.00    +0.000 C 
ENDBRANCH  40  46
ENDBRANCH  35  36
ENDBRANCH  32  34
ENDBRANCH  31  32
ENDBRANCH   3  31
TORSDOF 11
ENDMDL
MODEL 3
REMARK VINA RESULT:      -8.5      2.568      8.165
REMARK  Name = Rescinnamine
REMARK  17 active torsions:
REMARK  status: ('A' for Active; 'I' for Inactive)
REMARK    1  A    between atoms: C_4  and  O_5
REMARK    2  A    between atoms: O_5  and  C_6
REMARK    3  A    between atoms: C_6  and  C_8
REMARK    4  A    between atoms: C_9  and  C_10
REMARK    5  A    between atoms: C_12  and  O_13
REMARK    6  A    between atoms: O_13  and  C_14
REMARK    7  A    between atoms: C_15  and  O_16
REMARK    8  A    between atoms: O_16  and  C_17
REMARK    9  A    between atoms: C_18  and  O_19
REMARK   10  A    between atoms: O_19  and  C_20
REMARK   11  A    between atoms: C_22  and  O_23
REMARK   12  A    between atoms: O_23  and  C_24
REMARK   13  A    between atoms: C_25  and  C_26
REMARK   14  A    between atoms: C_26  and  O_28
REMARK   15  A    between atoms: O_28  and  C_29
REMARK   16  A    between atoms: C_45  and  O_46
REMARK   17  A    between atoms: O_46  and  C_47
REMARK                            x       y       z     vdW  Elec       q    Type
REMARK                         _______ _______ _______ _____ _____    ______ ____
ROOT
ATOM      1  C   UNL     1      -3.511  -2.663 132.646  0.00  0.00    +0.000 C 
ATOM      2  C   UNL     1      -4.180  -3.770 133.343  0.00  0.00    +0.000 C 
ATOM      3  C   UNL     1      -5.791  -3.685 133.152  0.00  0.00    +0.000 C 
ATOM      4  C   UNL     1      -6.094  -5.033 132.676  0.00  0.00    +0.000 C 
ATOM      5  C   UNL     1      -5.550  -4.321 130.914  0.00  0.00    +0.000 C 
ATOM      6  C   UNL     1      -3.840  -3.177 131.164  0.00  0.00    +0.000 C 
ATOM      7  C   UNL     1      -3.515  -1.399 130.590  0.00  0.00    +0.000 C 
ATOM      8  C   UNL     1      -4.358  -0.179 131.153  0.00  0.00    +0.000 C 
ATOM      9  N   UNL     1      -4.216  -0.092 132.620  0.00  0.00    +0.000 NA
ATOM     10  C   UNL     1      -5.281   0.800 133.199  0.00  0.00    +0.000 C 
ATOM     11  C   UNL     1      -4.651   2.151 132.886  0.00  0.00    +0.000 C 
ATOM     12  C   UNL     1      -4.343   2.257 131.414  0.00  0.00    +0.000 A 
ATOM     13  C   UNL     1      -4.149   1.152 130.621  0.00  0.00    +0.000 A 
ATOM     14  N   UNL     1      -4.044   1.506 129.320  0.00  0.00    +0.000 N 
ATOM     15  C   UNL     1      -3.876   2.859 129.294  0.00  0.00    +0.000 A 
ATOM     16  C   UNL     1      -4.039   3.334 130.598  0.00  0.00    +0.000 A 
ATOM     17  C   UNL     1      -3.862   4.676 130.885  0.00  0.00    +0.000 A 
ATOM     18  C   UNL     1      -3.520   5.512 129.833  0.00  0.00    +0.000 A 
ATOM     19  C   UNL     1      -3.378   5.031 128.523  0.00  0.00    +0.000 A 
ATOM     20  C   UNL     1      -3.566   3.682 128.226  0.00  0.00    +0.000 A 
ATOM     21  C   UNL     1      -4.044  -1.329 133.346  0.00  0.00    +0.000 C 
ATOM     22  H   UNL     1      -4.034   0.893 128.514  0.00  0.00    +0.000 HD
ENDROOT
BRANCH   4  23
ATOM     23  O   UNL     1      -5.725  -5.791 134.010  0.00  0.00    +0.000 OA
ATOM     24  C   UNL     1      -6.847  -5.734 135.124  0.00  0.00    +0.000 C 
ENDBRANCH   4  23
BRANCH   5  25
ATOM     25  C   UNL     1      -7.039  -3.282 129.923  0.00  0.00    +0.000 C 
ATOM     26  O   UNL     1      -8.206  -3.661 129.653  0.00  0.00    +0.000 OA
BRANCH  25  27
ATOM     27  O   UNL     1      -6.549  -2.275 128.608  0.00  0.00    +0.000 OA
ATOM     28  C   UNL     1      -5.363  -1.896 127.599  0.00  0.00    +0.000 C 
ENDBRANCH  25  27
ENDBRANCH   5  25
BRANCH  19  29
ATOM     29  O   UNL     1      -3.042   5.975 127.590  0.00  0.00    +0.000 OA
ATOM     30  C   UNL     1      -2.250   7.058 128.066  0.00  0.00    +0.000 C 
ENDBRANCH  19  29
BRANCH   3  31
ATOM     31  O   UNL     1      -6.536  -3.158 132.043  0.00  0.00    +0.000 OA
BRANCH  31  32
ATOM     32  C   UNL     1      -7.460  -2.177 132.451  0.00  0.00    +0.000 C 
ATOM     33  O   UNL     1      -7.723  -2.841 133.482  0.00  0.00    +0.000 OA
BRANCH  32  34
ATOM     34  C   UNL     1      -8.219  -0.764 131.287  0.00  0.00    +0.000 C 
ATOM     35  C   UNL     1      -7.666   0.197 130.484  0.00  0.00    +0.000 C 
BRANCH  35  36
ATOM     36  C   UNL     1      -7.796   1.668 130.394  0.00  0.00    +0.000 A 
ATOM     37  C   UNL     1      -8.543   2.231 131.409  0.00  0.00    +0.000 A 
ATOM     38  C   UNL     1      -8.671   3.611 131.480  0.00  0.00    +0.000 A 
ATOM     39  C   UNL     1      -8.144   4.435 130.455  0.00  0.00    +0.000 A 
ATOM     40  C   UNL     1      -7.593   3.857 129.313  0.00  0.00    +0.000 A 
ATOM     41  C   UNL     1      -7.504   2.477 129.270  0.00  0.00    +0.000 A 
BRANCH  38  42
ATOM     42  O   UNL     1      -9.264   4.013 132.652  0.00  0.00    +0.000 OA
ATOM     43  C   UNL     1      -8.567   3.658 133.834  0.00  0.00    +0.000 C 
ENDBRANCH  38  42
BRANCH  39  44
ATOM     44  O   UNL     1      -8.204   5.779 130.670  0.00  0.00    +0.000 OA
ATOM     45  C   UNL     1      -7.157   6.426 131.351  0.00  0.00    +0.000 C 
ENDBRANCH  39  44
BRANCH  40  46
ATOM     46  O   UNL     1      -7.114   4.667 128.324  0.00  0.00    +0.000 OA
ATOM     47  C   UNL     1      -7.010   4.222 126.984  0.00  0.00    +0.000 C 
ENDBRANCH  40  46
ENDBRANCH  35  36
ENDBRANCH  32  34
ENDBRANCH  31  32
ENDBRANCH   3  31
TORSDOF 11
ENDMDL
MODEL 4
REMARK VINA RESULT:      -8.3      3.090      6.951
REMARK  Name = Rescinnamine
REMARK  17 active torsions:
REMARK  status: ('A' for Active; 'I' for Inactive)
REMARK    1  A    between atoms: C_4  and  O_5
REMARK    2  A    between atoms: O_5  and  C_6
REMARK    3  A    between atoms: C_6  and  C_8
REMARK    4  A    between atoms: C_9  and  C_10
REMARK    5  A    between atoms: C_12  and  O_13
REMARK    6  A    between atoms: O_13  and  C_14
REMARK    7  A    between atoms: C_15  and  O_16
REMARK    8  A    between atoms: O_16  and  C_17
REMARK    9  A    between atoms: C_18  and  O_19
REMARK   10  A    between atoms: O_19  and  C_20
REMARK   11  A    between atoms: C_22  and  O_23
REMARK   12  A    between atoms: O_23  and  C_24
REMARK   13  A    between atoms: C_25  and  C_26
REMARK   14  A    between atoms: C_26  and  O_28
REMARK   15  A    between atoms: O_28  and  C_29
REMARK   16  A    between atoms: C_45  and  O_46
REMARK   17  A    between atoms: O_46  and  C_47
REMARK                            x       y       z     vdW  Elec       q    Type
REMARK                         _______ _______ _______ _____ _____    ______ ____
ROOT
ATOM      1  C   UNL     1      -5.622  -4.308 132.388  0.00  0.00    +0.000 C 
ATOM      2  C   UNL     1      -4.826  -4.121 133.609  0.00  0.00    +0.000 C 
ATOM      3  C   UNL     1      -4.353  -2.574 133.761  0.00  0.00    +0.000 C 
ATOM      4  C   UNL     1      -4.796  -2.273 135.120  0.00  0.00    +0.000 C 
ATOM      5  C   UNL     1      -6.554  -1.963 134.270  0.00  0.00    +0.000 C 
ATOM      6  C   UNL     1      -6.894  -3.472 132.890  0.00  0.00    +0.000 C 
ATOM      7  C   UNL     1      -7.378  -3.314 131.063  0.00  0.00    +0.000 C 
ATOM      8  C   UNL     1      -6.414  -2.629 130.007  0.00  0.00    +0.000 C 
ATOM      9  N   UNL     1      -5.122  -3.342 129.954  0.00  0.00    +0.000 NA
ATOM     10  C   UNL     1      -4.086  -2.502 129.255  0.00  0.00    +0.000 C 
ATOM     11  C   UNL     1      -4.493  -2.779 127.814  0.00  0.00    +0.000 C 
ATOM     12  C   UNL     1      -5.950  -2.448 127.607  0.00  0.00    +0.000 A 
ATOM     13  C   UNL     1      -6.856  -2.437 128.641  0.00  0.00    +0.000 A 
ATOM     14  N   UNL     1      -8.052  -1.961 128.227  0.00  0.00    +0.000 N 
ATOM     15  C   UNL     1      -8.014  -1.936 126.864  0.00  0.00    +0.000 A 
ATOM     16  C   UNL     1      -6.713  -2.258 126.468  0.00  0.00    +0.000 A 
ATOM     17  C   UNL     1      -6.393  -2.370 125.126  0.00  0.00    +0.000 A 
ATOM     18  C   UNL     1      -7.410  -2.150 124.209  0.00  0.00    +0.000 A 
ATOM     19  C   UNL     1      -8.708  -1.806 124.614  0.00  0.00    +0.000 A 
ATOM     20  C   UNL     1      -9.033  -1.681 125.964  0.00  0.00    +0.000 A 
ATOM     21  C   UNL     1      -4.645  -3.944 131.177  0.00  0.00    +0.000 C 
ATOM     22  H   UNL     1      -8.851  -1.719 128.800  0.00  0.00    +0.000 HD
ENDROOT
BRANCH   4  23
ATOM     23  O   UNL     1      -3.797  -3.242 135.863  0.00  0.00    +0.000 OA
ATOM     24  C   UNL     1      -2.482  -2.541 136.395  0.00  0.00    +0.000 C 
ENDBRANCH   4  23
BRANCH   5  25
ATOM     25  C   UNL     1      -6.770  -0.084 133.431  0.00  0.00    +0.000 C 
ATOM     26  O   UNL     1      -6.661   1.036 133.991  0.00  0.00    +0.000 OA
BRANCH  25  27
ATOM     27  O   UNL     1      -7.997   0.101 132.229  0.00  0.00    +0.000 OA
ATOM     28  C   UNL     1      -9.301   0.917 131.782  0.00  0.00    +0.000 C 
ENDBRANCH  25  27
ENDBRANCH   5  25
BRANCH  19  29
ATOM     29  O   UNL     1      -9.604  -1.615 123.596  0.00  0.00    +0.000 OA
ATOM     30  C   UNL     1      -9.475  -0.388 122.885  0.00  0.00    +0.000 C 
ENDBRANCH  19  29
BRANCH   3  31
ATOM     31  O   UNL     1      -5.021  -1.384 133.312  0.00  0.00    +0.000 OA
BRANCH  31  32
ATOM     32  C   UNL     1      -4.246  -0.669 132.380  0.00  0.00    +0.000 C 
ATOM     33  O   UNL     1      -3.194  -1.093 132.916  0.00  0.00    +0.000 OA
BRANCH  32  34
ATOM     34  C   UNL     1      -4.908   0.800 131.226  0.00  0.00    +0.000 C 
ATOM     35  C   UNL     1      -5.571   0.835 130.029  0.00  0.00    +0.000 C 
BRANCH  35  36
ATOM     36  C   UNL     1      -5.311   1.480 128.722  0.00  0.00    +0.000 A 
ATOM     37  C   UNL     1      -6.214   1.140 127.736  0.00  0.00    +0.000 A 
ATOM     38  C   UNL     1      -6.124   1.741 126.488  0.00  0.00    +0.000 A 
ATOM     39  C   UNL     1      -5.045   2.605 126.184  0.00  0.00    +0.000 A 
ATOM     40  C   UNL     1      -4.006   2.768 127.099  0.00  0.00    +0.000 A 
ATOM     41  C   UNL     1      -4.122   2.134 128.323  0.00  0.00    +0.000 A 
BRANCH  38  42
ATOM     42  O   UNL     1      -7.211   1.451 125.699  0.00  0.00    +0.000 OA
ATOM     43  C   UNL     1      -8.458   1.905 126.197  0.00  0.00    +0.000 C 
ENDBRANCH  38  42
BRANCH  39  44
ATOM     44  O   UNL     1      -5.106   3.247 124.984  0.00  0.00    +0.000 OA
ATOM     45  C   UNL     1      -5.772   4.482 124.884  0.00  0.00    +0.000 C 
ENDBRANCH  39  44
BRANCH  40  46
ATOM     46  O   UNL     1      -2.960   3.585 126.776  0.00  0.00    +0.000 OA
ATOM     47  C   UNL     1      -1.632   3.099 126.707  0.00  0.00    +0.000 C 
ENDBRANCH  40  46
ENDBRANCH  35  36
ENDBRANCH  32  34
ENDBRANCH  31  32
ENDBRANCH   3  31
TORSDOF 11
ENDMDL
MODEL 5
REMARK VINA RESULT:      -8.3      2.846      7.140
REMARK  Name = Rescinnamine
REMARK  17 active torsions:
REMARK  status: ('A' for Active; 'I' for Inactive)
REMARK    1  A    between atoms: C_4  and  O_5
REMARK    2  A    between atoms: O_5  and  C_6
REMARK    3  A    between atoms: C_6  and  C_8
REMARK    4  A    between atoms: C_9  and  C_10
REMARK    5  A    between atoms: C_12  and  O_13
REMARK    6  A    between atoms: O_13  and  C_14
REMARK    7  A    between atoms: C_15  and  O_16
REMARK    8  A    between atoms: O_16  and  C_17
REMARK    9  A    between atoms: C_18  and  O_19
REMARK   10  A    between atoms: O_19  and  C_20
REMARK   11  A    between atoms: C_22  and  O_23
REMARK   12  A    between atoms: O_23  and  C_24
REMARK   13  A    between atoms: C_25  and  C_26
REMARK   14  A    between atoms: C_26  and  O_28
REMARK   15  A    between atoms: O_28  and  C_29
REMARK   16  A    between atoms: C_45  and  O_46
REMARK   17  A    between atoms: O_46  and  C_47
REMARK                            x       y       z     vdW  Elec       q    Type
REMARK                         _______ _______ _______ _____ _____    ______ ____
ROOT
ATOM      1  C   UNL     1      -6.685  -0.338 124.241  0.00  0.00    +0.000 C 
ATOM      2  C   UNL     1      -7.591   0.507 123.451  0.00  0.00    +0.000 C 
ATOM      3  C   UNL     1      -8.477   1.467 124.417  0.00  0.00    +0.000 C 
ATOM      4  C   UNL     1      -8.236   2.777 123.817  0.00  0.00    +0.000 C 
ATOM      5  C   UNL     1      -6.572   2.741 124.883  0.00  0.00    +0.000 C 
ATOM      6  C   UNL     1      -5.731   0.853 124.730  0.00  0.00    +0.000 C 
ATOM      7  C   UNL     1      -5.173  -0.308 126.122  0.00  0.00    +0.000 C 
ATOM      8  C   UNL     1      -6.206  -0.904 127.168  0.00  0.00    +0.000 C 
ATOM      9  N   UNL     1      -7.248  -1.686 126.471  0.00  0.00    +0.000 NA
ATOM     10  C   UNL     1      -8.417  -1.934 127.385  0.00  0.00    +0.000 C 
ATOM     11  C   UNL     1      -7.844  -3.092 128.191  0.00  0.00    +0.000 C 
ATOM     12  C   UNL     1      -6.522  -2.702 128.803  0.00  0.00    +0.000 A 
ATOM     13  C   UNL     1      -5.733  -1.708 128.276  0.00  0.00    +0.000 A 
ATOM     14  N   UNL     1      -4.684  -1.444 129.088  0.00  0.00    +0.000 N 
ATOM     15  C   UNL     1      -4.626  -2.461 129.996  0.00  0.00    +0.000 A 
ATOM     16  C   UNL     1      -5.756  -3.262 129.811  0.00  0.00    +0.000 A 
ATOM     17  C   UNL     1      -5.933  -4.413 130.559  0.00  0.00    +0.000 A 
ATOM     18  C   UNL     1      -4.949  -4.727 131.484  0.00  0.00    +0.000 A 
ATOM     19  C   UNL     1      -3.828  -3.907 131.678  0.00  0.00    +0.000 A 
ATOM     20  C   UNL     1      -3.651  -2.741 130.936  0.00  0.00    +0.000 A 
ATOM     21  C   UNL     1      -7.631  -1.252 125.149  0.00  0.00    +0.000 C 
ATOM     22  H   UNL     1      -4.027  -0.677 129.017  0.00  0.00    +0.000 HD
ENDROOT
BRANCH   4  23
ATOM     23  O   UNL     1      -8.986   2.502 122.456  0.00  0.00    +0.000 OA
ATOM     24  C   UNL     1      -8.614   3.507 121.292  0.00  0.00    +0.000 C 
ENDBRANCH   4  23
BRANCH   5  25
ATOM     25  C   UNL     1      -6.814   3.323 126.853  0.00  0.00    +0.000 C 
ATOM     26  O   UNL     1      -7.161   4.446 127.297  0.00  0.00    +0.000 OA
BRANCH  25  27
ATOM     27  O   UNL     1      -5.696   2.680 128.003  0.00  0.00    +0.000 OA
ATOM     28  C   UNL     1      -4.172   2.653 128.496  0.00  0.00    +0.000 C 
ENDBRANCH  25  27
ENDBRANCH   5  25
BRANCH  19  29
ATOM     29  O   UNL     1      -2.945  -4.344 132.630  0.00  0.00    +0.000 OA
ATOM     30  C   UNL     1      -3.479  -5.234 133.603  0.00  0.00    +0.000 C 
ENDBRANCH  19  29
BRANCH   3  31
ATOM     31  O   UNL     1      -8.128   2.021 125.695  0.00  0.00    +0.000 OA
BRANCH  31  32
ATOM     32  C   UNL     1      -8.927   1.496 126.729  0.00  0.00    +0.000 C 
ATOM     33  O   UNL     1      -9.897   1.397 125.941  0.00  0.00    +0.000 OA
BRANCH  32  34
ATOM     34  C   UNL     1      -8.513   1.605 128.664  0.00  0.00    +0.000 C 
ATOM     35  C   UNL     1      -8.968   2.396 129.685  0.00  0.00    +0.000 C 
BRANCH  35  36
ATOM     36  C   UNL     1      -8.316   3.282 130.675  0.00  0.00    +0.000 A 
ATOM     37  C   UNL     1      -8.986   4.467 130.898  0.00  0.00    +0.000 A 
ATOM     38  C   UNL     1      -8.517   5.347 131.864  0.00  0.00    +0.000 A 
ATOM     39  C   UNL     1      -7.295   5.095 132.532  0.00  0.00    +0.000 A 
ATOM     40  C   UNL     1      -6.499   4.019 132.143  0.00  0.00    +0.000 A 
ATOM     41  C   UNL     1      -6.991   3.178 131.161  0.00  0.00    +0.000 A 
BRANCH  38  42
ATOM     42  O   UNL     1      -9.405   6.368 132.103  0.00  0.00    +0.000 OA
ATOM     43  C   UNL     1     -10.693   6.193 131.536  0.00  0.00    +0.000 C 
ENDBRANCH  38  42
BRANCH  39  44
ATOM     44  O   UNL     1      -6.978   5.943 133.550  0.00  0.00    +0.000 OA
ATOM     45  C   UNL     1      -7.327   5.612 134.872  0.00  0.00    +0.000 C 
ENDBRANCH  39  44
BRANCH  40  46
ATOM     46  O   UNL     1      -5.311   3.807 132.782  0.00  0.00    +0.000 OA
ATOM     47  C   UNL     1      -4.077   3.851 132.089  0.00  0.00    +0.000 C 
ENDBRANCH  40  46
ENDBRANCH  35  36
ENDBRANCH  32  34
ENDBRANCH  31  32
ENDBRANCH   3  31
TORSDOF 11
ENDMDL
MODEL 6
REMARK VINA RESULT:      -8.2      4.112      7.981
REMARK  Name = Rescinnamine
REMARK  17 active torsions:
REMARK  status: ('A' for Active; 'I' for Inactive)
REMARK    1  A    between atoms: C_4  and  O_5
REMARK    2  A    between atoms: O_5  and  C_6
REMARK    3  A    between atoms: C_6  and  C_8
REMARK    4  A    between atoms: C_9  and  C_10
REMARK    5  A    between atoms: C_12  and  O_13
REMARK    6  A    between atoms: O_13  and  C_14
REMARK    7  A    between atoms: C_15  and  O_16
REMARK    8  A    between atoms: O_16  and  C_17
REMARK    9  A    between atoms: C_18  and  O_19
REMARK   10  A    between atoms: O_19  and  C_20
REMARK   11  A    between atoms: C_22  and  O_23
REMARK   12  A    between atoms: O_23  and  C_24
REMARK   13  A    between atoms: C_25  and  C_26
REMARK   14  A    between atoms: C_26  and  O_28
REMARK   15  A    between atoms: O_28  and  C_29
REMARK   16  A    between atoms: C_45  and  O_46
REMARK   17  A    between atoms: O_46  and  C_47
REMARK                            x       y       z     vdW  Elec       q    Type
REMARK                         _______ _______ _______ _____ _____    ______ ____
ROOT
ATOM      1  C   UNL     1      -5.478   5.795 132.772  0.00  0.00    +0.000 C 
ATOM      2  C   UNL     1      -4.557   4.714 133.147  0.00  0.00    +0.000 C 
ATOM      3  C   UNL     1      -4.913   3.346 132.346  0.00  0.00    +0.000 C 
ATOM      4  C   UNL     1      -3.611   2.999 131.781  0.00  0.00    +0.000 C 
ATOM      5  C   UNL     1      -4.094   4.300 130.373  0.00  0.00    +0.000 C 
ATOM      6  C   UNL     1      -4.932   5.967 131.275  0.00  0.00    +0.000 C 
ATOM      7  C   UNL     1      -6.581   6.818 130.884  0.00  0.00    +0.000 C 
ATOM      8  C   UNL     1      -7.967   6.071 131.084  0.00  0.00    +0.000 C 
ATOM      9  N   UNL     1      -8.126   5.654 132.492  0.00  0.00    +0.000 NA
ATOM     10  C   UNL     1      -9.229   4.639 132.618  0.00  0.00    +0.000 C 
ATOM     11  C   UNL     1     -10.423   5.584 132.583  0.00  0.00    +0.000 C 
ATOM     12  C   UNL     1     -10.374   6.446 131.347  0.00  0.00    +0.000 A 
ATOM     13  C   UNL     1      -9.201   6.715 130.684  0.00  0.00    +0.000 A 
ATOM     14  N   UNL     1      -9.442   7.375 129.528  0.00  0.00    +0.000 N 
ATOM     15  C   UNL     1     -10.739   7.793 129.579  0.00  0.00    +0.000 A 
ATOM     16  C   UNL     1     -11.322   7.237 130.720  0.00  0.00    +0.000 A 
ATOM     17  C   UNL     1     -12.628   7.541 131.063  0.00  0.00    +0.000 A 
ATOM     18  C   UNL     1     -13.317   8.411 130.232  0.00  0.00    +0.000 A 
ATOM     19  C   UNL     1     -12.732   8.949 129.076  0.00  0.00    +0.000 A 
ATOM     20  C   UNL     1     -11.421   8.637 128.720  0.00  0.00    +0.000 A 
ATOM     21  C   UNL     1      -6.930   5.298 133.219  0.00  0.00    +0.000 C 
ATOM     22  H   UNL     1      -8.784   7.576 128.785  0.00  0.00    +0.000 HD
ENDROOT
BRANCH   4  23
ATOM     23  O   UNL     1      -2.891   2.679 133.148  0.00  0.00    +0.000 OA
ATOM     24  C   UNL     1      -2.995   1.167 133.602  0.00  0.00    +0.000 C 
ENDBRANCH   4  23
BRANCH   5  25
ATOM     25  C   UNL     1      -5.312   3.529 128.889  0.00  0.00    +0.000 C 
ATOM     26  O   UNL     1      -5.095   2.547 128.134  0.00  0.00    +0.000 OA
BRANCH  25  27
ATOM     27  O   UNL     1      -6.213   4.663 127.947  0.00  0.00    +0.000 OA
ATOM     28  C   UNL     1      -7.102   4.883 126.632  0.00  0.00    +0.000 C 
ENDBRANCH  25  27
ENDBRANCH   5  25
BRANCH  19  29
ATOM     29  O   UNL     1     -13.536   9.788 128.353  0.00  0.00    +0.000 OA
ATOM     30  C   UNL     1     -13.887  11.010 128.994  0.00  0.00    +0.000 C 
ENDBRANCH  19  29
BRANCH   3  31
ATOM     31  O   UNL     1      -5.487   3.196 131.038  0.00  0.00    +0.000 OA
BRANCH  31  32
ATOM     32  C   UNL     1      -6.694   2.472 131.076  0.00  0.00    +0.000 C 
ATOM     33  O   UNL     1      -6.344   1.928 132.151  0.00  0.00    +0.000 OA
BRANCH  32  34
ATOM     34  C   UNL     1      -7.926   2.217 129.545  0.00  0.00    +0.000 C 
ATOM     35  C   UNL     1      -8.266   1.136 128.776  0.00  0.00    +0.000 C 
BRANCH  35  36
ATOM     36  C   UNL     1      -8.254   0.857 127.322  0.00  0.00    +0.000 A 
ATOM     37  C   UNL     1      -7.623  -0.322 126.980  0.00  0.00    +0.000 A 
ATOM     38  C   UNL     1      -7.616  -0.734 125.655  0.00  0.00    +0.000 A 
ATOM     39  C   UNL     1      -8.142   0.102 124.640  0.00  0.00    +0.000 A 
ATOM     40  C   UNL     1      -8.568   1.391 124.953  0.00  0.00    +0.000 A 
ATOM     41  C   UNL     1      -8.538   1.773 126.282  0.00  0.00    +0.000 A 
BRANCH  38  42
ATOM     42  O   UNL     1      -7.135  -2.014 125.518  0.00  0.00    +0.000 OA
ATOM     43  C   UNL     1      -7.899  -3.018 126.164  0.00  0.00    +0.000 C 
ENDBRANCH  38  42
BRANCH  39  44
ATOM     44  O   UNL     1      -8.208  -0.435 123.390  0.00  0.00    +0.000 OA
ATOM     45  C   UNL     1      -9.303  -1.243 123.032  0.00  0.00    +0.000 C 
ENDBRANCH  39  44
BRANCH  40  46
ATOM     46  O   UNL     1      -9.047   2.192 123.956  0.00  0.00    +0.000 OA
ATOM     47  C   UNL     1      -8.193   3.036 123.206  0.00  0.00    +0.000 C 
ENDBRANCH  40  46
ENDBRANCH  35  36
ENDBRANCH  32  34
ENDBRANCH  31  32
ENDBRANCH   3  31
TORSDOF 11
ENDMDL
MODEL 7
REMARK VINA RESULT:      -8.0      2.687      7.373
REMARK  Name = Rescinnamine
REMARK  17 active torsions:
REMARK  status: ('A' for Active; 'I' for Inactive)
REMARK    1  A    between atoms: C_4  and  O_5
REMARK    2  A    between atoms: O_5  and  C_6
REMARK    3  A    between atoms: C_6  and  C_8
REMARK    4  A    between atoms: C_9  and  C_10
REMARK    5  A    between atoms: C_12  and  O_13
REMARK    6  A    between atoms: O_13  and  C_14
REMARK    7  A    between atoms: C_15  and  O_16
REMARK    8  A    between atoms: O_16  and  C_17
REMARK    9  A    between atoms: C_18  and  O_19
REMARK   10  A    between atoms: O_19  and  C_20
REMARK   11  A    between atoms: C_22  and  O_23
REMARK   12  A    between atoms: O_23  and  C_24
REMARK   13  A    between atoms: C_25  and  C_26
REMARK   14  A    between atoms: C_26  and  O_28
REMARK   15  A    between atoms: O_28  and  C_29
REMARK   16  A    between atoms: C_45  and  O_46
REMARK   17  A    between atoms: O_46  and  C_47
REMARK                            x       y       z     vdW  Elec       q    Type
REMARK                         _______ _______ _______ _____ _____    ______ ____
ROOT
ATOM      1  C   UNL     1      -5.412  -4.426 132.764  0.00  0.00    +0.000 C 
ATOM      2  C   UNL     1      -4.620  -4.231 133.986  0.00  0.00    +0.000 C 
ATOM      3  C   UNL     1      -4.177  -2.676 134.148  0.00  0.00    +0.000 C 
ATOM      4  C   UNL     1      -4.626  -2.392 135.508  0.00  0.00    +0.000 C 
ATOM      5  C   UNL     1      -6.389  -2.111 134.660  0.00  0.00    +0.000 C 
ATOM      6  C   UNL     1      -6.700  -3.617 133.271  0.00  0.00    +0.000 C 
ATOM      7  C   UNL     1      -7.187  -3.458 131.445  0.00  0.00    +0.000 C 
ATOM      8  C   UNL     1      -6.236  -2.748 130.393  0.00  0.00    +0.000 C 
ATOM      9  N   UNL     1      -4.930  -3.435 130.336  0.00  0.00    +0.000 NA
ATOM     10  C   UNL     1      -3.912  -2.571 129.642  0.00  0.00    +0.000 C 
ATOM     11  C   UNL     1      -4.313  -2.847 128.199  0.00  0.00    +0.000 C 
ATOM     12  C   UNL     1      -5.776  -2.543 127.994  0.00  0.00    +0.000 A 
ATOM     13  C   UNL     1      -6.682  -2.557 129.028  0.00  0.00    +0.000 A 
ATOM     14  N   UNL     1      -7.887  -2.101 128.616  0.00  0.00    +0.000 N 
ATOM     15  C   UNL     1      -7.849  -2.067 127.253  0.00  0.00    +0.000 A 
ATOM     16  C   UNL     1      -6.542  -2.362 126.856  0.00  0.00    +0.000 A 
ATOM     17  C   UNL     1      -6.220  -2.459 125.513  0.00  0.00    +0.000 A 
ATOM     18  C   UNL     1      -7.241  -2.253 124.598  0.00  0.00    +0.000 A 
ATOM     19  C   UNL     1      -8.545  -1.937 125.005  0.00  0.00    +0.000 A 
ATOM     20  C   UNL     1      -8.873  -1.826 126.355  0.00  0.00    +0.000 A 
ATOM     21  C   UNL     1      -4.442  -4.036 131.555  0.00  0.00    +0.000 C 
ATOM     22  H   UNL     1      -8.690  -1.878 129.191  0.00  0.00    +0.000 HD
ENDROOT
BRANCH   4  23
ATOM     23  O   UNL     1      -3.608  -3.346 136.245  0.00  0.00    +0.000 OA
ATOM     24  C   UNL     1      -2.297  -2.627 136.763  0.00  0.00    +0.000 C 
ENDBRANCH   4  23
BRANCH   5  25
ATOM     25  C   UNL     1      -6.641  -0.232 133.833  0.00  0.00    +0.000 C 
ATOM     26  O   UNL     1      -6.487   0.889 134.382  0.00  0.00    +0.000 OA
BRANCH  25  27
ATOM     27  O   UNL     1      -7.940  -0.038 132.710  0.00  0.00    +0.000 OA
ATOM     28  C   UNL     1      -8.367   0.477 131.254  0.00  0.00    +0.000 C 
ENDBRANCH  25  27
ENDBRANCH   5  25
BRANCH  19  29
ATOM     29  O   UNL     1      -9.445  -1.757 123.988  0.00  0.00    +0.000 OA
ATOM     30  C   UNL     1      -8.883  -1.457 122.714  0.00  0.00    +0.000 C 
ENDBRANCH  19  29
BRANCH   3  31
ATOM     31  O   UNL     1      -4.868  -1.497 133.706  0.00  0.00    +0.000 OA
BRANCH  31  32
ATOM     32  C   UNL     1      -4.082  -0.729 132.825  0.00  0.00    +0.000 C 
ATOM     33  O   UNL     1      -3.107  -0.809 133.611  0.00  0.00    +0.000 OA
BRANCH  32  34
ATOM     34  C   UNL     1      -4.779   0.376 131.335  0.00  0.00    +0.000 C 
ATOM     35  C   UNL     1      -4.186   1.063 130.310  0.00  0.00    +0.000 C 
BRANCH  35  36
ATOM     36  C   UNL     1      -4.235   2.466 129.842  0.00  0.00    +0.000 A 
ATOM     37  C   UNL     1      -3.505   2.704 128.696  0.00  0.00    +0.000 A 
ATOM     38  C   UNL     1      -3.536   3.963 128.113  0.00  0.00    +0.000 A 
ATOM     39  C   UNL     1      -4.210   5.033 128.750  0.00  0.00    +0.000 A 
ATOM     40  C   UNL     1      -4.752   4.854 130.022  0.00  0.00    +0.000 A 
ATOM     41  C   UNL     1      -4.680   3.590 130.579  0.00  0.00    +0.000 A 
BRANCH  38  42
ATOM     42  O   UNL     1      -2.931   3.974 126.879  0.00  0.00    +0.000 OA
ATOM     43  C   UNL     1      -1.808   3.118 126.751  0.00  0.00    +0.000 C 
ENDBRANCH  38  42
BRANCH  39  44
ATOM     44  O   UNL     1      -4.297   6.196 128.047  0.00  0.00    +0.000 OA
ATOM     45  C   UNL     1      -3.274   7.155 128.150  0.00  0.00    +0.000 C 
ENDBRANCH  39  44
BRANCH  40  46
ATOM     46  O   UNL     1      -5.375   5.905 130.632  0.00  0.00    +0.000 OA
ATOM     47  C   UNL     1      -4.705   6.718 131.578  0.00  0.00    +0.000 C 
ENDBRANCH  40  46
ENDBRANCH  35  36
ENDBRANCH  32  34
ENDBRANCH  31  32
ENDBRANCH   3  31
TORSDOF 11
ENDMDL
MODEL 8
REMARK VINA RESULT:      -8.0      3.283      8.320
REMARK  Name = Rescinnamine
REMARK  17 active torsions:
REMARK  status: ('A' for Active; 'I' for Inactive)
REMARK    1  A    between atoms: C_4  and  O_5
REMARK    2  A    between atoms: O_5  and  C_6
REMARK    3  A    between atoms: C_6  and  C_8
REMARK    4  A    between atoms: C_9  and  C_10
REMARK    5  A    between atoms: C_12  and  O_13
REMARK    6  A    between atoms: O_13  and  C_14
REMARK    7  A    between atoms: C_15  and  O_16
REMARK    8  A    between atoms: O_16  and  C_17
REMARK    9  A    between atoms: C_18  and  O_19
REMARK   10  A    between atoms: O_19  and  C_20
REMARK   11  A    between atoms: C_22  and  O_23
REMARK   12  A    between atoms: O_23  and  C_24
REMARK   13  A    between atoms: C_25  and  C_26
REMARK   14  A    between atoms: C_26  and  O_28
REMARK   15  A    between atoms: O_28  and  C_29
REMARK   16  A    between atoms: C_45  and  O_46
REMARK   17  A    between atoms: O_46  and  C_47
REMARK                            x       y       z     vdW  Elec       q    Type
REMARK                         _______ _______ _______ _____ _____    ______ ____
ROOT
ATOM      1  C   UNL     1      -9.423   2.992 132.703  0.00  0.00    +0.000 C 
ATOM      2  C   UNL     1      -8.959   3.756 133.869  0.00  0.00    +0.000 C 
ATOM      3  C   UNL     1      -7.416   4.228 133.675  0.00  0.00    +0.000 C 
ATOM      4  C   UNL     1      -7.519   5.659 133.947  0.00  0.00    +0.000 C 
ATOM      5  C   UNL     1      -8.104   5.777 132.062  0.00  0.00    +0.000 C 
ATOM      6  C   UNL     1      -9.432   4.231 131.686  0.00  0.00    +0.000 C 
ATOM      7  C   UNL     1      -9.386   2.948 130.290  0.00  0.00    +0.000 C 
ATOM      8  C   UNL     1      -8.202   1.899 130.167  0.00  0.00    +0.000 C 
ATOM      9  N   UNL     1      -8.120   1.073 131.388  0.00  0.00    +0.000 NA
ATOM     10  C   UNL     1      -6.801   0.351 131.446  0.00  0.00    +0.000 C 
ATOM     11  C   UNL     1      -7.117  -0.791 130.489  0.00  0.00    +0.000 C 
ATOM     12  C   UNL     1      -7.585  -0.249 129.161  0.00  0.00    +0.000 A 
ATOM     13  C   UNL     1      -8.148   0.999 129.034  0.00  0.00    +0.000 A 
ATOM     14  N   UNL     1      -8.336   1.310 127.731  0.00  0.00    +0.000 N 
ATOM     15  C   UNL     1      -8.170   0.156 127.024  0.00  0.00    +0.000 A 
ATOM     16  C   UNL     1      -7.722  -0.827 127.911  0.00  0.00    +0.000 A 
ATOM     17  C   UNL     1      -7.524  -2.127 127.480  0.00  0.00    +0.000 A 
ATOM     18  C   UNL     1      -7.789  -2.402 126.147  0.00  0.00    +0.000 A 
ATOM     19  C   UNL     1      -8.219  -1.406 125.258  0.00  0.00    +0.000 A 
ATOM     20  C   UNL     1      -8.408  -0.092 125.684  0.00  0.00    +0.000 A 
ATOM     21  C   UNL     1      -8.491   1.696 132.637  0.00  0.00    +0.000 C 
ATOM     22  H   UNL     1      -8.604   2.207 127.345  0.00  0.00    +0.000 HD
ENDROOT
BRANCH   4  23
ATOM     23  O   UNL     1      -7.881   5.534 135.478  0.00  0.00    +0.000 OA
ATOM     24  C   UNL     1      -6.628   5.513 136.444  0.00  0.00    +0.000 C 
ENDBRANCH   4  23
BRANCH   5  25
ATOM     25  C   UNL     1      -6.553   5.815 130.694  0.00  0.00    +0.000 C 
ATOM     26  O   UNL     1      -5.833   6.789 130.359  0.00  0.00    +0.000 OA
BRANCH  25  27
ATOM     27  O   UNL     1      -6.735   4.846 129.276  0.00  0.00    +0.000 OA
ATOM     28  C   UNL     1      -6.024   4.288 127.952  0.00  0.00    +0.000 C 
ENDBRANCH  25  27
ENDBRANCH   5  25
BRANCH  19  29
ATOM     29  O   UNL     1      -8.435  -1.826 123.972  0.00  0.00    +0.000 OA
ATOM     30  C   UNL     1      -7.477  -1.391 123.013  0.00  0.00    +0.000 C 
ENDBRANCH  19  29
BRANCH   3  31
ATOM     31  O   UNL     1      -6.721   4.540 132.457  0.00  0.00    +0.000 OA
BRANCH  31  32
ATOM     32  C   UNL     1      -5.339   4.292 132.566  0.00  0.00    +0.000 C 
ATOM     33  O   UNL     1      -5.483   3.189 131.985  0.00  0.00    +0.000 OA
BRANCH  32  34
ATOM     34  C   UNL     1      -4.094   5.252 133.772  0.00  0.00    +0.000 C 
ATOM     35  C   UNL     1      -3.776   6.573 133.945  0.00  0.00    +0.000 C 
BRANCH  35  36
ATOM     36  C   UNL     1      -2.513   7.343 133.919  0.00  0.00    +0.000 A 
ATOM     37  C   UNL     1      -2.584   8.519 133.201  0.00  0.00    +0.000 A 
ATOM     38  C   UNL     1      -1.488   9.370 133.170  0.00  0.00    +0.000 A 
ATOM     39  C   UNL     1      -0.262   8.983 133.764  0.00  0.00    +0.000 A 
ATOM     40  C   UNL     1      -0.118   7.700 134.288  0.00  0.00    +0.000 A 
ATOM     41  C   UNL     1      -1.227   6.874 134.280  0.00  0.00    +0.000 A 
BRANCH  38  42
ATOM     42  O   UNL     1      -1.792  10.578 132.592  0.00  0.00    +0.000 OA
ATOM     43  C   UNL     1      -2.491  11.487 133.426  0.00  0.00    +0.000 C 
ENDBRANCH  38  42
BRANCH  39  44
ATOM     44  O   UNL     1       0.718   9.929 133.797  0.00  0.00    +0.000 OA
ATOM     45  C   UNL     1       0.841  10.772 134.915  0.00  0.00    +0.000 C 
ENDBRANCH  39  44
BRANCH  40  46
ATOM     46  O   UNL     1       1.080   7.336 134.833  0.00  0.00    +0.000 OA
ATOM     47  C   UNL     1       1.260   7.237 136.234  0.00  0.00    +0.000 C 
ENDBRANCH  40  46
ENDBRANCH  35  36
ENDBRANCH  32  34
ENDBRANCH  31  32
ENDBRANCH   3  31
TORSDOF 11
ENDMDL
MODEL 9
REMARK VINA RESULT:      -8.0      2.893      7.400
REMARK  Name = Rescinnamine
REMARK  17 active torsions:
REMARK  status: ('A' for Active; 'I' for Inactive)
REMARK    1  A    between atoms: C_4  and  O_5
REMARK    2  A    between atoms: O_5  and  C_6
REMARK    3  A    between atoms: C_6  and  C_8
REMARK    4  A    between atoms: C_9  and  C_10
REMARK    5  A    between atoms: C_12  and  O_13
REMARK    6  A    between atoms: O_13  and  C_14
REMARK    7  A    between atoms: C_15  and  O_16
REMARK    8  A    between atoms: O_16  and  C_17
REMARK    9  A    between atoms: C_18  and  O_19
REMARK   10  A    between atoms: O_19  and  C_20
REMARK   11  A    between atoms: C_22  and  O_23
REMARK   12  A    between atoms: O_23  and  C_24
REMARK   13  A    between atoms: C_25  and  C_26
REMARK   14  A    between atoms: C_26  and  O_28
REMARK   15  A    between atoms: O_28  and  C_29
REMARK   16  A    between atoms: C_45  and  O_46
REMARK   17  A    between atoms: O_46  and  C_47
REMARK                            x       y       z     vdW  Elec       q    Type
REMARK                         _______ _______ _______ _____ _____    ______ ____
ROOT
ATOM      1  C   UNL     1      -5.373  -4.820 132.789  0.00  0.00    +0.000 C 
ATOM      2  C   UNL     1      -4.571  -4.790 134.019  0.00  0.00    +0.000 C 
ATOM      3  C   UNL     1      -4.025  -3.289 134.319  0.00  0.00    +0.000 C 
ATOM      4  C   UNL     1      -4.455  -3.100 135.703  0.00  0.00    +0.000 C 
ATOM      5  C   UNL     1      -6.195  -2.627 134.892  0.00  0.00    +0.000 C 
ATOM      6  C   UNL     1      -6.605  -3.977 133.374  0.00  0.00    +0.000 C 
ATOM      7  C   UNL     1      -7.079  -3.620 131.573  0.00  0.00    +0.000 C 
ATOM      8  C   UNL     1      -6.082  -2.882 130.584  0.00  0.00    +0.000 C 
ATOM      9  N   UNL     1      -4.825  -3.647 130.458  0.00  0.00    +0.000 NA
ATOM     10  C   UNL     1      -3.750  -2.794 129.841  0.00  0.00    +0.000 C 
ATOM     11  C   UNL     1      -4.168  -2.910 128.381  0.00  0.00    +0.000 C 
ATOM     12  C   UNL     1      -5.607  -2.492 128.212  0.00  0.00    +0.000 A 
ATOM     13  C   UNL     1      -6.513  -2.539 129.245  0.00  0.00    +0.000 A 
ATOM     14  N   UNL     1      -7.684  -1.969 128.883  0.00  0.00    +0.000 N 
ATOM     15  C   UNL     1      -7.643  -1.813 127.529  0.00  0.00    +0.000 A 
ATOM     16  C   UNL     1      -6.359  -2.157 127.099  0.00  0.00    +0.000 A 
ATOM     17  C   UNL     1      -6.043  -2.153 125.751  0.00  0.00    +0.000 A 
ATOM     18  C   UNL     1      -7.047  -1.798 124.864  0.00  0.00    +0.000 A 
ATOM     19  C   UNL     1      -8.328  -1.433 125.305  0.00  0.00    +0.000 A 
ATOM     20  C   UNL     1      -8.649  -1.425 126.661  0.00  0.00    +0.000 A 
ATOM     21  C   UNL     1      -4.379  -4.388 131.615  0.00  0.00    +0.000 C 
ATOM     22  H   UNL     1      -8.471  -1.746 129.480  0.00  0.00    +0.000 HD
ENDROOT
BRANCH   4  23
ATOM     23  O   UNL     1      -3.503  -4.184 136.345  0.00  0.00    +0.000 OA
ATOM     24  C   UNL     1      -2.507  -3.613 137.433  0.00  0.00    +0.000 C 
ENDBRANCH   4  23
BRANCH   5  25
ATOM     25  C   UNL     1      -6.321  -0.668 134.240  0.00  0.00    +0.000 C 
ATOM     26  O   UNL     1      -6.131   0.386 134.899  0.00  0.00    +0.000 OA
BRANCH  25  27
ATOM     27  O   UNL     1      -7.565  -0.300 133.100  0.00  0.00    +0.000 OA
ATOM     28  C   UNL     1      -8.302   0.856 132.270  0.00  0.00    +0.000 C 
ENDBRANCH  25  27
ENDBRANCH   5  25
BRANCH  19  29
ATOM     29  O   UNL     1      -9.213  -1.102 124.313  0.00  0.00    +0.000 OA
ATOM     30  C   UNL     1      -8.896  -1.596 123.015  0.00  0.00    +0.000 C 
ENDBRANCH  19  29
BRANCH   3  31
ATOM     31  O   UNL     1      -4.636  -2.031 133.990  0.00  0.00    +0.000 OA
BRANCH  31  32
ATOM     32  C   UNL     1      -3.811  -1.252 133.155  0.00  0.00    +0.000 C 
ATOM     33  O   UNL     1      -2.789  -1.749 133.686  0.00  0.00    +0.000 OA
BRANCH  32  34
ATOM     34  C   UNL     1      -4.400   0.331 132.119  0.00  0.00    +0.000 C 
ATOM     35  C   UNL     1      -4.985   0.493 130.892  0.00  0.00    +0.000 C 
BRANCH  35  36
ATOM     36  C   UNL     1      -4.643   1.267 129.678  0.00  0.00    +0.000 A 
ATOM     37  C   UNL     1      -4.044   2.483 129.936  0.00  0.00    +0.000 A 
ATOM     38  C   UNL     1      -3.603   3.267 128.879  0.00  0.00    +0.000 A 
ATOM     39  C   UNL     1      -3.871   2.886 127.542  0.00  0.00    +0.000 A 
ATOM     40  C   UNL     1      -4.677   1.779 127.283  0.00  0.00    +0.000 A 
ATOM     41  C   UNL     1      -5.116   1.037 128.365  0.00  0.00    +0.000 A 
BRANCH  38  42
ATOM     42  O   UNL     1      -2.852   4.334 129.309  0.00  0.00    +0.000 OA
ATOM     43  C   UNL     1      -3.126   4.773 130.629  0.00  0.00    +0.000 C 
ENDBRANCH  38  42
BRANCH  39  44
ATOM     44  O   UNL     1      -3.293   3.645 126.570  0.00  0.00    +0.000 OA
ATOM     45  C   UNL     1      -1.961   3.400 126.189  0.00  0.00    +0.000 C 
ENDBRANCH  39  44
BRANCH  40  46
ATOM     46  O   UNL     1      -4.947   1.443 125.987  0.00  0.00    +0.000 OA
ATOM     47  C   UNL     1      -6.182   1.768 125.377  0.00  0.00    +0.000 C 
ENDBRANCH  40  46
ENDBRANCH  35  36
ENDBRANCH  32  34
ENDBRANCH  31  32
ENDBRANCH   3  31
TORSDOF 11
ENDMDL
