MODEL 1
REMARK VINA RESULT:      -9.0      0.000      0.000
REMARK  Name = Reserpine
REMARK  16 active torsions:
REMARK  status: ('A' for Active; 'I' for Inactive)
REMARK    1  A    between atoms: C_4  and  O_5
REMARK    2  A    between atoms: O_5  and  C_6
REMARK    3  A    between atoms: C_6  and  C_8
REMARK    4  A    between atoms: C_10  and  O_11
REMARK    5  A    between atoms: O_11  and  C_12
REMARK    6  A    between atoms: C_13  and  O_14
REMARK    7  A    between atoms: O_14  and  C_15
REMARK    8  A    between atoms: C_16  and  O_17
REMARK    9  A    between atoms: O_17  and  C_18
REMARK   10  A    between atoms: C_20  and  O_21
REMARK   11  A    between atoms: O_21  and  C_22
REMARK   12  A    between atoms: C_23  and  C_24
REMARK   13  A    between atoms: C_24  and  O_26
REMARK   14  A    between atoms: O_26  and  C_27
REMARK   15  A    between atoms: C_43  and  O_44
REMARK   16  A    between atoms: O_44  and  C_45
REMARK                            x       y       z     vdW  Elec       q    Type
REMARK                         _______ _______ _______ _____ _____    ______ ____
ROOT
ATOM      1  C   UNL     1      -2.896   4.100 128.034  0.00  0.00    +0.000 C 
ATOM      2  C   UNL     1      -2.463   5.236 128.875  0.00  0.00    +0.000 C 
ATOM      3  C   UNL     1      -3.805   6.084 129.649  0.00  0.00    +0.000 C 
ATOM      4  C   UNL     1      -3.048   5.623 130.763  0.00  0.00    +0.000 C 
ATOM      5  C   UNL     1      -3.897   3.797 130.204  0.00  0.00    +0.000 C 
ATOM      6  C   UNL     1      -3.389   3.063 128.973  0.00  0.00    +0.000 C 
ATOM      7  C   UNL     1      -4.418   2.214 128.101  0.00  0.00    +0.000 C 
ATOM      8  C   UNL     1      -5.479   3.053 127.335  0.00  0.00    +0.000 C 
ATOM      9  N   UNL     1      -4.941   4.130 126.560  0.00  0.00    +0.000 NA
ATOM     10  C   UNL     1      -6.003   4.989 125.994  0.00  0.00    +0.000 C 
ATOM     11  C   UNL     1      -6.482   4.113 124.833  0.00  0.00    +0.000 C 
ATOM     12  C   UNL     1      -6.870   2.748 125.325  0.00  0.00    +0.000 A 
ATOM     13  C   UNL     1      -6.366   2.247 126.495  0.00  0.00    +0.000 A 
ATOM     14  N   UNL     1      -6.957   1.056 126.789  0.00  0.00    +0.000 N 
ATOM     15  C   UNL     1      -7.681   0.674 125.691  0.00  0.00    +0.000 A 
ATOM     16  C   UNL     1      -7.610   1.715 124.761  0.00  0.00    +0.000 A 
ATOM     17  C   UNL     1      -8.201   1.580 123.514  0.00  0.00    +0.000 A 
ATOM     18  C   UNL     1      -8.854   0.387 123.233  0.00  0.00    +0.000 A 
ATOM     19  C   UNL     1      -8.943  -0.643 124.179  0.00  0.00    +0.000 A 
ATOM     20  C   UNL     1      -8.366  -0.511 125.444  0.00  0.00    +0.000 A 
ATOM     21  C   UNL     1      -3.819   4.805 127.062  0.00  0.00    +0.000 C 
ATOM     22  H   UNL     1      -6.876   0.525 127.651  0.00  0.00    +0.000 HD
ENDROOT
BRANCH   4  23
ATOM     23  O   UNL     1      -1.675   6.466 130.812  0.00  0.00    +0.000 OA
ATOM     24  C   UNL     1      -0.710   6.732 131.912  0.00  0.00    +0.000 C 
ENDBRANCH   4  23
BRANCH   5  25
ATOM     25  C   UNL     1      -5.659   2.919 129.955  0.00  0.00    +0.000 C 
ATOM     26  O   UNL     1      -6.798   3.458 129.662  0.00  0.00    +0.000 OA
BRANCH  25  27
ATOM     27  O   UNL     1      -6.108   1.580 129.922  0.00  0.00    +0.000 OA
ATOM     28  C   UNL     1      -7.490   1.226 130.257  0.00  0.00    +0.000 C 
ENDBRANCH  25  27
ENDBRANCH   5  25
BRANCH  19  29
ATOM     29  O   UNL     1      -9.622  -1.756 123.756  0.00  0.00    +0.000 OA
ATOM     30  C   UNL     1      -8.832  -2.923 123.558  0.00  0.00    +0.000 C 
ENDBRANCH  19  29
BRANCH   3  31
ATOM     31  O   UNL     1      -4.830   5.981 130.899  0.00  0.00    +0.000 OA
BRANCH  31  32
ATOM     32  C   UNL     1      -5.733   6.955 130.914  0.00  0.00    +0.000 C 
ATOM     33  O   UNL     1      -5.177   7.633 130.050  0.00  0.00    +0.000 OA
BRANCH  32  34
ATOM     34  C   UNL     1      -7.559   6.587 131.466  0.00  0.00    +0.000 A 
ATOM     35  C   UNL     1      -8.448   5.319 132.226  0.00  0.00    +0.000 A 
ATOM     36  C   UNL     1      -9.569   4.626 131.607  0.00  0.00    +0.000 A 
ATOM     37  C   UNL     1      -9.992   5.270 130.452  0.00  0.00    +0.000 A 
ATOM     38  C   UNL     1      -9.277   6.408 129.892  0.00  0.00    +0.000 A 
ATOM     39  C   UNL     1      -8.121   6.995 130.360  0.00  0.00    +0.000 A 
BRANCH  36  40
ATOM     40  O   UNL     1      -9.918   3.288 131.931  0.00  0.00    +0.000 OA
ATOM     41  C   UNL     1      -9.267   2.725 133.108  0.00  0.00    +0.000 C 
ENDBRANCH  36  40
BRANCH  37  42
ATOM     42  O   UNL     1     -11.088   4.733 129.835  0.00  0.00    +0.000 OA
ATOM     43  C   UNL     1     -12.286   5.436 130.040  0.00  0.00    +0.000 C 
ENDBRANCH  37  42
BRANCH  38  44
ATOM     44  O   UNL     1      -9.680   6.961 128.698  0.00  0.00    +0.000 OA
ATOM     45  C   UNL     1     -10.329   8.224 128.812  0.00  0.00    +0.000 C 
ENDBRANCH  38  44
ENDBRANCH  32  34
ENDBRANCH  31  32
ENDBRANCH   3  31
TORSDOF 10
ENDMDL
MODEL 2
REMARK VINA RESULT:      -8.9      3.414      7.475
REMARK  Name = Reserpine
REMARK  16 active torsions:
REMARK  status: ('A' for Active; 'I' for Inactive)
REMARK    1  A    between atoms: C_4  and  O_5
REMARK    2  A    between atoms: O_5  and  C_6
REMARK    3  A    between atoms: C_6  and  C_8
REMARK    4  A    between atoms: C_10  and  O_11
REMARK    5  A    between atoms: O_11  and  C_12
REMARK    6  A    between atoms: C_13  and  O_14
REMARK    7  A    between atoms: O_14  and  C_15
REMARK    8  A    between atoms: C_16  and  O_17
REMARK    9  A    between atoms: O_17  and  C_18
REMARK   10  A    between atoms: C_20  and  O_21
REMARK   11  A    between atoms: O_21  and  C_22
REMARK   12  A    between atoms: C_23  and  C_24
REMARK   13  A    between atoms: C_24  and  O_26
REMARK   14  A    between atoms: O_26  and  C_27
REMARK   15  A    between atoms: C_43  and  O_44
REMARK   16  A    between atoms: O_44  and  C_45
REMARK                            x       y       z     vdW  Elec       q    Type
REMARK                         _______ _______ _______ _____ _____    ______ ____
ROOT
ATOM      1  C   UNL     1      -8.388   0.404 130.396  0.00  0.00    +0.000 C 
ATOM      2  C   UNL     1      -7.238  -0.491 130.653  0.00  0.00    +0.000 C 
ATOM      3  C   UNL     1      -5.823   0.353 131.288  0.00  0.00    +0.000 C 
ATOM      4  C   UNL     1      -6.127  -0.566 132.331  0.00  0.00    +0.000 C 
ATOM      5  C   UNL     1      -7.681   0.791 132.666  0.00  0.00    +0.000 C 
ATOM      6  C   UNL     1      -8.879   0.829 131.730  0.00  0.00    +0.000 C 
ATOM      7  C   UNL     1      -9.594   2.225 131.447  0.00  0.00    +0.000 C 
ATOM      8  C   UNL     1      -8.749   3.245 130.635  0.00  0.00    +0.000 C 
ATOM      9  N   UNL     1      -8.185   2.723 129.427  0.00  0.00    +0.000 NA
ATOM     10  C   UNL     1      -7.259   3.682 128.789  0.00  0.00    +0.000 C 
ATOM     11  C   UNL     1      -8.258   4.654 128.152  0.00  0.00    +0.000 C 
ATOM     12  C   UNL     1      -9.215   5.179 129.183  0.00  0.00    +0.000 A 
ATOM     13  C   UNL     1      -9.460   4.489 130.340  0.00  0.00    +0.000 A 
ATOM     14  N   UNL     1     -10.259   5.222 131.164  0.00  0.00    +0.000 N 
ATOM     15  C   UNL     1     -10.718   6.294 130.445  0.00  0.00    +0.000 A 
ATOM     16  C   UNL     1     -10.090   6.259 129.197  0.00  0.00    +0.000 A 
ATOM     17  C   UNL     1     -10.414   7.194 128.226  0.00  0.00    +0.000 A 
ATOM     18  C   UNL     1     -11.373   8.148 128.539  0.00  0.00    +0.000 A 
ATOM     19  C   UNL     1     -11.980   8.192 129.801  0.00  0.00    +0.000 A 
ATOM     20  C   UNL     1     -11.650   7.266 130.793  0.00  0.00    +0.000 A 
ATOM     21  C   UNL     1      -7.768   1.384 129.420  0.00  0.00    +0.000 C 
ATOM     22  H   UNL     1     -10.496   5.021 132.131  0.00  0.00    +0.000 HD
ENDROOT
BRANCH   4  23
ATOM     23  O   UNL     1      -5.777  -2.049 131.803  0.00  0.00    +0.000 OA
ATOM     24  C   UNL     1      -4.703  -3.008 132.174  0.00  0.00    +0.000 C 
ENDBRANCH   4  23
BRANCH   5  25
ATOM     25  C   UNL     1      -8.005   2.700 133.098  0.00  0.00    +0.000 C 
ATOM     26  O   UNL     1      -8.958   3.221 133.802  0.00  0.00    +0.000 OA
BRANCH  25  27
ATOM     27  O   UNL     1      -7.300   3.905 132.876  0.00  0.00    +0.000 OA
ATOM     28  C   UNL     1      -7.496   5.076 133.734  0.00  0.00    +0.000 C 
ENDBRANCH  25  27
ENDBRANCH   5  25
BRANCH  19  29
ATOM     29  O   UNL     1     -12.904   9.193 129.961  0.00  0.00    +0.000 OA
ATOM     30  C   UNL     1     -13.415   9.759 128.760  0.00  0.00    +0.000 C 
ENDBRANCH  19  29
BRANCH   3  31
ATOM     31  O   UNL     1      -5.214   0.978 132.652  0.00  0.00    +0.000 OA
BRANCH  31  32
ATOM     32  C   UNL     1      -4.284   1.900 132.433  0.00  0.00    +0.000 C 
ATOM     33  O   UNL     1      -3.400   1.316 133.060  0.00  0.00    +0.000 OA
BRANCH  32  34
ATOM     34  C   UNL     1      -4.388   3.040 130.863  0.00  0.00    +0.000 A 
ATOM     35  C   UNL     1      -3.883   3.015 129.213  0.00  0.00    +0.000 A 
ATOM     36  C   UNL     1      -2.989   4.001 128.621  0.00  0.00    +0.000 A 
ATOM     37  C   UNL     1      -2.798   5.088 129.463  0.00  0.00    +0.000 A 
ATOM     38  C   UNL     1      -3.329   5.123 130.818  0.00  0.00    +0.000 A 
ATOM     39  C   UNL     1      -4.046   4.144 131.471  0.00  0.00    +0.000 A 
BRANCH  36  40
ATOM     40  O   UNL     1      -2.145   3.705 127.517  0.00  0.00    +0.000 OA
ATOM     41  C   UNL     1      -2.804   3.581 126.223  0.00  0.00    +0.000 C 
ENDBRANCH  36  40
BRANCH  37  42
ATOM     42  O   UNL     1      -2.028   6.102 128.964  0.00  0.00    +0.000 OA
ATOM     43  C   UNL     1      -2.728   7.066 128.221  0.00  0.00    +0.000 C 
ENDBRANCH  37  42
BRANCH  38  44
ATOM     44  O   UNL     1      -3.042   6.181 131.648  0.00  0.00    +0.000 OA
ATOM     45  C   UNL     1      -3.819   6.235 132.842  0.00  0.00    +0.000 C 
ENDBRANCH  38  44
ENDBRANCH  32  34
ENDBRANCH  31  32
ENDBRANCH   3  31
TORSDOF 10
ENDMDL
MODEL 3
REMARK VINA RESULT:      -8.7      3.200      8.694
REMARK  Name = Reserpine
REMARK  16 active torsions:
REMARK  status: ('A' for Active; 'I' for Inactive)
REMARK    1  A    between atoms: C_4  and  O_5
REMARK    2  A    between atoms: O_5  and  C_6
REMARK    3  A    between atoms: C_6  and  C_8
REMARK    4  A    between atoms: C_10  and  O_11
REMARK    5  A    between atoms: O_11  and  C_12
REMARK    6  A    between atoms: C_13  and  O_14
REMARK    7  A    between atoms: O_14  and  C_15
REMARK    8  A    between atoms: C_16  and  O_17
REMARK    9  A    between atoms: O_17  and  C_18
REMARK   10  A    between atoms: C_20  and  O_21
REMARK   11  A    between atoms: O_21  and  C_22
REMARK   12  A    between atoms: C_23  and  C_24
REMARK   13  A    between atoms: C_24  and  O_26
REMARK   14  A    between atoms: O_26  and  C_27
REMARK   15  A    between atoms: C_43  and  O_44
REMARK   16  A    between atoms: O_44  and  C_45
REMARK                            x       y       z     vdW  Elec       q    Type
REMARK                         _______ _______ _______ _____ _____    ______ ____
ROOT
ATOM      1  C   UNL     1      -7.743   1.697 125.068  0.00  0.00    +0.000 C 
ATOM      2  C   UNL     1      -8.076   0.341 124.582  0.00  0.00    +0.000 C 
ATOM      3  C   UNL     1      -7.432  -0.948 125.604  0.00  0.00    +0.000 C 
ATOM      4  C   UNL     1      -8.836  -1.173 125.671  0.00  0.00    +0.000 C 
ATOM      5  C   UNL     1      -8.745   0.508 126.909  0.00  0.00    +0.000 C 
ATOM      6  C   UNL     1      -8.534   1.889 126.309  0.00  0.00    +0.000 C 
ATOM      7  C   UNL     1      -7.699   2.970 127.131  0.00  0.00    +0.000 C 
ATOM      8  C   UNL     1      -6.186   2.653 127.286  0.00  0.00    +0.000 C 
ATOM      9  N   UNL     1      -5.516   2.334 126.062  0.00  0.00    +0.000 NA
ATOM     10  C   UNL     1      -4.128   1.880 126.293  0.00  0.00    +0.000 C 
ATOM     11  C   UNL     1      -3.437   3.219 126.569  0.00  0.00    +0.000 C 
ATOM     12  C   UNL     1      -4.131   3.953 127.681  0.00  0.00    +0.000 A 
ATOM     13  C   UNL     1      -5.440   3.696 127.991  0.00  0.00    +0.000 A 
ATOM     14  N   UNL     1      -5.803   4.389 129.105  0.00  0.00    +0.000 N 
ATOM     15  C   UNL     1      -4.795   5.274 129.386  0.00  0.00    +0.000 A 
ATOM     16  C   UNL     1      -3.757   5.024 128.484  0.00  0.00    +0.000 A 
ATOM     17  C   UNL     1      -2.621   5.818 128.489  0.00  0.00    +0.000 A 
ATOM     18  C   UNL     1      -2.559   6.855 129.411  0.00  0.00    +0.000 A 
ATOM     19  C   UNL     1      -3.592   7.083 130.329  0.00  0.00    +0.000 A 
ATOM     20  C   UNL     1      -4.735   6.279 130.344  0.00  0.00    +0.000 A 
ATOM     21  C   UNL     1      -6.230   1.625 125.086  0.00  0.00    +0.000 C 
ATOM     22  H   UNL     1      -6.664   4.296 129.635  0.00  0.00    +0.000 HD
ENDROOT
BRANCH   4  23
ATOM     23  O   UNL     1      -9.322  -1.712 124.232  0.00  0.00    +0.000 OA
ATOM     24  C   UNL     1      -9.308  -3.068 123.621  0.00  0.00    +0.000 C 
ENDBRANCH   4  23
BRANCH   5  25
ATOM     25  C   UNL     1      -7.908   1.152 128.589  0.00  0.00    +0.000 C 
ATOM     26  O   UNL     1      -8.403   1.934 129.492  0.00  0.00    +0.000 OA
BRANCH  25  27
ATOM     27  O   UNL     1      -6.697   0.880 129.267  0.00  0.00    +0.000 OA
ATOM     28  C   UNL     1      -6.658   0.688 130.719  0.00  0.00    +0.000 C 
ENDBRANCH  25  27
ENDBRANCH   5  25
BRANCH  19  29
ATOM     29  O   UNL     1      -3.385   8.140 131.177  0.00  0.00    +0.000 OA
ATOM     30  C   UNL     1      -2.542   7.882 132.293  0.00  0.00    +0.000 C 
ENDBRANCH  19  29
BRANCH   3  31
ATOM     31  O   UNL     1      -7.711  -1.739 126.989  0.00  0.00    +0.000 OA
BRANCH  31  32
ATOM     32  C   UNL     1      -6.606  -2.221 127.544  0.00  0.00    +0.000 C 
ATOM     33  O   UNL     1      -5.848  -1.423 126.993  0.00  0.00    +0.000 OA
BRANCH  32  34
ATOM     34  C   UNL     1      -6.692  -3.141 129.254  0.00  0.00    +0.000 A 
ATOM     35  C   UNL     1      -7.520  -2.993 130.760  0.00  0.00    +0.000 A 
ATOM     36  C   UNL     1      -6.852  -2.807 132.041  0.00  0.00    +0.000 A 
ATOM     37  C   UNL     1      -5.483  -3.015 131.938  0.00  0.00    +0.000 A 
ATOM     38  C   UNL     1      -4.827  -3.243 130.658  0.00  0.00    +0.000 A 
ATOM     39  C   UNL     1      -5.401  -3.269 129.406  0.00  0.00    +0.000 A 
BRANCH  36  40
ATOM     40  O   UNL     1      -7.464  -2.139 133.135  0.00  0.00    +0.000 OA
ATOM     41  C   UNL     1      -8.220  -2.980 134.056  0.00  0.00    +0.000 C 
ENDBRANCH  36  40
BRANCH  37  42
ATOM     42  O   UNL     1      -4.777  -2.932 133.105  0.00  0.00    +0.000 OA
ATOM     43  C   UNL     1      -4.615  -4.149 133.787  0.00  0.00    +0.000 C 
ENDBRANCH  37  42
BRANCH  38  44
ATOM     44  O   UNL     1      -3.458  -3.357 130.592  0.00  0.00    +0.000 OA
ATOM     45  C   UNL     1      -2.938  -3.588 129.285  0.00  0.00    +0.000 C 
ENDBRANCH  38  44
ENDBRANCH  32  34
ENDBRANCH  31  32
ENDBRANCH   3  31
TORSDOF 10
ENDMDL
MODEL 4
REMARK VINA RESULT:      -8.6      2.974      8.319
REMARK  Name = Reserpine
REMARK  16 active torsions:
REMARK  status: ('A' for Active; 'I' for Inactive)
REMARK    1  A    between atoms: C_4  and  O_5
REMARK    2  A    between atoms: O_5  and  C_6
REMARK    3  A    between atoms: C_6  and  C_8
REMARK    4  A    between atoms: C_10  and  O_11
REMARK    5  A    between atoms: O_11  and  C_12
REMARK    6  A    between atoms: C_13  and  O_14
REMARK    7  A    between atoms: O_14  and  C_15
REMARK    8  A    between atoms: C_16  and  O_17
REMARK    9  A    between atoms: O_17  and  C_18
REMARK   10  A    between atoms: C_20  and  O_21
REMARK   11  A    between atoms: O_21  and  C_22
REMARK   12  A    between atoms: C_23  and  C_24
REMARK   13  A    between atoms: C_24  and  O_26
REMARK   14  A    between atoms: O_26  and  C_27
REMARK   15  A    between atoms: C_43  and  O_44
REMARK   16  A    between atoms: O_44  and  C_45
REMARK                            x       y       z     vdW  Elec       q    Type
REMARK                         _______ _______ _______ _____ _____    ______ ____
ROOT
ATOM      1  C   UNL     1      -5.842   3.629 131.154  0.00  0.00    +0.000 C 
ATOM      2  C   UNL     1      -5.196   2.298 131.167  0.00  0.00    +0.000 C 
ATOM      3  C   UNL     1      -6.152   1.049 130.364  0.00  0.00    +0.000 C 
ATOM      4  C   UNL     1      -4.956   1.065 129.592  0.00  0.00    +0.000 C 
ATOM      5  C   UNL     1      -5.796   2.841 128.878  0.00  0.00    +0.000 C 
ATOM      6  C   UNL     1      -5.795   4.090 129.745  0.00  0.00    +0.000 C 
ATOM      7  C   UNL     1      -7.017   5.107 129.635  0.00  0.00    +0.000 C 
ATOM      8  C   UNL     1      -8.373   4.567 130.169  0.00  0.00    +0.000 C 
ATOM      9  N   UNL     1      -8.313   4.003 131.484  0.00  0.00    +0.000 NA
ATOM     10  C   UNL     1      -9.586   3.358 131.867  0.00  0.00    +0.000 C 
ATOM     11  C   UNL     1     -10.434   4.588 132.205  0.00  0.00    +0.000 C 
ATOM     12  C   UNL     1     -10.452   5.550 131.051  0.00  0.00    +0.000 A 
ATOM     13  C   UNL     1      -9.456   5.548 130.111  0.00  0.00    +0.000 A 
ATOM     14  N   UNL     1      -9.758   6.416 129.106  0.00  0.00    +0.000 N 
ATOM     15  C   UNL     1     -10.844   7.150 129.508  0.00  0.00    +0.000 A 
ATOM     16  C   UNL     1     -11.267   6.631 130.734  0.00  0.00    +0.000 A 
ATOM     17  C   UNL     1     -12.317   7.224 131.419  0.00  0.00    +0.000 A 
ATOM     18  C   UNL     1     -12.918   8.336 130.844  0.00  0.00    +0.000 A 
ATOM     19  C   UNL     1     -12.505   8.835 129.602  0.00  0.00    +0.000 A 
ATOM     20  C   UNL     1     -11.459   8.236 128.896  0.00  0.00    +0.000 A 
ATOM     21  C   UNL     1      -7.149   3.313 131.851  0.00  0.00    +0.000 C 
ATOM     22  H   UNL     1      -9.272   6.526 128.221  0.00  0.00    +0.000 HD
ENDROOT
BRANCH   4  23
ATOM     23  O   UNL     1      -3.773   0.450 130.498  0.00  0.00    +0.000 OA
ATOM     24  C   UNL     1      -3.618  -0.866 131.172  0.00  0.00    +0.000 C 
ENDBRANCH   4  23
BRANCH   5  25
ATOM     25  C   UNL     1      -7.410   3.529 127.953  0.00  0.00    +0.000 C 
ATOM     26  O   UNL     1      -8.611   3.046 127.952  0.00  0.00    +0.000 OA
BRANCH  25  27
ATOM     27  O   UNL     1      -7.708   4.684 127.196  0.00  0.00    +0.000 OA
ATOM     28  C   UNL     1      -7.773   4.646 125.732  0.00  0.00    +0.000 C 
ENDBRANCH  25  27
ENDBRANCH   5  25
BRANCH  19  29
ATOM     29  O   UNL     1     -13.197   9.935 129.165  0.00  0.00    +0.000 OA
ATOM     30  C   UNL     1     -13.460  10.930 130.147  0.00  0.00    +0.000 C 
ENDBRANCH  19  29
BRANCH   3  31
ATOM     31  O   UNL     1      -6.535   0.480 128.897  0.00  0.00    +0.000 OA
BRANCH  31  32
ATOM     32  C   UNL     1      -7.245  -0.641 128.943  0.00  0.00    +0.000 C 
ATOM     33  O   UNL     1      -8.041  -0.234 129.790  0.00  0.00    +0.000 OA
BRANCH  32  34
ATOM     34  C   UNL     1      -7.301  -1.827 127.405  0.00  0.00    +0.000 A 
ATOM     35  C   UNL     1      -6.205  -2.519 126.267  0.00  0.00    +0.000 A 
ATOM     36  C   UNL     1      -6.280  -2.303 124.828  0.00  0.00    +0.000 A 
ATOM     37  C   UNL     1      -7.473  -1.690 124.466  0.00  0.00    +0.000 A 
ATOM     38  C   UNL     1      -8.430  -1.211 125.453  0.00  0.00    +0.000 A 
ATOM     39  C   UNL     1      -8.322  -1.254 126.826  0.00  0.00    +0.000 A 
BRANCH  36  40
ATOM     40  O   UNL     1      -5.141  -2.363 123.982  0.00  0.00    +0.000 OA
ATOM     41  C   UNL     1      -4.665  -3.698 123.644  0.00  0.00    +0.000 C 
ENDBRANCH  36  40
BRANCH  37  42
ATOM     42  O   UNL     1      -7.668  -1.509 123.125  0.00  0.00    +0.000 OA
ATOM     43  C   UNL     1      -8.484  -2.472 122.511  0.00  0.00    +0.000 C 
ENDBRANCH  37  42
BRANCH  38  44
ATOM     44  O   UNL     1      -9.557  -0.531 125.053  0.00  0.00    +0.000 OA
ATOM     45  C   UNL     1      -9.666   0.797 125.557  0.00  0.00    +0.000 C 
ENDBRANCH  38  44
ENDBRANCH  32  34
ENDBRANCH  31  32
ENDBRANCH   3  31
TORSDOF 10
ENDMDL
MODEL 5
REMARK VINA RESULT:      -8.6      4.367      7.745
REMARK  Name = Reserpine
REMARK  16 active torsions:
REMARK  status: ('A' for Active; 'I' for Inactive)
REMARK    1  A    between atoms: C_4  and  O_5
REMARK    2  A    between atoms: O_5  and  C_6
REMARK    3  A    between atoms: C_6  and  C_8
REMARK    4  A    between atoms: C_10  and  O_11
REMARK    5  A    between atoms: O_11  and  C_12
REMARK    6  A    between atoms: C_13  and  O_14
REMARK    7  A    between atoms: O_14  and  C_15
REMARK    8  A    between atoms: C_16  and  O_17
REMARK    9  A    between atoms: O_17  and  C_18
REMARK   10  A    between atoms: C_20  and  O_21
REMARK   11  A    between atoms: O_21  and  C_22
REMARK   12  A    between atoms: C_23  and  C_24
REMARK   13  A    between atoms: C_24  and  O_26
REMARK   14  A    between atoms: O_26  and  C_27
REMARK   15  A    between atoms: C_43  and  O_44
REMARK   16  A    between atoms: O_44  and  C_45
REMARK                            x       y       z     vdW  Elec       q    Type
REMARK                         _______ _______ _______ _____ _____    ______ ____
ROOT
ATOM      1  C   UNL     1      -7.907   2.406 128.708  0.00  0.00    +0.000 C 
ATOM      2  C   UNL     1      -7.939   1.464 129.847  0.00  0.00    +0.000 C 
ATOM      3  C   UNL     1      -7.444  -0.175 129.414  0.00  0.00    +0.000 C 
ATOM      4  C   UNL     1      -6.477   0.190 130.393  0.00  0.00    +0.000 C 
ATOM      5  C   UNL     1      -5.748   1.342 128.809  0.00  0.00    +0.000 C 
ATOM      6  C   UNL     1      -6.472   2.611 128.390  0.00  0.00    +0.000 C 
ATOM      7  C   UNL     1      -6.477   3.026 126.850  0.00  0.00    +0.000 C 
ATOM      8  C   UNL     1      -7.292   2.085 125.919  0.00  0.00    +0.000 C 
ATOM      9  N   UNL     1      -8.625   1.814 126.364  0.00  0.00    +0.000 NA
ATOM     10  C   UNL     1      -9.288   0.788 125.533  0.00  0.00    +0.000 C 
ATOM     11  C   UNL     1      -9.644   1.616 124.295  0.00  0.00    +0.000 C 
ATOM     12  C   UNL     1      -8.421   2.289 123.740  0.00  0.00    +0.000 A 
ATOM     13  C   UNL     1      -7.326   2.531 124.526  0.00  0.00    +0.000 A 
ATOM     14  N   UNL     1      -6.309   3.030 123.772  0.00  0.00    +0.000 N 
ATOM     15  C   UNL     1      -6.819   3.326 122.535  0.00  0.00    +0.000 A 
ATOM     16  C   UNL     1      -8.146   2.890 122.516  0.00  0.00    +0.000 A 
ATOM     17  C   UNL     1      -8.941   3.118 121.404  0.00  0.00    +0.000 A 
ATOM     18  C   UNL     1      -8.373   3.789 120.329  0.00  0.00    +0.000 A 
ATOM     19  C   UNL     1      -7.034   4.202 120.345  0.00  0.00    +0.000 A 
ATOM     20  C   UNL     1      -6.220   3.962 121.454  0.00  0.00    +0.000 A 
ATOM     21  C   UNL     1      -8.850   1.714 127.745  0.00  0.00    +0.000 C 
ATOM     22  H   UNL     1      -5.346   3.179 124.059  0.00  0.00    +0.000 HD
ENDROOT
BRANCH   4  23
ATOM     23  O   UNL     1      -7.219   0.253 131.823  0.00  0.00    +0.000 OA
ATOM     24  C   UNL     1      -6.705   0.472 133.201  0.00  0.00    +0.000 C 
ENDBRANCH   4  23
BRANCH   5  25
ATOM     25  C   UNL     1      -5.056   1.170 126.958  0.00  0.00    +0.000 C 
ATOM     26  O   UNL     1      -5.323   0.263 126.075  0.00  0.00    +0.000 OA
BRANCH  25  27
ATOM     27  O   UNL     1      -4.241   1.966 126.121  0.00  0.00    +0.000 OA
ATOM     28  C   UNL     1      -3.077   2.685 126.644  0.00  0.00    +0.000 C 
ENDBRANCH  25  27
ENDBRANCH   5  25
BRANCH  19  29
ATOM     29  O   UNL     1      -6.618   4.848 119.210  0.00  0.00    +0.000 OA
ATOM     30  C   UNL     1      -5.403   5.579 119.326  0.00  0.00    +0.000 C 
ENDBRANCH  19  29
BRANCH   3  31
ATOM     31  O   UNL     1      -6.131  -1.081 129.133  0.00  0.00    +0.000 OA
BRANCH  31  32
ATOM     32  C   UNL     1      -6.412  -2.368 128.972  0.00  0.00    +0.000 C 
ATOM     33  O   UNL     1      -6.838  -2.245 127.823  0.00  0.00    +0.000 OA
BRANCH  32  34
ATOM     34  C   UNL     1      -5.443  -3.714 129.984  0.00  0.00    +0.000 A 
ATOM     35  C   UNL     1      -5.774  -4.926 131.167  0.00  0.00    +0.000 A 
ATOM     36  C   UNL     1      -5.174  -4.954 132.494  0.00  0.00    +0.000 A 
ATOM     37  C   UNL     1      -4.129  -4.046 132.600  0.00  0.00    +0.000 A 
ATOM     38  C   UNL     1      -3.808  -3.104 131.538  0.00  0.00    +0.000 A 
ATOM     39  C   UNL     1      -4.451  -2.939 130.330  0.00  0.00    +0.000 A 
BRANCH  36  40
ATOM     40  O   UNL     1      -5.817  -5.545 133.614  0.00  0.00    +0.000 OA
ATOM     41  C   UNL     1      -6.751  -4.692 134.339  0.00  0.00    +0.000 C 
ENDBRANCH  36  40
BRANCH  37  42
ATOM     42  O   UNL     1      -3.456  -4.047 133.790  0.00  0.00    +0.000 OA
ATOM     43  C   UNL     1      -2.475  -5.044 133.914  0.00  0.00    +0.000 C 
ENDBRANCH  37  42
BRANCH  38  44
ATOM     44  O   UNL     1      -2.821  -2.163 131.720  0.00  0.00    +0.000 OA
ATOM     45  C   UNL     1      -3.268  -0.923 132.263  0.00  0.00    +0.000 C 
ENDBRANCH  38  44
ENDBRANCH  32  34
ENDBRANCH  31  32
ENDBRANCH   3  31
TORSDOF 10
ENDMDL
MODEL 6
REMARK VINA RESULT:      -8.6      2.038      2.840
REMARK  Name = Reserpine
REMARK  16 active torsions:
REMARK  status: ('A' for Active; 'I' for Inactive)
REMARK    1  A    between atoms: C_4  and  O_5
REMARK    2  A    between atoms: O_5  and  C_6
REMARK    3  A    between atoms: C_6  and  C_8
REMARK    4  A    between atoms: C_10  and  O_11
REMARK    5  A    between atoms: O_11  and  C_12
REMARK    6  A    between atoms: C_13  and  O_14
REMARK    7  A    between atoms: O_14  and  C_15
REMARK    8  A    between atoms: C_16  and  O_17
REMARK    9  A    between atoms: O_17  and  C_18
REMARK   10  A    between atoms: C_20  and  O_21
REMARK   11  A    between atoms: O_21  and  C_22
REMARK   12  A    between atoms: C_23  and  C_24
REMARK   13  A    between atoms: C_24  and  O_26
REMARK   14  A    between atoms: O_26  and  C_27
REMARK   15  A    between atoms: C_43  and  O_44
REMARK   16  A    between atoms: O_44  and  C_45
REMARK                            x       y       z     vdW  Elec       q    Type
REMARK                         _______ _______ _______ _____ _____    ______ ____
ROOT
ATOM      1  C   UNL     1      -3.145   5.300 128.049  0.00  0.00    +0.000 C 
ATOM      2  C   UNL     1      -3.274   6.430 128.993  0.00  0.00    +0.000 C 
ATOM      3  C   UNL     1      -4.695   6.314 130.035  0.00  0.00    +0.000 C 
ATOM      4  C   UNL     1      -3.623   6.309 130.973  0.00  0.00    +0.000 C 
ATOM      5  C   UNL     1      -3.399   4.359 130.253  0.00  0.00    +0.000 C 
ATOM      6  C   UNL     1      -2.801   4.117 128.876  0.00  0.00    +0.000 C 
ATOM      7  C   UNL     1      -3.322   2.882 128.014  0.00  0.00    +0.000 C 
ATOM      8  C   UNL     1      -4.787   3.004 127.510  0.00  0.00    +0.000 C 
ATOM      9  N   UNL     1      -5.088   4.235 126.846  0.00  0.00    +0.000 NA
ATOM     10  C   UNL     1      -6.529   4.362 126.541  0.00  0.00    +0.000 C 
ATOM     11  C   UNL     1      -6.642   3.435 125.327  0.00  0.00    +0.000 C 
ATOM     12  C   UNL     1      -6.109   2.069 125.653  0.00  0.00    +0.000 A 
ATOM     13  C   UNL     1      -5.210   1.883 126.670  0.00  0.00    +0.000 A 
ATOM     14  N   UNL     1      -4.976   0.554 126.852  0.00  0.00    +0.000 N 
ATOM     15  C   UNL     1      -5.550  -0.113 125.801  0.00  0.00    +0.000 A 
ATOM     16  C   UNL     1      -6.238   0.831 125.034  0.00  0.00    +0.000 A 
ATOM     17  C   UNL     1      -6.868   0.451 123.859  0.00  0.00    +0.000 A 
ATOM     18  C   UNL     1      -6.786  -0.883 123.482  0.00  0.00    +0.000 A 
ATOM     19  C   UNL     1      -6.116  -1.829 124.269  0.00  0.00    +0.000 A 
ATOM     20  C   UNL     1      -5.492  -1.461 125.463  0.00  0.00    +0.000 A 
ATOM     21  C   UNL     1      -4.462   5.402 127.307  0.00  0.00    +0.000 C 
ATOM     22  H   UNL     1      -4.460   0.118 127.610  0.00  0.00    +0.000 HD
ENDROOT
BRANCH   4  23
ATOM     23  O   UNL     1      -2.968   7.781 130.985  0.00  0.00    +0.000 OA
ATOM     24  C   UNL     1      -2.594   8.695 132.098  0.00  0.00    +0.000 C 
ENDBRANCH   4  23
BRANCH   5  25
ATOM     25  C   UNL     1      -4.386   2.647 130.084  0.00  0.00    +0.000 C 
ATOM     26  O   UNL     1      -5.663   2.451 130.022  0.00  0.00    +0.000 OA
BRANCH  25  27
ATOM     27  O   UNL     1      -4.013   1.297 129.894  0.00  0.00    +0.000 OA
ATOM     28  C   UNL     1      -4.796   0.198 130.465  0.00  0.00    +0.000 C 
ENDBRANCH  25  27
ENDBRANCH   5  25
BRANCH  19  29
ATOM     29  O   UNL     1      -6.124  -3.105 123.768  0.00  0.00    +0.000 OA
ATOM     30  C   UNL     1      -4.871  -3.779 123.772  0.00  0.00    +0.000 C 
ENDBRANCH  19  29
BRANCH   3  31
ATOM     31  O   UNL     1      -5.244   5.574 131.367  0.00  0.00    +0.000 OA
BRANCH  31  32
ATOM     32  C   UNL     1      -6.560   5.670 131.511  0.00  0.00    +0.000 C 
ATOM     33  O   UNL     1      -6.738   6.310 130.474  0.00  0.00    +0.000 OA
BRANCH  32  34
ATOM     34  C   UNL     1      -7.533   4.334 132.533  0.00  0.00    +0.000 A 
ATOM     35  C   UNL     1      -7.189   2.970 133.531  0.00  0.00    +0.000 A 
ATOM     36  C   UNL     1      -7.646   1.617 133.246  0.00  0.00    +0.000 A 
ATOM     37  C   UNL     1      -8.589   1.601 132.227  0.00  0.00    +0.000 A 
ATOM     38  C   UNL     1      -8.935   2.795 131.471  0.00  0.00    +0.000 A 
ATOM     39  C   UNL     1      -8.410   4.063 131.604  0.00  0.00    +0.000 A 
BRANCH  36  40
ATOM     40  O   UNL     1      -6.944   0.462 133.684  0.00  0.00    +0.000 OA
ATOM     41  C   UNL     1      -5.566   0.674 134.108  0.00  0.00    +0.000 C 
ENDBRANCH  36  40
BRANCH  37  42
ATOM     42  O   UNL     1      -9.131   0.380 131.934  0.00  0.00    +0.000 OA
ATOM     43  C   UNL     1      -8.451  -0.347 130.945  0.00  0.00    +0.000 C 
ENDBRANCH  37  42
BRANCH  38  44
ATOM     44  O   UNL     1      -9.809   2.717 130.411  0.00  0.00    +0.000 OA
ATOM     45  C   UNL     1     -10.838   3.703 130.409  0.00  0.00    +0.000 C 
ENDBRANCH  38  44
ENDBRANCH  32  34
ENDBRANCH  31  32
ENDBRANCH   3  31
TORSDOF 10
ENDMDL
MODEL 7
REMARK VINA RESULT:      -8.5      3.308      6.837
REMARK  Name = Reserpine
REMARK  16 active torsions:
REMARK  status: ('A' for Active; 'I' for Inactive)
REMARK    1  A    between atoms: C_4  and  O_5
REMARK    2  A    between atoms: O_5  and  C_6
REMARK    3  A    between atoms: C_6  and  C_8
REMARK    4  A    between atoms: C_10  and  O_11
REMARK    5  A    between atoms: O_11  and  C_12
REMARK    6  A    between atoms: C_13  and  O_14
REMARK    7  A    between atoms: O_14  and  C_15
REMARK    8  A    between atoms: C_16  and  O_17
REMARK    9  A    between atoms: O_17  and  C_18
REMARK   10  A    between atoms: C_20  and  O_21
REMARK   11  A    between atoms: O_21  and  C_22
REMARK   12  A    between atoms: C_23  and  C_24
REMARK   13  A    between atoms: C_24  and  O_26
REMARK   14  A    between atoms: O_26  and  C_27
REMARK   15  A    between atoms: C_43  and  O_44
REMARK   16  A    between atoms: O_44  and  C_45
REMARK                            x       y       z     vdW  Elec       q    Type
REMARK                         _______ _______ _______ _____ _____    ______ ____
ROOT
ATOM      1  C   UNL     1      -6.849   4.052 128.675  0.00  0.00    +0.000 C 
ATOM      2  C   UNL     1      -6.773   3.337 129.967  0.00  0.00    +0.000 C 
ATOM      3  C   UNL     1      -6.285   1.648 129.805  0.00  0.00    +0.000 C 
ATOM      4  C   UNL     1      -5.250   2.191 130.619  0.00  0.00    +0.000 C 
ATOM      5  C   UNL     1      -4.669   3.032 128.795  0.00  0.00    +0.000 C 
ATOM      6  C   UNL     1      -5.447   4.199 128.209  0.00  0.00    +0.000 C 
ATOM      7  C   UNL     1      -5.581   4.321 126.626  0.00  0.00    +0.000 C 
ATOM      8  C   UNL     1      -6.450   3.222 125.953  0.00  0.00    +0.000 C 
ATOM      9  N   UNL     1      -7.738   3.034 126.547  0.00  0.00    +0.000 NA
ATOM     10  C   UNL     1      -8.446   1.869 125.975  0.00  0.00    +0.000 C 
ATOM     11  C   UNL     1      -8.914   2.453 124.639  0.00  0.00    +0.000 C 
ATOM     12  C   UNL     1      -7.751   3.015 123.872  0.00  0.00    +0.000 A 
ATOM     13  C   UNL     1      -6.602   3.402 124.509  0.00  0.00    +0.000 A 
ATOM     14  N   UNL     1      -5.656   3.756 123.596  0.00  0.00    +0.000 N 
ATOM     15  C   UNL     1      -6.268   3.816 122.371  0.00  0.00    +0.000 A 
ATOM     16  C   UNL     1      -7.584   3.380 122.540  0.00  0.00    +0.000 A 
ATOM     17  C   UNL     1      -8.469   3.396 121.473  0.00  0.00    +0.000 A 
ATOM     18  C   UNL     1      -7.999   3.858 120.250  0.00  0.00    +0.000 A 
ATOM     19  C   UNL     1      -6.671   4.270 120.082  0.00  0.00    +0.000 A 
ATOM     20  C   UNL     1      -5.767   4.243 121.146  0.00  0.00    +0.000 A 
ATOM     21  C   UNL     1      -7.852   3.191 127.935  0.00  0.00    +0.000 C 
ATOM     22  H   UNL     1      -4.676   3.958 123.771  0.00  0.00    +0.000 HD
ENDROOT
BRANCH   4  23
ATOM     23  O   UNL     1      -5.878   2.516 132.067  0.00  0.00    +0.000 OA
ATOM     24  C   UNL     1      -6.780   1.738 132.957  0.00  0.00    +0.000 C 
ENDBRANCH   4  23
BRANCH   5  25
ATOM     25  C   UNL     1      -4.122   2.522 126.958  0.00  0.00    +0.000 C 
ATOM     26  O   UNL     1      -4.541   1.536 126.233  0.00  0.00    +0.000 OA
BRANCH  25  27
ATOM     27  O   UNL     1      -3.285   3.093 125.973  0.00  0.00    +0.000 OA
ATOM     28  C   UNL     1      -1.877   3.393 126.244  0.00  0.00    +0.000 C 
ENDBRANCH  25  27
ENDBRANCH   5  25
BRANCH  19  29
ATOM     29  O   UNL     1      -6.357   4.697 118.817  0.00  0.00    +0.000 OA
ATOM     30  C   UNL     1      -5.837   6.018 118.722  0.00  0.00    +0.000 C 
ENDBRANCH  19  29
BRANCH   3  31
ATOM     31  O   UNL     1      -4.982   0.710 129.591  0.00  0.00    +0.000 OA
BRANCH  31  32
ATOM     32  C   UNL     1      -5.271  -0.586 129.568  0.00  0.00    +0.000 C 
ATOM     33  O   UNL     1      -5.784  -0.603 130.688  0.00  0.00    +0.000 OA
BRANCH  32  34
ATOM     34  C   UNL     1      -5.540  -1.499 127.875  0.00  0.00    +0.000 A 
ATOM     35  C   UNL     1      -5.535  -1.125 126.191  0.00  0.00    +0.000 A 
ATOM     36  C   UNL     1      -6.684  -1.306 125.313  0.00  0.00    +0.000 A 
ATOM     37  C   UNL     1      -7.686  -2.043 125.930  0.00  0.00    +0.000 A 
ATOM     38  C   UNL     1      -7.611  -2.435 127.330  0.00  0.00    +0.000 A 
ATOM     39  C   UNL     1      -6.614  -2.147 128.237  0.00  0.00    +0.000 A 
BRANCH  36  40
ATOM     40  O   UNL     1      -6.892  -0.519 124.149  0.00  0.00    +0.000 OA
ATOM     41  C   UNL     1      -6.558  -1.153 122.880  0.00  0.00    +0.000 C 
ENDBRANCH  36  40
BRANCH  37  42
ATOM     42  O   UNL     1      -8.779  -2.326 125.159  0.00  0.00    +0.000 OA
ATOM     43  C   UNL     1      -8.736  -3.568 124.506  0.00  0.00    +0.000 C 
ENDBRANCH  37  42
BRANCH  38  44
ATOM     44  O   UNL     1      -8.666  -3.088 127.925  0.00  0.00    +0.000 OA
ATOM     45  C   UNL     1      -8.418  -3.543 129.252  0.00  0.00    +0.000 C 
ENDBRANCH  38  44
ENDBRANCH  32  34
ENDBRANCH  31  32
ENDBRANCH   3  31
TORSDOF 10
ENDMDL
MODEL 8
REMARK VINA RESULT:      -8.4      2.829      5.103
REMARK  Name = Reserpine
REMARK  16 active torsions:
REMARK  status: ('A' for Active; 'I' for Inactive)
REMARK    1  A    between atoms: C_4  and  O_5
REMARK    2  A    between atoms: O_5  and  C_6
REMARK    3  A    between atoms: C_6  and  C_8
REMARK    4  A    between atoms: C_10  and  O_11
REMARK    5  A    between atoms: O_11  and  C_12
REMARK    6  A    between atoms: C_13  and  O_14
REMARK    7  A    between atoms: O_14  and  C_15
REMARK    8  A    between atoms: C_16  and  O_17
REMARK    9  A    between atoms: O_17  and  C_18
REMARK   10  A    between atoms: C_20  and  O_21
REMARK   11  A    between atoms: O_21  and  C_22
REMARK   12  A    between atoms: C_23  and  C_24
REMARK   13  A    between atoms: C_24  and  O_26
REMARK   14  A    between atoms: O_26  and  C_27
REMARK   15  A    between atoms: C_43  and  O_44
REMARK   16  A    between atoms: O_44  and  C_45
REMARK                            x       y       z     vdW  Elec       q    Type
REMARK                         _______ _______ _______ _____ _____    ______ ____
ROOT
ATOM      1  C   UNL     1      -5.406  -0.096 128.009  0.00  0.00    +0.000 C 
ATOM      2  C   UNL     1      -5.589  -0.246 129.469  0.00  0.00    +0.000 C 
ATOM      3  C   UNL     1      -6.570   1.035 130.187  0.00  0.00    +0.000 C 
ATOM      4  C   UNL     1      -7.327  -0.135 130.480  0.00  0.00    +0.000 C 
ATOM      5  C   UNL     1      -7.774   0.007 128.443  0.00  0.00    +0.000 C 
ATOM      6  C   UNL     1      -6.732  -0.374 127.403  0.00  0.00    +0.000 C 
ATOM      7  C   UNL     1      -6.694   0.419 126.021  0.00  0.00    +0.000 C 
ATOM      8  C   UNL     1      -6.249   1.904 126.127  0.00  0.00    +0.000 C 
ATOM      9  N   UNL     1      -5.033   2.112 126.851  0.00  0.00    +0.000 NA
ATOM     10  C   UNL     1      -4.752   3.548 127.062  0.00  0.00    +0.000 C 
ATOM     11  C   UNL     1      -4.239   3.940 125.673  0.00  0.00    +0.000 C 
ATOM     12  C   UNL     1      -5.239   3.566 124.615  0.00  0.00    +0.000 A 
ATOM     13  C   UNL     1      -6.166   2.581 124.832  0.00  0.00    +0.000 A 
ATOM     14  N   UNL     1      -7.032   2.514 123.784  0.00  0.00    +0.000 N 
ATOM     15  C   UNL     1      -6.530   3.302 122.783  0.00  0.00    +0.000 A 
ATOM     16  C   UNL     1      -5.394   3.943 123.286  0.00  0.00    +0.000 A 
ATOM     17  C   UNL     1      -4.633   4.762 122.466  0.00  0.00    +0.000 A 
ATOM     18  C   UNL     1      -5.039   4.915 121.147  0.00  0.00    +0.000 A 
ATOM     19  C   UNL     1      -6.192   4.290 120.656  0.00  0.00    +0.000 A 
ATOM     20  C   UNL     1      -6.976   3.475 121.477  0.00  0.00    +0.000 A 
ATOM     21  C   UNL     1      -4.767   1.276 127.945  0.00  0.00    +0.000 C 
ATOM     22  H   UNL     1      -7.890   1.972 123.729  0.00  0.00    +0.000 HD
ENDROOT
BRANCH   4  23
ATOM     23  O   UNL     1      -6.518  -0.985 131.585  0.00  0.00    +0.000 OA
ATOM     24  C   UNL     1      -6.685  -2.374 132.089  0.00  0.00    +0.000 C 
ENDBRANCH   4  23
BRANCH   5  25
ATOM     25  C   UNL     1      -8.592   1.237 127.118  0.00  0.00    +0.000 C 
ATOM     26  O   UNL     1      -8.756   2.518 127.196  0.00  0.00    +0.000 OA
BRANCH  25  27
ATOM     27  O   UNL     1      -9.081   1.098 125.800  0.00  0.00    +0.000 OA
ATOM     28  C   UNL     1     -10.260   0.281 125.502  0.00  0.00    +0.000 C 
ENDBRANCH  25  27
ENDBRANCH   5  25
BRANCH  19  29
ATOM     29  O   UNL     1      -6.464   4.538 119.336  0.00  0.00    +0.000 OA
ATOM     30  C   UNL     1      -7.826   4.400 118.949  0.00  0.00    +0.000 C 
ENDBRANCH  19  29
BRANCH   3  31
ATOM     31  O   UNL     1      -8.106   1.510 130.381  0.00  0.00    +0.000 OA
BRANCH  31  32
ATOM     32  C   UNL     1      -8.214   2.767 130.796  0.00  0.00    +0.000 C 
ATOM     33  O   UNL     1      -7.113   3.118 130.370  0.00  0.00    +0.000 OA
BRANCH  32  34
ATOM     34  C   UNL     1      -9.966   3.574 131.024  0.00  0.00    +0.000 A 
ATOM     35  C   UNL     1     -11.266   4.139 130.040  0.00  0.00    +0.000 A 
ATOM     36  C   UNL     1     -11.752   5.513 130.042  0.00  0.00    +0.000 A 
ATOM     37  C   UNL     1     -11.220   6.240 131.099  0.00  0.00    +0.000 A 
ATOM     38  C   UNL     1     -10.196   5.695 131.979  0.00  0.00    +0.000 A 
ATOM     39  C   UNL     1      -9.596   4.456 131.914  0.00  0.00    +0.000 A 
BRANCH  36  40
ATOM     40  O   UNL     1     -12.370   6.110 128.911  0.00  0.00    +0.000 OA
ATOM     41  C   UNL     1     -11.508   6.931 128.071  0.00  0.00    +0.000 C 
ENDBRANCH  36  40
BRANCH  37  42
ATOM     42  O   UNL     1     -11.672   7.524 131.228  0.00  0.00    +0.000 OA
ATOM     43  C   UNL     1     -13.013   7.642 131.624  0.00  0.00    +0.000 C 
ENDBRANCH  37  42
BRANCH  38  44
ATOM     44  O   UNL     1      -9.635   6.480 132.959  0.00  0.00    +0.000 OA
ATOM     45  C   UNL     1      -8.543   5.882 133.654  0.00  0.00    +0.000 C 
ENDBRANCH  38  44
ENDBRANCH  32  34
ENDBRANCH  31  32
ENDBRANCH   3  31
TORSDOF 10
ENDMDL
MODEL 9
REMARK VINA RESULT:      -8.3      2.822      7.895
REMARK  Name = Reserpine
REMARK  16 active torsions:
REMARK  status: ('A' for Active; 'I' for Inactive)
REMARK    1  A    between atoms: C_4  and  O_5
REMARK    2  A    between atoms: O_5  and  C_6
REMARK    3  A    between atoms: C_6  and  C_8
REMARK    4  A    between atoms: C_10  and  O_11
REMARK    5  A    between atoms: O_11  and  C_12
REMARK    6  A    between atoms: C_13  and  O_14
REMARK    7  A    between atoms: O_14  and  C_15
REMARK    8  A    between atoms: C_16  and  O_17
REMARK    9  A    between atoms: O_17  and  C_18
REMARK   10  A    between atoms: C_20  and  O_21
REMARK   11  A    between atoms: O_21  and  C_22
REMARK   12  A    between atoms: C_23  and  C_24
REMARK   13  A    between atoms: C_24  and  O_26
REMARK   14  A    between atoms: O_26  and  C_27
REMARK   15  A    between atoms: C_43  and  O_44
REMARK   16  A    between atoms: O_44  and  C_45
REMARK                            x       y       z     vdW  Elec       q    Type
REMARK                         _______ _______ _______ _____ _____    ______ ____
ROOT
ATOM      1  C   UNL     1      -6.116   2.478 131.834  0.00  0.00    +0.000 C 
ATOM      2  C   UNL     1      -5.432   1.173 131.709  0.00  0.00    +0.000 C 
ATOM      3  C   UNL     1      -5.863   0.295 130.238  0.00  0.00    +0.000 C 
ATOM      4  C   UNL     1      -4.459   0.478 130.088  0.00  0.00    +0.000 C 
ATOM      5  C   UNL     1      -5.060   2.435 129.669  0.00  0.00    +0.000 C 
ATOM      6  C   UNL     1      -5.521   3.351 130.792  0.00  0.00    +0.000 C 
ATOM      7  C   UNL     1      -6.661   4.424 130.495  0.00  0.00    +0.000 C 
ATOM      8  C   UNL     1      -8.068   3.828 130.215  0.00  0.00    +0.000 C 
ATOM      9  N   UNL     1      -8.519   2.882 131.189  0.00  0.00    +0.000 NA
ATOM     10  C   UNL     1      -9.781   2.228 130.783  0.00  0.00    +0.000 C 
ATOM     11  C   UNL     1     -10.786   3.342 131.091  0.00  0.00    +0.000 C 
ATOM     12  C   UNL     1     -10.396   4.614 130.393  0.00  0.00    +0.000 A 
ATOM     13  C   UNL     1      -9.102   4.844 130.009  0.00  0.00    +0.000 A 
ATOM     14  N   UNL     1      -9.023   5.997 129.290  0.00  0.00    +0.000 N 
ATOM     15  C   UNL     1     -10.231   6.634 129.401  0.00  0.00    +0.000 A 
ATOM     16  C   UNL     1     -11.086   5.787 130.111  0.00  0.00    +0.000 A 
ATOM     17  C   UNL     1     -12.369   6.201 130.434  0.00  0.00    +0.000 A 
ATOM     18  C   UNL     1     -12.761   7.471 130.031  0.00  0.00    +0.000 A 
ATOM     19  C   UNL     1     -11.907   8.305 129.297  0.00  0.00    +0.000 A 
ATOM     20  C   UNL     1     -10.618   7.892 128.952  0.00  0.00    +0.000 A 
ATOM     21  C   UNL     1      -7.566   2.042 131.782  0.00  0.00    +0.000 C 
ATOM     22  H   UNL     1      -8.222   6.347 128.773  0.00  0.00    +0.000 HD
ENDROOT
BRANCH   4  23
ATOM     23  O   UNL     1      -3.719  -0.459 131.172  0.00  0.00    +0.000 OA
ATOM     24  C   UNL     1      -3.543  -1.933 131.257  0.00  0.00    +0.000 C 
ENDBRANCH   4  23
BRANCH   5  25
ATOM     25  C   UNL     1      -6.189   3.473 128.410  0.00  0.00    +0.000 C 
ATOM     26  O   UNL     1      -6.053   4.700 128.024  0.00  0.00    +0.000 OA
BRANCH  25  27
ATOM     27  O   UNL     1      -7.287   3.168 127.574  0.00  0.00    +0.000 OA
ATOM     28  C   UNL     1      -7.702   4.069 126.495  0.00  0.00    +0.000 C 
ENDBRANCH  25  27
ENDBRANCH   5  25
BRANCH  19  29
ATOM     29  O   UNL     1     -12.437   9.526 128.970  0.00  0.00    +0.000 OA
ATOM     30  C   UNL     1     -13.178  10.174 129.997  0.00  0.00    +0.000 C 
ENDBRANCH  19  29
BRANCH   3  31
ATOM     31  O   UNL     1      -5.551   0.234 128.650  0.00  0.00    +0.000 OA
BRANCH  31  32
ATOM     32  C   UNL     1      -6.553  -0.274 127.943  0.00  0.00    +0.000 C 
ATOM     33  O   UNL     1      -7.391  -0.158 128.838  0.00  0.00    +0.000 OA
BRANCH  32  34
ATOM     34  C   UNL     1      -6.534  -0.167 126.003  0.00  0.00    +0.000 A 
ATOM     35  C   UNL     1      -6.423   1.042 124.777  0.00  0.00    +0.000 A 
ATOM     36  C   UNL     1      -7.448   1.275 123.768  0.00  0.00    +0.000 A 
ATOM     37  C   UNL     1      -8.392   0.257 123.756  0.00  0.00    +0.000 A 
ATOM     38  C   UNL     1      -8.395  -0.811 124.745  0.00  0.00    +0.000 A 
ATOM     39  C   UNL     1      -7.537  -0.981 125.810  0.00  0.00    +0.000 A 
BRANCH  36  40
ATOM     40  O   UNL     1      -7.654   2.543 123.162  0.00  0.00    +0.000 OA
ATOM     41  C   UNL     1      -6.564   3.038 122.329  0.00  0.00    +0.000 C 
ENDBRANCH  36  40
BRANCH  37  42
ATOM     42  O   UNL     1      -9.358   0.350 122.793  0.00  0.00    +0.000 OA
ATOM     43  C   UNL     1     -10.480   1.113 123.153  0.00  0.00    +0.000 C 
ENDBRANCH  37  42
BRANCH  38  44
ATOM     44  O   UNL     1      -9.400  -1.751 124.748  0.00  0.00    +0.000 OA
ATOM     45  C   UNL     1      -9.383  -2.643 125.859  0.00  0.00    +0.000 C 
ENDBRANCH  38  44
ENDBRANCH  32  34
ENDBRANCH  31  32
ENDBRANCH   3  31
TORSDOF 10
ENDMDL
