MODEL 1
REMARK VINA RESULT:      -5.5      0.000      0.000
REMARK  Name = Resorcinol monoacetate
REMARK  4 active torsions:
REMARK  status: ('A' for Active; 'I' for Inactive)
REMARK    1  A    between atoms: C_1  and  C_2
REMARK    2  A    between atoms: C_2  and  O_4
REMARK    3  A    between atoms: O_4  and  C_5
REMARK    4  A    between atoms: C_7  and  O_8
REMARK                            x       y       z     vdW  Elec       q    Type
REMARK                         _______ _______ _______ _____ _____    ______ ____
ROOT
ATOM      1  C   UNL     1     -11.131   7.813 129.146  0.00  0.00    +0.000 A 
ATOM      2  C   UNL     1     -11.044   6.804 130.110  0.00  0.00    +0.000 A 
ATOM      3  C   UNL     1     -11.904   6.855 131.207  0.00  0.00    +0.000 A 
ATOM      4  C   UNL     1     -12.814   7.898 131.355  0.00  0.00    +0.000 A 
ATOM      5  C   UNL     1     -12.912   8.876 130.373  0.00  0.00    +0.000 A 
ATOM      6  C   UNL     1     -12.105   8.801 129.245  0.00  0.00    +0.000 A 
ENDROOT
BRANCH   3   7
ATOM      7  O   UNL     1     -11.907   5.896 132.177  0.00  0.00    +0.000 OA
ATOM      8  H   UNL     1     -11.172   5.281 132.024  0.00  0.00    +0.000 HD
ENDBRANCH   3   7
BRANCH   1   9
ATOM      9  O   UNL     1     -10.268   7.712 128.025  0.00  0.00    +0.000 OA
BRANCH   9  11
ATOM     10  C   UNL     1     -11.842   7.254 126.167  0.00  0.00    +0.000 C 
ATOM     11  C   UNL     1     -10.510   7.027 126.833  0.00  0.00    +0.000 C 
ATOM     12  O   UNL     1      -9.623   6.359 126.304  0.00  0.00    +0.000 OA
ENDBRANCH   9  11
ENDBRANCH   1   9
TORSDOF 3
ENDMDL
MODEL 2
REMARK VINA RESULT:      -5.5      2.727      4.211
REMARK  Name = Resorcinol monoacetate
REMARK  4 active torsions:
REMARK  status: ('A' for Active; 'I' for Inactive)
REMARK    1  A    between atoms: C_1  and  C_2
REMARK    2  A    between atoms: C_2  and  O_4
REMARK    3  A    between atoms: O_4  and  C_5
REMARK    4  A    between atoms: C_7  and  O_8
REMARK                            x       y       z     vdW  Elec       q    Type
REMARK                         _______ _______ _______ _____ _____    ______ ____
ROOT
ATOM      1  C   UNL     1     -12.812   7.354 130.228  0.00  0.00    +0.000 A 
ATOM      2  C   UNL     1     -12.753   8.746 130.353  0.00  0.00    +0.000 A 
ATOM      3  C   UNL     1     -13.120   9.528 129.258  0.00  0.00    +0.000 A 
ATOM      4  C   UNL     1     -13.514   8.942 128.059  0.00  0.00    +0.000 A 
ATOM      5  C   UNL     1     -13.599   7.559 127.959  0.00  0.00    +0.000 A 
ATOM      6  C   UNL     1     -13.297   6.770 129.062  0.00  0.00    +0.000 A 
ENDROOT
BRANCH   3   7
ATOM      7  O   UNL     1     -13.121  10.892 129.304  0.00  0.00    +0.000 OA
ATOM      8  H   UNL     1     -12.993  11.244 128.408  0.00  0.00    +0.000 HD
ENDBRANCH   3   7
BRANCH   1   9
ATOM      9  O   UNL     1     -12.468   6.588 131.370  0.00  0.00    +0.000 OA
BRANCH   9  11
ATOM     10  C   UNL     1     -10.634   5.030 130.780  0.00  0.00    +0.000 C 
ATOM     11  C   UNL     1     -11.211   6.078 131.696  0.00  0.00    +0.000 C 
ATOM     12  O   UNL     1     -10.564   6.553 132.630  0.00  0.00    +0.000 OA
ENDBRANCH   9  11
ENDBRANCH   1   9
TORSDOF 3
ENDMDL
MODEL 3
REMARK VINA RESULT:      -5.4      1.991      3.720
REMARK  Name = Resorcinol monoacetate
REMARK  4 active torsions:
REMARK  status: ('A' for Active; 'I' for Inactive)
REMARK    1  A    between atoms: C_1  and  C_2
REMARK    2  A    between atoms: C_2  and  O_4
REMARK    3  A    between atoms: O_4  and  C_5
REMARK    4  A    between atoms: C_7  and  O_8
REMARK                            x       y       z     vdW  Elec       q    Type
REMARK                         _______ _______ _______ _____ _____    ______ ____
ROOT
ATOM      1  C   UNL     1     -10.758   7.865 128.967  0.00  0.00    +0.000 A 
ATOM      2  C   UNL     1     -10.871   7.253 127.715  0.00  0.00    +0.000 A 
ATOM      3  C   UNL     1     -12.133   7.172 127.125  0.00  0.00    +0.000 A 
ATOM      4  C   UNL     1     -13.260   7.667 127.776  0.00  0.00    +0.000 A 
ATOM      5  C   UNL     1     -13.127   8.301 129.005  0.00  0.00    +0.000 A 
ATOM      6  C   UNL     1     -11.868   8.445 129.573  0.00  0.00    +0.000 A 
ENDROOT
BRANCH   3   7
ATOM      7  O   UNL     1     -12.328   6.619 125.894  0.00  0.00    +0.000 OA
ATOM      8  H   UNL     1     -13.251   6.754 125.623  0.00  0.00    +0.000 HD
ENDBRANCH   3   7
BRANCH   1   9
ATOM      9  O   UNL     1      -9.457   7.964 129.522  0.00  0.00    +0.000 OA
BRANCH   9  11
ATOM     10  C   UNL     1      -9.843   6.327 131.341  0.00  0.00    +0.000 C 
ATOM     11  C   UNL     1      -8.896   7.150 130.508  0.00  0.00    +0.000 C 
ATOM     12  O   UNL     1      -7.674   7.034 130.605  0.00  0.00    +0.000 OA
ENDBRANCH   9  11
ENDBRANCH   1   9
TORSDOF 3
ENDMDL
MODEL 4
REMARK VINA RESULT:      -5.4      8.057     10.422
REMARK  Name = Resorcinol monoacetate
REMARK  4 active torsions:
REMARK  status: ('A' for Active; 'I' for Inactive)
REMARK    1  A    between atoms: C_1  and  C_2
REMARK    2  A    between atoms: C_2  and  O_4
REMARK    3  A    between atoms: O_4  and  C_5
REMARK    4  A    between atoms: C_7  and  O_8
REMARK                            x       y       z     vdW  Elec       q    Type
REMARK                         _______ _______ _______ _____ _____    ______ ____
ROOT
ATOM      1  C   UNL     1      -6.446   3.637 121.775  0.00  0.00    +0.000 A 
ATOM      2  C   UNL     1      -5.326   4.439 122.017  0.00  0.00    +0.000 A 
ATOM      3  C   UNL     1      -4.849   5.245 120.983  0.00  0.00    +0.000 A 
ATOM      4  C   UNL     1      -5.456   5.236 119.730  0.00  0.00    +0.000 A 
ATOM      5  C   UNL     1      -6.586   4.458 119.514  0.00  0.00    +0.000 A 
ATOM      6  C   UNL     1      -7.109   3.700 120.554  0.00  0.00    +0.000 A 
ENDROOT
BRANCH   3   7
ATOM      7  O   UNL     1      -3.782   6.080 121.142  0.00  0.00    +0.000 OA
ATOM      8  H   UNL     1      -3.364   6.237 120.280  0.00  0.00    +0.000 HD
ENDBRANCH   3   7
BRANCH   1   9
ATOM      9  O   UNL     1      -6.928   2.857 122.857  0.00  0.00    +0.000 OA
BRANCH   9  11
ATOM     10  C   UNL     1      -9.224   1.940 123.018  0.00  0.00    +0.000 C 
ATOM     11  C   UNL     1      -8.184   2.936 123.459  0.00  0.00    +0.000 C 
ATOM     12  O   UNL     1      -8.385   3.718 124.389  0.00  0.00    +0.000 OA
ENDBRANCH   9  11
ENDBRANCH   1   9
TORSDOF 3
ENDMDL
MODEL 5
REMARK VINA RESULT:      -5.3      2.410      3.071
REMARK  Name = Resorcinol monoacetate
REMARK  4 active torsions:
REMARK  status: ('A' for Active; 'I' for Inactive)
REMARK    1  A    between atoms: C_1  and  C_2
REMARK    2  A    between atoms: C_2  and  O_4
REMARK    3  A    between atoms: O_4  and  C_5
REMARK    4  A    between atoms: C_7  and  O_8
REMARK                            x       y       z     vdW  Elec       q    Type
REMARK                         _______ _______ _______ _____ _____    ______ ____
ROOT
ATOM      1  C   UNL     1     -11.638   7.207 130.380  0.00  0.00    +0.000 A 
ATOM      2  C   UNL     1     -11.608   6.466 131.565  0.00  0.00    +0.000 A 
ATOM      3  C   UNL     1     -10.370   6.075 132.076  0.00  0.00    +0.000 A 
ATOM      4  C   UNL     1      -9.189   6.393 131.411  0.00  0.00    +0.000 A 
ATOM      5  C   UNL     1      -9.232   7.158 130.252  0.00  0.00    +0.000 A 
ATOM      6  C   UNL     1     -10.454   7.607 129.768  0.00  0.00    +0.000 A 
ENDROOT
BRANCH   3   7
ATOM      7  O   UNL     1     -10.249   5.376 133.241  0.00  0.00    +0.000 OA
ATOM      8  H   UNL     1     -11.034   5.529 133.791  0.00  0.00    +0.000 HD
ENDBRANCH   3   7
BRANCH   1   9
ATOM      9  O   UNL     1     -12.909   7.620 129.908  0.00  0.00    +0.000 OA
BRANCH   9  11
ATOM     10  C   UNL     1     -13.513   7.195 127.543  0.00  0.00    +0.000 C 
ATOM     11  C   UNL     1     -13.209   8.162 128.657  0.00  0.00    +0.000 C 
ATOM     12  O   UNL     1     -13.327   9.379 128.514  0.00  0.00    +0.000 OA
ENDBRANCH   9  11
ENDBRANCH   1   9
TORSDOF 3
ENDMDL
MODEL 6
REMARK VINA RESULT:      -5.2      7.548     10.139
REMARK  Name = Resorcinol monoacetate
REMARK  4 active torsions:
REMARK  status: ('A' for Active; 'I' for Inactive)
REMARK    1  A    between atoms: C_1  and  C_2
REMARK    2  A    between atoms: C_2  and  O_4
REMARK    3  A    between atoms: O_4  and  C_5
REMARK    4  A    between atoms: C_7  and  O_8
REMARK                            x       y       z     vdW  Elec       q    Type
REMARK                         _______ _______ _______ _____ _____    ______ ____
ROOT
ATOM      1  C   UNL     1      -7.545   3.351 121.770  0.00  0.00    +0.000 A 
ATOM      2  C   UNL     1      -8.756   3.495 121.084  0.00  0.00    +0.000 A 
ATOM      3  C   UNL     1      -8.733   4.040 119.801  0.00  0.00    +0.000 A 
ATOM      4  C   UNL     1      -7.538   4.456 119.221  0.00  0.00    +0.000 A 
ATOM      5  C   UNL     1      -6.340   4.278 119.900  0.00  0.00    +0.000 A 
ATOM      6  C   UNL     1      -6.342   3.678 121.153  0.00  0.00    +0.000 A 
ENDROOT
BRANCH   3   7
ATOM      7  O   UNL     1      -9.863   4.187 119.052  0.00  0.00    +0.000 OA
ATOM      8  H   UNL     1     -10.636   3.926 119.578  0.00  0.00    +0.000 HD
ENDBRANCH   3   7
BRANCH   1   9
ATOM      9  O   UNL     1      -7.598   2.760 123.057  0.00  0.00    +0.000 OA
BRANCH   9  11
ATOM     10  C   UNL     1      -9.573   1.805 124.209  0.00  0.00    +0.000 C 
ATOM     11  C   UNL     1      -8.590   2.931 124.024  0.00  0.00    +0.000 C 
ATOM     12  O   UNL     1      -8.581   3.916 124.763  0.00  0.00    +0.000 OA
ENDBRANCH   9  11
ENDBRANCH   1   9
TORSDOF 3
ENDMDL
MODEL 7
REMARK VINA RESULT:      -4.9      2.101      4.540
REMARK  Name = Resorcinol monoacetate
REMARK  4 active torsions:
REMARK  status: ('A' for Active; 'I' for Inactive)
REMARK    1  A    between atoms: C_1  and  C_2
REMARK    2  A    between atoms: C_2  and  O_4
REMARK    3  A    between atoms: O_4  and  C_5
REMARK    4  A    between atoms: C_7  and  O_8
REMARK                            x       y       z     vdW  Elec       q    Type
REMARK                         _______ _______ _______ _____ _____    ______ ____
ROOT
ATOM      1  C   UNL     1     -10.862   6.354 130.926  0.00  0.00    +0.000 A 
ATOM      2  C   UNL     1     -10.374   7.061 129.823  0.00  0.00    +0.000 A 
ATOM      3  C   UNL     1     -11.160   8.079 129.283  0.00  0.00    +0.000 A 
ATOM      4  C   UNL     1     -12.414   8.371 129.812  0.00  0.00    +0.000 A 
ATOM      5  C   UNL     1     -12.872   7.682 130.928  0.00  0.00    +0.000 A 
ATOM      6  C   UNL     1     -12.071   6.710 131.514  0.00  0.00    +0.000 A 
ENDROOT
BRANCH   3   7
ATOM      7  O   UNL     1     -10.748   8.837 128.227  0.00  0.00    +0.000 OA
ATOM      8  H   UNL     1     -11.039   9.755 128.357  0.00  0.00    +0.000 HD
ENDBRANCH   3   7
BRANCH   1   9
ATOM      9  O   UNL     1     -10.022   5.351 131.473  0.00  0.00    +0.000 OA
BRANCH   9  11
ATOM     10  C   UNL     1      -9.290   3.956 133.385  0.00  0.00    +0.000 C 
ATOM     11  C   UNL     1      -9.482   5.313 132.759  0.00  0.00    +0.000 C 
ATOM     12  O   UNL     1      -9.081   6.343 133.301  0.00  0.00    +0.000 OA
ENDBRANCH   9  11
ENDBRANCH   1   9
TORSDOF 3
ENDMDL
MODEL 8
REMARK VINA RESULT:      -4.9      2.044      3.186
REMARK  Name = Resorcinol monoacetate
REMARK  4 active torsions:
REMARK  status: ('A' for Active; 'I' for Inactive)
REMARK    1  A    between atoms: C_1  and  C_2
REMARK    2  A    between atoms: C_2  and  O_4
REMARK    3  A    between atoms: O_4  and  C_5
REMARK    4  A    between atoms: C_7  and  O_8
REMARK                            x       y       z     vdW  Elec       q    Type
REMARK                         _______ _______ _______ _____ _____    ______ ____
ROOT
ATOM      1  C   UNL     1     -10.315   6.872 130.026  0.00  0.00    +0.000 A 
ATOM      2  C   UNL     1     -10.747   7.882 129.161  0.00  0.00    +0.000 A 
ATOM      3  C   UNL     1     -11.987   8.475 129.396  0.00  0.00    +0.000 A 
ATOM      4  C   UNL     1     -12.791   8.058 130.454  0.00  0.00    +0.000 A 
ATOM      5  C   UNL     1     -12.335   7.076 131.325  0.00  0.00    +0.000 A 
ATOM      6  C   UNL     1     -11.075   6.522 131.138  0.00  0.00    +0.000 A 
ENDROOT
BRANCH   3   7
ATOM      7  O   UNL     1     -12.471   9.487 128.620  0.00  0.00    +0.000 OA
ATOM      8  H   UNL     1     -12.004   9.491 127.768  0.00  0.00    +0.000 HD
ENDBRANCH   3   7
BRANCH   1   9
ATOM      9  O   UNL     1      -9.035   6.315 129.781  0.00  0.00    +0.000 OA
BRANCH   9  11
ATOM     10  C   UNL     1      -8.728   3.869 130.028  0.00  0.00    +0.000 C 
ATOM     11  C   UNL     1      -8.749   5.098 129.159  0.00  0.00    +0.000 C 
ATOM     12  O   UNL     1      -8.632   5.033 127.935  0.00  0.00    +0.000 OA
ENDBRANCH   9  11
ENDBRANCH   1   9
TORSDOF 3
ENDMDL
MODEL 9
REMARK VINA RESULT:      -4.9      2.118      2.793
REMARK  Name = Resorcinol monoacetate
REMARK  4 active torsions:
REMARK  status: ('A' for Active; 'I' for Inactive)
REMARK    1  A    between atoms: C_1  and  C_2
REMARK    2  A    between atoms: C_2  and  O_4
REMARK    3  A    between atoms: O_4  and  C_5
REMARK    4  A    between atoms: C_7  and  O_8
REMARK                            x       y       z     vdW  Elec       q    Type
REMARK                         _______ _______ _______ _____ _____    ______ ____
ROOT
ATOM      1  C   UNL     1     -10.591   6.790 128.955  0.00  0.00    +0.000 A 
ATOM      2  C   UNL     1     -11.344   6.510 130.099  0.00  0.00    +0.000 A 
ATOM      3  C   UNL     1     -12.373   7.384 130.450  0.00  0.00    +0.000 A 
ATOM      4  C   UNL     1     -12.633   8.524 129.694  0.00  0.00    +0.000 A 
ATOM      5  C   UNL     1     -11.898   8.772 128.541  0.00  0.00    +0.000 A 
ATOM      6  C   UNL     1     -10.913   7.876 128.146  0.00  0.00    +0.000 A 
ENDROOT
BRANCH   3   7
ATOM      7  O   UNL     1     -13.174   7.171 131.532  0.00  0.00    +0.000 OA
ATOM      8  H   UNL     1     -13.785   7.919 131.634  0.00  0.00    +0.000 HD
ENDBRANCH   3   7
BRANCH   1   9
ATOM      9  O   UNL     1      -9.577   5.863 128.606  0.00  0.00    +0.000 OA
BRANCH   9  11
ATOM     10  C   UNL     1      -8.854   3.721 129.619  0.00  0.00    +0.000 C 
ATOM     11  C   UNL     1      -8.696   5.212 129.470  0.00  0.00    +0.000 C 
ATOM     12  O   UNL     1      -7.765   5.824 129.995  0.00  0.00    +0.000 OA
ENDBRANCH   9  11
ENDBRANCH   1   9
TORSDOF 3
ENDMDL
