MODEL 1
REMARK VINA RESULT:      -4.6      0.000      0.000
REMARK  Name = Resorcinol
REMARK  2 active torsions:
REMARK  status: ('A' for Active; 'I' for Inactive)
REMARK    1  A    between atoms: O_1  and  C_2
REMARK    2  A    between atoms: C_4  and  O_5
REMARK                            x       y       z     vdW  Elec       q    Type
REMARK                         _______ _______ _______ _____ _____    ______ ____
ROOT
ATOM      1  C   UNL     1     -12.468   6.970 130.567  0.00  0.00    +0.000 A 
ATOM      2  C   UNL     1     -12.369   6.368 129.315  0.00  0.00    +0.000 A 
ATOM      3  C   UNL     1     -12.501   7.164 128.179  0.00  0.00    +0.000 A 
ATOM      4  C   UNL     1     -12.729   8.532 128.284  0.00  0.00    +0.000 A 
ATOM      5  C   UNL     1     -12.820   9.124 129.544  0.00  0.00    +0.000 A 
ATOM      6  C   UNL     1     -12.687   8.340 130.689  0.00  0.00    +0.000 A 
ENDROOT
BRANCH   1   7
ATOM      7  O   UNL     1     -12.357   6.247 131.719  0.00  0.00    +0.000 OA
ATOM      8  H   UNL     1     -11.558   6.525 132.192  0.00  0.00    +0.000 HD
ENDBRANCH   1   7
BRANCH   3   9
ATOM      9  O   UNL     1     -12.412   6.637 126.923  0.00  0.00    +0.000 OA
ATOM     10  H   UNL     1     -11.603   6.965 126.498  0.00  0.00    +0.000 HD
ENDBRANCH   3   9
TORSDOF 2
ENDMDL
MODEL 2
REMARK VINA RESULT:      -4.6      0.065      2.947
REMARK  Name = Resorcinol
REMARK  2 active torsions:
REMARK  status: ('A' for Active; 'I' for Inactive)
REMARK    1  A    between atoms: O_1  and  C_2
REMARK    2  A    between atoms: C_4  and  O_5
REMARK                            x       y       z     vdW  Elec       q    Type
REMARK                         _______ _______ _______ _____ _____    ______ ____
ROOT
ATOM      1  C   UNL     1     -12.504   7.173 128.115  0.00  0.00    +0.000 A 
ATOM      2  C   UNL     1     -12.386   6.372 129.249  0.00  0.00    +0.000 A 
ATOM      3  C   UNL     1     -12.485   6.972 130.503  0.00  0.00    +0.000 A 
ATOM      4  C   UNL     1     -12.695   8.341 130.629  0.00  0.00    +0.000 A 
ATOM      5  C   UNL     1     -12.817   9.131 129.486  0.00  0.00    +0.000 A 
ATOM      6  C   UNL     1     -12.723   8.544 128.224  0.00  0.00    +0.000 A 
ENDROOT
BRANCH   1   7
ATOM      7  O   UNL     1     -12.409   6.651 126.858  0.00  0.00    +0.000 OA
ATOM      8  H   UNL     1     -11.849   7.228 126.316  0.00  0.00    +0.000 HD
ENDBRANCH   1   7
BRANCH   3   9
ATOM      9  O   UNL     1     -12.380   6.244 131.653  0.00  0.00    +0.000 OA
ATOM     10  H   UNL     1     -12.376   6.849 132.412  0.00  0.00    +0.000 HD
ENDBRANCH   3   9
TORSDOF 2
ENDMDL
MODEL 3
REMARK VINA RESULT:      -4.6      1.581      2.320
REMARK  Name = Resorcinol
REMARK  2 active torsions:
REMARK  status: ('A' for Active; 'I' for Inactive)
REMARK    1  A    between atoms: O_1  and  C_2
REMARK    2  A    between atoms: C_4  and  O_5
REMARK                            x       y       z     vdW  Elec       q    Type
REMARK                         _______ _______ _______ _____ _____    ______ ____
ROOT
ATOM      1  C   UNL     1     -12.595   7.041 130.520  0.00  0.00    +0.000 A 
ATOM      2  C   UNL     1     -12.726   8.428 130.477  0.00  0.00    +0.000 A 
ATOM      3  C   UNL     1     -12.902   9.044 129.240  0.00  0.00    +0.000 A 
ATOM      4  C   UNL     1     -12.946   8.298 128.067  0.00  0.00    +0.000 A 
ATOM      5  C   UNL     1     -12.820   6.910 128.124  0.00  0.00    +0.000 A 
ATOM      6  C   UNL     1     -12.646   6.280 129.355  0.00  0.00    +0.000 A 
ENDROOT
BRANCH   1   7
ATOM      7  O   UNL     1     -12.411   6.377 131.697  0.00  0.00    +0.000 OA
ATOM      8  H   UNL     1     -11.578   5.884 131.656  0.00  0.00    +0.000 HD
ENDBRANCH   1   7
BRANCH   3   9
ATOM      9  O   UNL     1     -13.039  10.398 129.129  0.00  0.00    +0.000 OA
ATOM     10  H   UNL     1     -12.761  10.814 129.960  0.00  0.00    +0.000 HD
ENDBRANCH   3   9
TORSDOF 2
ENDMDL
MODEL 4
REMARK VINA RESULT:      -4.6      1.623      3.238
REMARK  Name = Resorcinol
REMARK  2 active torsions:
REMARK  status: ('A' for Active; 'I' for Inactive)
REMARK    1  A    between atoms: O_1  and  C_2
REMARK    2  A    between atoms: C_4  and  O_5
REMARK                            x       y       z     vdW  Elec       q    Type
REMARK                         _______ _______ _______ _____ _____    ______ ____
ROOT
ATOM      1  C   UNL     1     -12.917   9.112 129.309  0.00  0.00    +0.000 A 
ATOM      2  C   UNL     1     -12.686   8.460 130.518  0.00  0.00    +0.000 A 
ATOM      3  C   UNL     1     -12.576   7.071 130.517  0.00  0.00    +0.000 A 
ATOM      4  C   UNL     1     -12.694   6.343 129.337  0.00  0.00    +0.000 A 
ATOM      5  C   UNL     1     -12.919   7.010 128.132  0.00  0.00    +0.000 A 
ATOM      6  C   UNL     1     -13.029   8.400 128.119  0.00  0.00    +0.000 A 
ENDROOT
BRANCH   1   7
ATOM      7  O   UNL     1     -13.044  10.469 129.243  0.00  0.00    +0.000 OA
ATOM      8  H   UNL     1     -12.162  10.871 129.231  0.00  0.00    +0.000 HD
ENDBRANCH   1   7
BRANCH   3   9
ATOM      9  O   UNL     1     -12.348   6.370 131.666  0.00  0.00    +0.000 OA
ATOM     10  H   UNL     1     -11.457   5.987 131.632  0.00  0.00    +0.000 HD
ENDBRANCH   3   9
TORSDOF 2
ENDMDL
MODEL 5
REMARK VINA RESULT:      -4.6     10.888     11.708
REMARK  Name = Resorcinol
REMARK  2 active torsions:
REMARK  status: ('A' for Active; 'I' for Inactive)
REMARK    1  A    between atoms: O_1  and  C_2
REMARK    2  A    between atoms: C_4  and  O_5
REMARK                            x       y       z     vdW  Elec       q    Type
REMARK                         _______ _______ _______ _____ _____    ______ ____
ROOT
ATOM      1  C   UNL     1      -4.843   5.387 120.781  0.00  0.00    +0.000 A 
ATOM      2  C   UNL     1      -5.243   4.423 121.704  0.00  0.00    +0.000 A 
ATOM      3  C   UNL     1      -6.301   3.580 121.373  0.00  0.00    +0.000 A 
ATOM      4  C   UNL     1      -6.952   3.692 120.148  0.00  0.00    +0.000 A 
ATOM      5  C   UNL     1      -6.537   4.658 119.230  0.00  0.00    +0.000 A 
ATOM      6  C   UNL     1      -5.477   5.506 119.548  0.00  0.00    +0.000 A 
ENDROOT
BRANCH   1   7
ATOM      7  O   UNL     1      -3.819   6.249 121.047  0.00  0.00    +0.000 OA
ATOM      8  H   UNL     1      -3.358   5.956 121.847  0.00  0.00    +0.000 HD
ENDBRANCH   1   7
BRANCH   3   9
ATOM      9  O   UNL     1      -6.741   2.613 122.230  0.00  0.00    +0.000 OA
ATOM     10  H   UNL     1      -7.284   3.026 122.921  0.00  0.00    +0.000 HD
ENDBRANCH   3   9
TORSDOF 2
ENDMDL
MODEL 6
REMARK VINA RESULT:      -4.5      1.969      3.314
REMARK  Name = Resorcinol
REMARK  2 active torsions:
REMARK  status: ('A' for Active; 'I' for Inactive)
REMARK    1  A    between atoms: O_1  and  C_2
REMARK    2  A    between atoms: C_4  and  O_5
REMARK                            x       y       z     vdW  Elec       q    Type
REMARK                         _______ _______ _______ _____ _____    ______ ____
ROOT
ATOM      1  C   UNL     1     -12.103   7.159 127.144  0.00  0.00    +0.000 A 
ATOM      2  C   UNL     1     -10.803   7.324 127.616  0.00  0.00    +0.000 A 
ATOM      3  C   UNL     1     -10.620   7.783 128.919  0.00  0.00    +0.000 A 
ATOM      4  C   UNL     1     -11.707   8.075 129.736  0.00  0.00    +0.000 A 
ATOM      5  C   UNL     1     -13.003   7.900 129.253  0.00  0.00    +0.000 A 
ATOM      6  C   UNL     1     -13.201   7.438 127.952  0.00  0.00    +0.000 A 
ENDROOT
BRANCH   1   7
ATOM      7  O   UNL     1     -12.352   6.721 125.875  0.00  0.00    +0.000 OA
ATOM      8  H   UNL     1     -13.014   6.014 125.908  0.00  0.00    +0.000 HD
ENDBRANCH   1   7
BRANCH   3   9
ATOM      9  O   UNL     1      -9.373   7.965 129.445  0.00  0.00    +0.000 OA
ATOM     10  H   UNL     1      -9.413   8.655 130.125  0.00  0.00    +0.000 HD
ENDBRANCH   3   9
TORSDOF 2
ENDMDL
MODEL 7
REMARK VINA RESULT:      -4.5      1.983      2.193
REMARK  Name = Resorcinol
REMARK  2 active torsions:
REMARK  status: ('A' for Active; 'I' for Inactive)
REMARK    1  A    between atoms: O_1  and  C_2
REMARK    2  A    between atoms: C_4  and  O_5
REMARK                            x       y       z     vdW  Elec       q    Type
REMARK                         _______ _______ _______ _____ _____    ______ ____
ROOT
ATOM      1  C   UNL     1     -10.616   7.745 128.930  0.00  0.00    +0.000 A 
ATOM      2  C   UNL     1     -10.801   7.351 127.607  0.00  0.00    +0.000 A 
ATOM      3  C   UNL     1     -12.099   7.124 127.153  0.00  0.00    +0.000 A 
ATOM      4  C   UNL     1     -13.193   7.284 127.998  0.00  0.00    +0.000 A 
ATOM      5  C   UNL     1     -12.994   7.685 129.319  0.00  0.00    +0.000 A 
ATOM      6  C   UNL     1     -11.701   7.918 129.786  0.00  0.00    +0.000 A 
ENDROOT
BRANCH   1   7
ATOM      7  O   UNL     1      -9.372   7.975 129.439  0.00  0.00    +0.000 OA
ATOM      8  H   UNL     1      -9.088   7.199 129.946  0.00  0.00    +0.000 HD
ENDBRANCH   1   7
BRANCH   3   9
ATOM      9  O   UNL     1     -12.350   6.738 125.868  0.00  0.00    +0.000 OA
ATOM     10  H   UNL     1     -13.210   6.290 125.834  0.00  0.00    +0.000 HD
ENDBRANCH   3   9
TORSDOF 2
ENDMDL
MODEL 8
REMARK VINA RESULT:      -4.5      1.800      2.480
REMARK  Name = Resorcinol
REMARK  2 active torsions:
REMARK  status: ('A' for Active; 'I' for Inactive)
REMARK    1  A    between atoms: O_1  and  C_2
REMARK    2  A    between atoms: C_4  and  O_5
REMARK                            x       y       z     vdW  Elec       q    Type
REMARK                         _______ _______ _______ _____ _____    ______ ____
ROOT
ATOM      1  C   UNL     1     -12.865   9.167 129.118  0.00  0.00    +0.000 A 
ATOM      2  C   UNL     1     -12.710   8.559 127.875  0.00  0.00    +0.000 A 
ATOM      3  C   UNL     1     -12.536   7.177 127.825  0.00  0.00    +0.000 A 
ATOM      4  C   UNL     1     -12.515   6.414 128.988  0.00  0.00    +0.000 A 
ATOM      5  C   UNL     1     -12.677   7.036 130.226  0.00  0.00    +0.000 A 
ATOM      6  C   UNL     1     -12.854   8.417 130.290  0.00  0.00    +0.000 A 
ENDROOT
BRANCH   1   7
ATOM      7  O   UNL     1     -13.030  10.517 129.237  0.00  0.00    +0.000 OA
ATOM      8  H   UNL     1     -13.978  10.721 129.248  0.00  0.00    +0.000 HD
ENDBRANCH   1   7
BRANCH   3   9
ATOM      9  O   UNL     1     -12.382   6.518 126.639  0.00  0.00    +0.000 OA
ATOM     10  H   UNL     1     -13.020   6.867 125.997  0.00  0.00    +0.000 HD
ENDBRANCH   3   9
TORSDOF 2
ENDMDL
MODEL 9
REMARK VINA RESULT:      -4.5      1.796      3.196
REMARK  Name = Resorcinol
REMARK  2 active torsions:
REMARK  status: ('A' for Active; 'I' for Inactive)
REMARK    1  A    between atoms: O_1  and  C_2
REMARK    2  A    between atoms: C_4  and  O_5
REMARK                            x       y       z     vdW  Elec       q    Type
REMARK                         _______ _______ _______ _____ _____    ______ ____
ROOT
ATOM      1  C   UNL     1     -12.505   7.179 127.828  0.00  0.00    +0.000 A 
ATOM      2  C   UNL     1     -12.675   8.561 127.879  0.00  0.00    +0.000 A 
ATOM      3  C   UNL     1     -12.844   9.167 129.123  0.00  0.00    +0.000 A 
ATOM      4  C   UNL     1     -12.847   8.414 130.293  0.00  0.00    +0.000 A 
ATOM      5  C   UNL     1     -12.670   7.032 130.228  0.00  0.00    +0.000 A 
ATOM      6  C   UNL     1     -12.497   6.413 128.990  0.00  0.00    +0.000 A 
ENDROOT
BRANCH   1   7
ATOM      7  O   UNL     1     -12.343   6.523 126.642  0.00  0.00    +0.000 OA
ATOM      8  H   UNL     1     -11.620   5.884 126.730  0.00  0.00    +0.000 HD
ENDBRANCH   1   7
BRANCH   3   9
ATOM      9  O   UNL     1     -13.013  10.516 129.244  0.00  0.00    +0.000 OA
ATOM     10  H   UNL     1     -13.263  10.723 130.158  0.00  0.00    +0.000 HD
ENDBRANCH   3   9
TORSDOF 2
ENDMDL
