MODEL 1
REMARK VINA RESULT:      -9.3      0.000      0.000
REMARK  Name = Retapamulin
REMARK  12 active torsions:
REMARK  status: ('A' for Active; 'I' for Inactive)
REMARK    1  A    between atoms: C_10  and  C_11
REMARK    2  A    between atoms: C_12  and  C_13
REMARK    3  A    between atoms: C_14  and  O_24
REMARK    4  A    between atoms: C_16  and  C_17
REMARK    5  A    between atoms: C_16  and  C_18
REMARK    6  A    between atoms: C_20  and  O_21
REMARK    7  A    between atoms: C_22  and  C_23
REMARK    8  A    between atoms: O_24  and  C_25
REMARK    9  A    between atoms: C_25  and  C_27
REMARK   10  A    between atoms: C_27  and  S_28
REMARK   11  A    between atoms: S_28  and  C_29
REMARK   12  A    between atoms: N_36  and  C_37
REMARK                            x       y       z     vdW  Elec       q    Type
REMARK                         _______ _______ _______ _____ _____    ______ ____
ROOT
ATOM      1  C   UNL     1      -7.094   1.445 125.916  0.00  0.00    +0.000 C 
ATOM      2  C   UNL     1      -8.903   1.132 124.967  0.00  0.00    +0.000 C 
ATOM      3  O   UNL     1      -9.936   1.828 125.013  0.00  0.00    +0.000 OA
ATOM      4  C   UNL     1      -8.454   0.566 123.243  0.00  0.00    +0.000 C 
ATOM      5  C   UNL     1      -7.147  -0.216 123.554  0.00  0.00    +0.000 C 
ATOM      6  C   UNL     1      -6.066   0.454 125.206  0.00  0.00    +0.000 C 
ATOM      7  C   UNL     1      -6.352  -0.236 126.519  0.00  0.00    +0.000 C 
ATOM      8  C   UNL     1      -6.043  -0.167 127.883  0.00  0.00    +0.000 C 
ATOM      9  C   UNL     1      -6.105   1.286 128.034  0.00  0.00    +0.000 C 
ATOM     10  C   UNL     1      -4.716   1.817 127.607  0.00  0.00    +0.000 C 
ATOM     11  C   UNL     1      -7.286   1.880 127.284  0.00  0.00    +0.000 C 
ATOM     12  C   UNL     1      -8.639   1.247 127.419  0.00  0.00    +0.000 C 
ATOM     13  C   UNL     1      -7.296   3.411 127.383  0.00  0.00    +0.000 C 
ATOM     14  C   UNL     1      -8.167   4.049 126.341  0.00  0.00    +0.000 C 
ATOM     15  C   UNL     1      -7.324   3.807 125.019  0.00  0.00    +0.000 C 
ATOM     16  C   UNL     1      -6.256   4.689 124.617  0.00  0.00    +0.000 C 
ATOM     17  C   UNL     1      -7.728   2.459 124.510  0.00  0.00    +0.000 C 
ATOM     18  C   UNL     1      -7.262   0.301 124.786  0.00  0.00    +0.000 C 
ATOM     19  C   UNL     1      -5.806  -1.291 124.553  0.00  0.00    +0.000 C 
ENDROOT
BRANCH  15  20
ATOM     20  C   UNL     1      -6.896   2.724 123.827  0.00  0.00    +0.000 C 
ATOM     21  C   UNL     1      -6.024   3.097 122.837  0.00  0.00    +0.000 C 
ENDBRANCH  15  20
BRANCH  17  22
ATOM     22  O   UNL     1      -8.270   3.815 123.119  0.00  0.00    +0.000 OA
ATOM     23  H   UNL     1      -7.900   4.694 123.433  0.00  0.00    +0.000 HD
ENDBRANCH  17  22
BRANCH  13  24
ATOM     24  O   UNL     1      -7.677   3.617 128.713  0.00  0.00    +0.000 OA
BRANCH  24  25
ATOM     25  C   UNL     1      -7.049   4.644 129.301  0.00  0.00    +0.000 C 
ATOM     26  O   UNL     1      -5.998   5.127 128.902  0.00  0.00    +0.000 OA
BRANCH  25  27
ATOM     27  C   UNL     1      -7.835   5.073 130.517  0.00  0.00    +0.000 C 
BRANCH  27  28
ATOM     28  S   UNL     1      -9.507   5.235 129.940  0.00  0.00    +0.000 S 
BRANCH  28  29
ATOM     29  C   UNL     1     -10.035   6.939 130.403  0.00  0.00    +0.000 C 
ATOM     30  C   UNL     1      -9.867   7.875 129.188  0.00  0.00    +0.000 C 
ATOM     31  C   UNL     1     -10.675   7.284 128.077  0.00  0.00    +0.000 C 
ATOM     32  C   UNL     1     -11.840   7.646 127.283  0.00  0.00    +0.000 C 
ATOM     33  C   UNL     1     -13.206   6.739 128.560  0.00  0.00    +0.000 C 
ATOM     34  C   UNL     1     -12.176   6.303 129.489  0.00  0.00    +0.000 C 
ATOM     35  C   UNL     1     -11.541   6.822 130.734  0.00  0.00    +0.000 C 
ATOM     36  N   UNL     1     -11.935   7.447 128.703  0.00  0.00    +0.000 NA
ATOM     37  C   UNL     1     -12.725   8.878 128.910  0.00  0.00    +0.000 C 
ENDBRANCH  28  29
ENDBRANCH  27  28
ENDBRANCH  25  27
ENDBRANCH  24  25
ENDBRANCH  13  24
TORSDOF 7
ENDMDL
MODEL 2
REMARK VINA RESULT:      -9.3      1.862      2.666
REMARK  Name = Retapamulin
REMARK  12 active torsions:
REMARK  status: ('A' for Active; 'I' for Inactive)
REMARK    1  A    between atoms: C_10  and  C_11
REMARK    2  A    between atoms: C_12  and  C_13
REMARK    3  A    between atoms: C_14  and  O_24
REMARK    4  A    between atoms: C_16  and  C_17
REMARK    5  A    between atoms: C_16  and  C_18
REMARK    6  A    between atoms: C_20  and  O_21
REMARK    7  A    between atoms: C_22  and  C_23
REMARK    8  A    between atoms: O_24  and  C_25
REMARK    9  A    between atoms: C_25  and  C_27
REMARK   10  A    between atoms: C_27  and  S_28
REMARK   11  A    between atoms: S_28  and  C_29
REMARK   12  A    between atoms: N_36  and  C_37
REMARK                            x       y       z     vdW  Elec       q    Type
REMARK                         _______ _______ _______ _____ _____    ______ ____
ROOT
ATOM      1  C   UNL     1      -7.241  -1.187 125.895  0.00  0.00    +0.000 C 
ATOM      2  C   UNL     1      -8.821  -2.459 125.499  0.00  0.00    +0.000 C 
ATOM      3  O   UNL     1     -10.034  -2.287 125.731  0.00  0.00    +0.000 OA
ATOM      4  C   UNL     1      -8.471  -3.154 123.801  0.00  0.00    +0.000 C 
ATOM      5  C   UNL     1      -6.918  -3.201 123.850  0.00  0.00    +0.000 C 
ATOM      6  C   UNL     1      -6.010  -1.772 125.066  0.00  0.00    +0.000 C 
ATOM      7  C   UNL     1      -5.698  -2.195 126.481  0.00  0.00    +0.000 C 
ATOM      8  C   UNL     1      -5.223  -1.690 127.697  0.00  0.00    +0.000 C 
ATOM      9  C   UNL     1      -5.937  -0.414 127.681  0.00  0.00    +0.000 C 
ATOM     10  C   UNL     1      -5.066   0.551 126.843  0.00  0.00    +0.000 C 
ATOM     11  C   UNL     1      -7.370  -0.577 127.201  0.00  0.00    +0.000 C 
ATOM     12  C   UNL     1      -8.215  -1.682 127.764  0.00  0.00    +0.000 C 
ATOM     13  C   UNL     1      -8.087   0.777 127.113  0.00  0.00    +0.000 C 
ATOM     14  C   UNL     1      -9.325   0.719 126.266  0.00  0.00    +0.000 C 
ATOM     15  C   UNL     1      -8.716   0.568 124.810  0.00  0.00    +0.000 C 
ATOM     16  C   UNL     1      -8.283   1.706 124.037  0.00  0.00    +0.000 C 
ATOM     17  C   UNL     1      -8.516  -0.899 124.593  0.00  0.00    +0.000 C 
ATOM     18  C   UNL     1      -7.044  -2.517 124.996  0.00  0.00    +0.000 C 
ATOM     19  C   UNL     1      -5.076  -3.331 124.584  0.00  0.00    +0.000 C 
ENDROOT
BRANCH  15  20
ATOM     20  C   UNL     1      -8.045  -0.465 123.687  0.00  0.00    +0.000 C 
ATOM     21  C   UNL     1      -7.117  -0.002 122.791  0.00  0.00    +0.000 C 
ENDBRANCH  15  20
BRANCH  17  22
ATOM     22  O   UNL     1      -9.872  -0.269 123.238  0.00  0.00    +0.000 OA
ATOM     23  H   UNL     1      -9.345   0.017 122.434  0.00  0.00    +0.000 HD
ENDBRANCH  17  22
BRANCH  13  24
ATOM     24  O   UNL     1      -8.278   1.097 128.461  0.00  0.00    +0.000 OA
BRANCH  24  25
ATOM     25  C   UNL     1      -7.956   2.362 128.766  0.00  0.00    +0.000 C 
ATOM     26  O   UNL     1      -6.978   2.949 128.322  0.00  0.00    +0.000 OA
BRANCH  25  27
ATOM     27  C   UNL     1      -8.973   2.909 129.738  0.00  0.00    +0.000 C 
BRANCH  27  28
ATOM     28  S   UNL     1      -8.994   4.658 129.434  0.00  0.00    +0.000 S 
BRANCH  28  29
ATOM     29  C   UNL     1      -9.796   5.415 130.911  0.00  0.00    +0.000 C 
ATOM     30  C   UNL     1      -9.661   6.950 130.837  0.00  0.00    +0.000 C 
ATOM     31  C   UNL     1     -10.281   7.372 129.542  0.00  0.00    +0.000 C 
ATOM     32  C   UNL     1     -11.414   8.172 129.102  0.00  0.00    +0.000 C 
ATOM     33  C   UNL     1     -12.741   6.573 129.044  0.00  0.00    +0.000 C 
ATOM     34  C   UNL     1     -11.740   5.618 129.496  0.00  0.00    +0.000 C 
ATOM     35  C   UNL     1     -11.293   5.043 130.796  0.00  0.00    +0.000 C 
ATOM     36  N   UNL     1     -11.599   6.970 129.867  0.00  0.00    +0.000 NA
ATOM     37  C   UNL     1     -12.600   7.732 130.932  0.00  0.00    +0.000 C 
ENDBRANCH  28  29
ENDBRANCH  27  28
ENDBRANCH  25  27
ENDBRANCH  24  25
ENDBRANCH  13  24
TORSDOF 7
ENDMDL
MODEL 3
REMARK VINA RESULT:      -9.2      2.966      4.772
REMARK  Name = Retapamulin
REMARK  12 active torsions:
REMARK  status: ('A' for Active; 'I' for Inactive)
REMARK    1  A    between atoms: C_10  and  C_11
REMARK    2  A    between atoms: C_12  and  C_13
REMARK    3  A    between atoms: C_14  and  O_24
REMARK    4  A    between atoms: C_16  and  C_17
REMARK    5  A    between atoms: C_16  and  C_18
REMARK    6  A    between atoms: C_20  and  O_21
REMARK    7  A    between atoms: C_22  and  C_23
REMARK    8  A    between atoms: O_24  and  C_25
REMARK    9  A    between atoms: C_25  and  C_27
REMARK   10  A    between atoms: C_27  and  S_28
REMARK   11  A    between atoms: S_28  and  C_29
REMARK   12  A    between atoms: N_36  and  C_37
REMARK                            x       y       z     vdW  Elec       q    Type
REMARK                         _______ _______ _______ _____ _____    ______ ____
ROOT
ATOM      1  C   UNL     1      -4.843   4.360 129.559  0.00  0.00    +0.000 C 
ATOM      2  C   UNL     1      -3.761   2.688 129.005  0.00  0.00    +0.000 C 
ATOM      3  O   UNL     1      -4.136   1.500 128.958  0.00  0.00    +0.000 OA
ATOM      4  C   UNL     1      -2.770   3.224 127.515  0.00  0.00    +0.000 C 
ATOM      5  C   UNL     1      -2.513   4.710 127.890  0.00  0.00    +0.000 C 
ATOM      6  C   UNL     1      -3.970   5.606 129.081  0.00  0.00    +0.000 C 
ATOM      7  C   UNL     1      -3.730   5.575 130.571  0.00  0.00    +0.000 C 
ATOM      8  C   UNL     1      -4.346   5.896 131.788  0.00  0.00    +0.000 C 
ATOM      9  C   UNL     1      -5.691   5.422 131.467  0.00  0.00    +0.000 C 
ATOM     10  C   UNL     1      -6.383   6.584 130.715  0.00  0.00    +0.000 C 
ATOM     11  C   UNL     1      -5.660   4.096 130.725  0.00  0.00    +0.000 C 
ATOM     12  C   UNL     1      -4.785   2.988 131.233  0.00  0.00    +0.000 C 
ATOM     13  C   UNL     1      -7.071   3.647 130.324  0.00  0.00    +0.000 C 
ATOM     14  C   UNL     1      -7.058   2.595 129.254  0.00  0.00    +0.000 C 
ATOM     15  C   UNL     1      -6.600   3.428 127.984  0.00  0.00    +0.000 C 
ATOM     16  C   UNL     1      -7.533   4.182 127.183  0.00  0.00    +0.000 C 
ATOM     17  C   UNL     1      -5.104   3.414 127.996  0.00  0.00    +0.000 C 
ATOM     18  C   UNL     1      -3.376   4.492 128.892  0.00  0.00    +0.000 C 
ATOM     19  C   UNL     1      -2.239   6.337 128.999  0.00  0.00    +0.000 C 
ENDROOT
BRANCH  15  20
ATOM     20  C   UNL     1      -5.322   4.111 127.161  0.00  0.00    +0.000 C 
ATOM     21  C   UNL     1      -5.551   4.914 126.075  0.00  0.00    +0.000 C 
ENDBRANCH  15  20
BRANCH  17  22
ATOM     22  O   UNL     1      -5.702   2.458 126.324  0.00  0.00    +0.000 OA
ATOM     23  H   UNL     1      -5.506   1.486 126.478  0.00  0.00    +0.000 HD
ENDBRANCH  17  22
BRANCH  13  24
ATOM     24  O   UNL     1      -7.619   3.267 131.553  0.00  0.00    +0.000 OA
BRANCH  24  25
ATOM     25  C   UNL     1      -8.959   3.296 131.579  0.00  0.00    +0.000 C 
ATOM     26  O   UNL     1      -9.672   2.325 131.368  0.00  0.00    +0.000 OA
BRANCH  25  27
ATOM     27  C   UNL     1      -9.415   4.702 131.888  0.00  0.00    +0.000 C 
BRANCH  27  28
ATOM     28  S   UNL     1     -10.531   5.115 130.569  0.00  0.00    +0.000 S 
BRANCH  28  29
ATOM     29  C   UNL     1     -10.874   6.917 130.748  0.00  0.00    +0.000 C 
ATOM     30  C   UNL     1     -10.248   7.678 129.561  0.00  0.00    +0.000 C 
ATOM     31  C   UNL     1     -10.827   7.083 128.317  0.00  0.00    +0.000 C 
ATOM     32  C   UNL     1     -11.671   7.512 127.211  0.00  0.00    +0.000 C 
ATOM     33  C   UNL     1     -13.451   6.952 128.129  0.00  0.00    +0.000 C 
ATOM     34  C   UNL     1     -12.781   6.485 129.333  0.00  0.00    +0.000 C 
ATOM     35  C   UNL     1     -12.413   7.048 130.663  0.00  0.00    +0.000 C 
ATOM     36  N   UNL     1     -12.162   7.489 128.563  0.00  0.00    +0.000 NA
ATOM     37  C   UNL     1     -12.733   9.029 128.443  0.00  0.00    +0.000 C 
ENDBRANCH  28  29
ENDBRANCH  27  28
ENDBRANCH  25  27
ENDBRANCH  24  25
ENDBRANCH  13  24
TORSDOF 7
ENDMDL
MODEL 4
REMARK VINA RESULT:      -9.1      4.412      5.862
REMARK  Name = Retapamulin
REMARK  12 active torsions:
REMARK  status: ('A' for Active; 'I' for Inactive)
REMARK    1  A    between atoms: C_10  and  C_11
REMARK    2  A    between atoms: C_12  and  C_13
REMARK    3  A    between atoms: C_14  and  O_24
REMARK    4  A    between atoms: C_16  and  C_17
REMARK    5  A    between atoms: C_16  and  C_18
REMARK    6  A    between atoms: C_20  and  O_21
REMARK    7  A    between atoms: C_22  and  C_23
REMARK    8  A    between atoms: O_24  and  C_25
REMARK    9  A    between atoms: C_25  and  C_27
REMARK   10  A    between atoms: C_27  and  S_28
REMARK   11  A    between atoms: S_28  and  C_29
REMARK   12  A    between atoms: N_36  and  C_37
REMARK                            x       y       z     vdW  Elec       q    Type
REMARK                         _______ _______ _______ _____ _____    ______ ____
ROOT
ATOM      1  C   UNL     1      -7.520  -1.112 126.834  0.00  0.00    +0.000 C 
ATOM      2  C   UNL     1      -9.297  -1.254 125.786  0.00  0.00    +0.000 C 
ATOM      3  O   UNL     1      -9.685  -0.569 124.818  0.00  0.00    +0.000 OA
ATOM      4  C   UNL     1      -9.591  -3.087 125.577  0.00  0.00    +0.000 C 
ATOM      5  C   UNL     1      -8.976  -3.606 126.906  0.00  0.00    +0.000 C 
ATOM      6  C   UNL     1      -7.432  -2.450 127.698  0.00  0.00    +0.000 C 
ATOM      7  C   UNL     1      -7.828  -1.411 128.719  0.00  0.00    +0.000 C 
ATOM      8  C   UNL     1      -7.299  -0.353 129.470  0.00  0.00    +0.000 C 
ATOM      9  C   UNL     1      -6.457   0.235 128.429  0.00  0.00    +0.000 C 
ATOM     10  C   UNL     1      -5.130  -0.560 128.456  0.00  0.00    +0.000 C 
ATOM     11  C   UNL     1      -7.166   0.269 127.084  0.00  0.00    +0.000 C 
ATOM     12  C   UNL     1      -8.578   0.769 127.008  0.00  0.00    +0.000 C 
ATOM     13  C   UNL     1      -6.247   0.814 125.983  0.00  0.00    +0.000 C 
ATOM     14  C   UNL     1      -6.739   0.480 124.605  0.00  0.00    +0.000 C 
ATOM     15  C   UNL     1      -6.461  -1.079 124.529  0.00  0.00    +0.000 C 
ATOM     16  C   UNL     1      -5.172  -1.612 124.160  0.00  0.00    +0.000 C 
ATOM     17  C   UNL     1      -7.670  -1.745 125.107  0.00  0.00    +0.000 C 
ATOM     18  C   UNL     1      -8.536  -2.349 127.064  0.00  0.00    +0.000 C 
ATOM     19  C   UNL     1      -8.382  -3.639 128.803  0.00  0.00    +0.000 C 
ENDROOT
BRANCH  15  20
ATOM     20  C   UNL     1      -6.983  -2.603 124.955  0.00  0.00    +0.000 C 
ATOM     21  C   UNL     1      -6.226  -3.703 124.648  0.00  0.00    +0.000 C 
ENDBRANCH  15  20
BRANCH  17  22
ATOM     22  O   UNL     1      -7.541  -2.303 123.172  0.00  0.00    +0.000 OA
ATOM     23  H   UNL     1      -8.132  -3.108 123.078  0.00  0.00    +0.000 HD
ENDBRANCH  17  22
BRANCH  13  24
ATOM     24  O   UNL     1      -6.183   2.175 126.301  0.00  0.00    +0.000 OA
BRANCH  24  25
ATOM     25  C   UNL     1      -5.125   2.803 125.770  0.00  0.00    +0.000 C 
ATOM     26  O   UNL     1      -5.184   3.559 124.809  0.00  0.00    +0.000 OA
BRANCH  25  27
ATOM     27  C   UNL     1      -3.884   2.411 126.535  0.00  0.00    +0.000 C 
BRANCH  27  28
ATOM     28  S   UNL     1      -3.063   3.947 126.885  0.00  0.00    +0.000 S 
BRANCH  28  29
ATOM     29  C   UNL     1      -4.315   5.003 127.729  0.00  0.00    +0.000 C 
ATOM     30  C   UNL     1      -4.663   4.389 129.101  0.00  0.00    +0.000 C 
ATOM     31  C   UNL     1      -3.377   4.273 129.857  0.00  0.00    +0.000 C 
ATOM     32  C   UNL     1      -2.784   4.829 131.064  0.00  0.00    +0.000 C 
ATOM     33  C   UNL     1      -1.895   6.437 130.092  0.00  0.00    +0.000 C 
ATOM     34  C   UNL     1      -2.417   6.048 128.791  0.00  0.00    +0.000 C 
ATOM     35  C   UNL     1      -3.612   6.362 127.959  0.00  0.00    +0.000 C 
ATOM     36  N   UNL     1      -3.127   5.664 129.945  0.00  0.00    +0.000 NA
ATOM     37  C   UNL     1      -3.938   6.724 130.911  0.00  0.00    +0.000 C 
ENDBRANCH  28  29
ENDBRANCH  27  28
ENDBRANCH  25  27
ENDBRANCH  24  25
ENDBRANCH  13  24
TORSDOF 7
ENDMDL
MODEL 5
REMARK VINA RESULT:      -9.0      3.704      5.897
REMARK  Name = Retapamulin
REMARK  12 active torsions:
REMARK  status: ('A' for Active; 'I' for Inactive)
REMARK    1  A    between atoms: C_10  and  C_11
REMARK    2  A    between atoms: C_12  and  C_13
REMARK    3  A    between atoms: C_14  and  O_24
REMARK    4  A    between atoms: C_16  and  C_17
REMARK    5  A    between atoms: C_16  and  C_18
REMARK    6  A    between atoms: C_20  and  O_21
REMARK    7  A    between atoms: C_22  and  C_23
REMARK    8  A    between atoms: O_24  and  C_25
REMARK    9  A    between atoms: C_25  and  C_27
REMARK   10  A    between atoms: C_27  and  S_28
REMARK   11  A    between atoms: S_28  and  C_29
REMARK   12  A    between atoms: N_36  and  C_37
REMARK                            x       y       z     vdW  Elec       q    Type
REMARK                         _______ _______ _______ _____ _____    ______ ____
ROOT
ATOM      1  C   UNL     1      -4.540   4.213 130.008  0.00  0.00    +0.000 C 
ATOM      2  C   UNL     1      -4.708   6.221 129.545  0.00  0.00    +0.000 C 
ATOM      3  O   UNL     1      -5.416   7.088 130.093  0.00  0.00    +0.000 OA
ATOM      4  C   UNL     1      -2.962   6.785 129.196  0.00  0.00    +0.000 C 
ATOM      5  C   UNL     1      -2.385   5.486 128.568  0.00  0.00    +0.000 C 
ATOM      6  C   UNL     1      -3.247   3.705 129.226  0.00  0.00    +0.000 C 
ATOM      7  C   UNL     1      -4.383   3.162 128.393  0.00  0.00    +0.000 C 
ATOM      8  C   UNL     1      -5.345   2.145 128.381  0.00  0.00    +0.000 C 
ATOM      9  C   UNL     1      -5.715   2.197 129.795  0.00  0.00    +0.000 C 
ATOM     10  C   UNL     1      -4.677   1.323 130.539  0.00  0.00    +0.000 C 
ATOM     11  C   UNL     1      -5.834   3.628 130.293  0.00  0.00    +0.000 C 
ATOM     12  C   UNL     1      -6.597   4.631 129.479  0.00  0.00    +0.000 C 
ATOM     13  C   UNL     1      -6.144   3.672 131.795  0.00  0.00    +0.000 C 
ATOM     14  C   UNL     1      -5.859   5.015 132.402  0.00  0.00    +0.000 C 
ATOM     15  C   UNL     1      -4.274   5.048 132.389  0.00  0.00    +0.000 C 
ATOM     16  C   UNL     1      -3.484   4.446 133.435  0.00  0.00    +0.000 C 
ATOM     17  C   UNL     1      -3.880   5.587 131.049  0.00  0.00    +0.000 C 
ATOM     18  C   UNL     1      -3.536   4.919 128.956  0.00  0.00    +0.000 C 
ATOM     19  C   UNL     1      -2.312   3.755 127.594  0.00  0.00    +0.000 C 
ENDROOT
BRANCH  15  20
ATOM     20  C   UNL     1      -2.900   5.300 131.480  0.00  0.00    +0.000 C 
ATOM     21  C   UNL     1      -1.663   5.048 132.014  0.00  0.00    +0.000 C 
ENDBRANCH  15  20
BRANCH  17  22
ATOM     22  O   UNL     1      -3.232   6.897 132.440  0.00  0.00    +0.000 OA
ATOM     23  H   UNL     1      -4.003   7.515 132.615  0.00  0.00    +0.000 HD
ENDBRANCH  17  22
BRANCH  13  24
ATOM     24  O   UNL     1      -7.477   3.252 131.832  0.00  0.00    +0.000 OA
BRANCH  24  25
ATOM     25  C   UNL     1      -7.917   2.962 133.065  0.00  0.00    +0.000 C 
ATOM     26  O   UNL     1      -7.394   2.142 133.807  0.00  0.00    +0.000 OA
BRANCH  25  27
ATOM     27  C   UNL     1      -9.146   3.789 133.357  0.00  0.00    +0.000 C 
BRANCH  27  28
ATOM     28  S   UNL     1      -9.706   4.346 131.767  0.00  0.00    +0.000 S 
BRANCH  28  29
ATOM     29  C   UNL     1     -10.003   6.156 131.944  0.00  0.00    +0.000 C 
ATOM     30  C   UNL     1      -9.277   6.908 130.809  0.00  0.00    +0.000 C 
ATOM     31  C   UNL     1      -9.793   6.345 129.523  0.00  0.00    +0.000 C 
ATOM     32  C   UNL     1     -10.551   6.811 128.371  0.00  0.00    +0.000 C 
ATOM     33  C   UNL     1     -12.402   6.301 129.166  0.00  0.00    +0.000 C 
ATOM     34  C   UNL     1     -11.827   5.801 130.405  0.00  0.00    +0.000 C 
ATOM     35  C   UNL     1     -11.528   6.338 131.762  0.00  0.00    +0.000 C 
ATOM     36  N   UNL     1     -11.127   6.791 129.688  0.00  0.00    +0.000 NA
ATOM     37  C   UNL     1     -11.641   8.350 129.550  0.00  0.00    +0.000 C 
ENDBRANCH  28  29
ENDBRANCH  27  28
ENDBRANCH  25  27
ENDBRANCH  24  25
ENDBRANCH  13  24
TORSDOF 7
ENDMDL
MODEL 6
REMARK VINA RESULT:      -9.0      3.967      6.013
REMARK  Name = Retapamulin
REMARK  12 active torsions:
REMARK  status: ('A' for Active; 'I' for Inactive)
REMARK    1  A    between atoms: C_10  and  C_11
REMARK    2  A    between atoms: C_12  and  C_13
REMARK    3  A    between atoms: C_14  and  O_24
REMARK    4  A    between atoms: C_16  and  C_17
REMARK    5  A    between atoms: C_16  and  C_18
REMARK    6  A    between atoms: C_20  and  O_21
REMARK    7  A    between atoms: C_22  and  C_23
REMARK    8  A    between atoms: O_24  and  C_25
REMARK    9  A    between atoms: C_25  and  C_27
REMARK   10  A    between atoms: C_27  and  S_28
REMARK   11  A    between atoms: S_28  and  C_29
REMARK   12  A    between atoms: N_36  and  C_37
REMARK                            x       y       z     vdW  Elec       q    Type
REMARK                         _______ _______ _______ _____ _____    ______ ____
ROOT
ATOM      1  C   UNL     1      -7.806  -1.025 124.619  0.00  0.00    +0.000 C 
ATOM      2  C   UNL     1      -6.123  -2.115 124.117  0.00  0.00    +0.000 C 
ATOM      3  O   UNL     1      -4.925  -1.816 124.286  0.00  0.00    +0.000 OA
ATOM      4  C   UNL     1      -6.532  -3.878 124.582  0.00  0.00    +0.000 C 
ATOM      5  C   UNL     1      -8.057  -3.883 124.286  0.00  0.00    +0.000 C 
ATOM      6  C   UNL     1      -9.024  -2.048 124.500  0.00  0.00    +0.000 C 
ATOM      7  C   UNL     1      -9.160  -1.212 123.251  0.00  0.00    +0.000 C 
ATOM      8  C   UNL     1      -9.587   0.050 122.817  0.00  0.00    +0.000 C 
ATOM      9  C   UNL     1      -9.036   0.841 123.916  0.00  0.00    +0.000 C 
ATOM     10  C   UNL     1     -10.086   0.783 125.050  0.00  0.00    +0.000 C 
ATOM     11  C   UNL     1      -7.640   0.377 124.299  0.00  0.00    +0.000 C 
ATOM     12  C   UNL     1      -6.623   0.132 123.224  0.00  0.00    +0.000 C 
ATOM     13  C   UNL     1      -7.103   1.161 125.504  0.00  0.00    +0.000 C 
ATOM     14  C   UNL     1      -5.944   0.475 126.166  0.00  0.00    +0.000 C 
ATOM     15  C   UNL     1      -6.652  -0.761 126.863  0.00  0.00    +0.000 C 
ATOM     16  C   UNL     1      -7.284  -0.656 128.155  0.00  0.00    +0.000 C 
ATOM     17  C   UNL     1      -6.691  -1.850 125.837  0.00  0.00    +0.000 C 
ATOM     18  C   UNL     1      -7.917  -2.560 124.122  0.00  0.00    +0.000 C 
ATOM     19  C   UNL     1      -9.801  -3.408 123.458  0.00  0.00    +0.000 C 
ENDROOT
BRANCH  15  20
ATOM     20  C   UNL     1      -7.288  -2.289 126.662  0.00  0.00    +0.000 C 
ATOM     21  C   UNL     1      -8.134  -2.814 127.604  0.00  0.00    +0.000 C 
ENDBRANCH  15  20
BRANCH  17  22
ATOM     22  O   UNL     1      -5.542  -2.500 127.362  0.00  0.00    +0.000 OA
ATOM     23  H   UNL     1      -4.965  -3.227 126.981  0.00  0.00    +0.000 HD
ENDBRANCH  17  22
BRANCH  13  24
ATOM     24  O   UNL     1      -6.837   2.415 124.944  0.00  0.00    +0.000 OA
BRANCH  24  25
ATOM     25  C   UNL     1      -7.112   3.440 125.762  0.00  0.00    +0.000 C 
ATOM     26  O   UNL     1      -8.239   3.742 126.131  0.00  0.00    +0.000 OA
BRANCH  25  27
ATOM     27  C   UNL     1      -5.826   4.145 126.120  0.00  0.00    +0.000 C 
BRANCH  27  28
ATOM     28  S   UNL     1      -5.787   4.140 127.895  0.00  0.00    +0.000 S 
BRANCH  28  29
ATOM     29  C   UNL     1      -4.009   3.990 128.358  0.00  0.00    +0.000 C 
ATOM     30  C   UNL     1      -3.207   5.123 127.685  0.00  0.00    +0.000 C 
ATOM     31  C   UNL     1      -3.829   6.409 128.128  0.00  0.00    +0.000 C 
ATOM     32  C   UNL     1      -3.446   7.578 128.906  0.00  0.00    +0.000 C 
ATOM     33  C   UNL     1      -4.114   6.804 130.716  0.00  0.00    +0.000 C 
ATOM     34  C   UNL     1      -4.546   5.551 130.118  0.00  0.00    +0.000 C 
ATOM     35  C   UNL     1      -3.969   4.196 129.890  0.00  0.00    +0.000 C 
ATOM     36  N   UNL     1      -3.504   6.270 129.499  0.00  0.00    +0.000 NA
ATOM     37  C   UNL     1      -2.000   6.435 130.150  0.00  0.00    +0.000 C 
ENDBRANCH  28  29
ENDBRANCH  27  28
ENDBRANCH  25  27
ENDBRANCH  24  25
ENDBRANCH  13  24
TORSDOF 7
ENDMDL
MODEL 7
REMARK VINA RESULT:      -9.0      2.914      5.138
REMARK  Name = Retapamulin
REMARK  12 active torsions:
REMARK  status: ('A' for Active; 'I' for Inactive)
REMARK    1  A    between atoms: C_10  and  C_11
REMARK    2  A    between atoms: C_12  and  C_13
REMARK    3  A    between atoms: C_14  and  O_24
REMARK    4  A    between atoms: C_16  and  C_17
REMARK    5  A    between atoms: C_16  and  C_18
REMARK    6  A    between atoms: C_20  and  O_21
REMARK    7  A    between atoms: C_22  and  C_23
REMARK    8  A    between atoms: O_24  and  C_25
REMARK    9  A    between atoms: C_25  and  C_27
REMARK   10  A    between atoms: C_27  and  S_28
REMARK   11  A    between atoms: S_28  and  C_29
REMARK   12  A    between atoms: N_36  and  C_37
REMARK                            x       y       z     vdW  Elec       q    Type
REMARK                         _______ _______ _______ _____ _____    ______ ____
ROOT
ATOM      1  C   UNL     1      -7.759  -0.999 124.782  0.00  0.00    +0.000 C 
ATOM      2  C   UNL     1      -6.068  -2.034 124.195  0.00  0.00    +0.000 C 
ATOM      3  O   UNL     1      -4.871  -1.742 124.389  0.00  0.00    +0.000 OA
ATOM      4  C   UNL     1      -6.464  -3.832 124.517  0.00  0.00    +0.000 C 
ATOM      5  C   UNL     1      -7.990  -3.822 124.219  0.00  0.00    +0.000 C 
ATOM      6  C   UNL     1      -8.969  -2.018 124.579  0.00  0.00    +0.000 C 
ATOM      7  C   UNL     1      -9.110  -1.084 123.401  0.00  0.00    +0.000 C 
ATOM      8  C   UNL     1      -9.545   0.205 123.070  0.00  0.00    +0.000 C 
ATOM      9  C   UNL     1      -9.000   0.909 124.229  0.00  0.00    +0.000 C 
ATOM     10  C   UNL     1     -10.051   0.753 125.354  0.00  0.00    +0.000 C 
ATOM     11  C   UNL     1      -7.601   0.425 124.576  0.00  0.00    +0.000 C 
ATOM     12  C   UNL     1      -6.582   0.274 123.485  0.00  0.00    +0.000 C 
ATOM     13  C   UNL     1      -7.070   1.113 125.840  0.00  0.00    +0.000 C 
ATOM     14  C   UNL     1      -5.907   0.384 126.447  0.00  0.00    +0.000 C 
ATOM     15  C   UNL     1      -6.607  -0.909 127.041  0.00  0.00    +0.000 C 
ATOM     16  C   UNL     1      -7.241  -0.913 128.336  0.00  0.00    +0.000 C 
ATOM     17  C   UNL     1      -6.638  -1.912 125.930  0.00  0.00    +0.000 C 
ATOM     18  C   UNL     1      -7.858  -2.490 124.162  0.00  0.00    +0.000 C 
ATOM     19  C   UNL     1      -9.736  -3.294 123.430  0.00  0.00    +0.000 C 
ENDROOT
BRANCH  15  20
ATOM     20  C   UNL     1      -7.232  -2.420 126.717  0.00  0.00    +0.000 C 
ATOM     21  C   UNL     1      -8.088  -3.018 127.605  0.00  0.00    +0.000 C 
ENDBRANCH  15  20
BRANCH  17  22
ATOM     22  O   UNL     1      -5.486  -2.675 127.399  0.00  0.00    +0.000 OA
ATOM     23  H   UNL     1      -4.551  -2.692 127.035  0.00  0.00    +0.000 HD
ENDBRANCH  17  22
BRANCH  13  24
ATOM     24  O   UNL     1      -6.812   2.410 125.383  0.00  0.00    +0.000 OA
BRANCH  24  25
ATOM     25  C   UNL     1      -7.224   3.369 126.223  0.00  0.00    +0.000 C 
ATOM     26  O   UNL     1      -8.333   3.884 126.190  0.00  0.00    +0.000 OA
BRANCH  25  27
ATOM     27  C   UNL     1      -6.102   3.704 127.177  0.00  0.00    +0.000 C 
BRANCH  27  28
ATOM     28  S   UNL     1      -6.915   4.168 128.686  0.00  0.00    +0.000 S 
BRANCH  28  29
ATOM     29  C   UNL     1      -7.161   2.603 129.626  0.00  0.00    +0.000 C 
ATOM     30  C   UNL     1      -7.072   2.893 131.138  0.00  0.00    +0.000 C 
ATOM     31  C   UNL     1      -8.104   3.933 131.437  0.00  0.00    +0.000 C 
ATOM     32  C   UNL     1      -9.325   4.045 132.221  0.00  0.00    +0.000 C 
ATOM     33  C   UNL     1     -10.578   3.459 130.669  0.00  0.00    +0.000 C 
ATOM     34  C   UNL     1      -9.477   3.274 129.737  0.00  0.00    +0.000 C 
ATOM     35  C   UNL     1      -8.603   2.151 129.293  0.00  0.00    +0.000 C 
ATOM     36  N   UNL     1      -9.225   3.130 131.116  0.00  0.00    +0.000 NA
ATOM     37  C   UNL     1      -9.801   1.881 132.022  0.00  0.00    +0.000 C 
ENDBRANCH  28  29
ENDBRANCH  27  28
ENDBRANCH  25  27
ENDBRANCH  24  25
ENDBRANCH  13  24
TORSDOF 7
ENDMDL
MODEL 8
REMARK VINA RESULT:      -9.0      3.843      4.883
REMARK  Name = Retapamulin
REMARK  12 active torsions:
REMARK  status: ('A' for Active; 'I' for Inactive)
REMARK    1  A    between atoms: C_10  and  C_11
REMARK    2  A    between atoms: C_12  and  C_13
REMARK    3  A    between atoms: C_14  and  O_24
REMARK    4  A    between atoms: C_16  and  C_17
REMARK    5  A    between atoms: C_16  and  C_18
REMARK    6  A    between atoms: C_20  and  O_21
REMARK    7  A    between atoms: C_22  and  C_23
REMARK    8  A    between atoms: O_24  and  C_25
REMARK    9  A    between atoms: C_25  and  C_27
REMARK   10  A    between atoms: C_27  and  S_28
REMARK   11  A    between atoms: S_28  and  C_29
REMARK   12  A    between atoms: N_36  and  C_37
REMARK                            x       y       z     vdW  Elec       q    Type
REMARK                         _______ _______ _______ _____ _____    ______ ____
ROOT
ATOM      1  C   UNL     1      -7.231  -1.164 125.893  0.00  0.00    +0.000 C 
ATOM      2  C   UNL     1      -8.786  -2.412 125.347  0.00  0.00    +0.000 C 
ATOM      3  O   UNL     1     -10.003  -2.289 125.589  0.00  0.00    +0.000 OA
ATOM      4  C   UNL     1      -8.415  -2.902 123.583  0.00  0.00    +0.000 C 
ATOM      5  C   UNL     1      -6.862  -2.927 123.636  0.00  0.00    +0.000 C 
ATOM      6  C   UNL     1      -5.986  -1.628 125.011  0.00  0.00    +0.000 C 
ATOM      7  C   UNL     1      -5.672  -2.204 126.371  0.00  0.00    +0.000 C 
ATOM      8  C   UNL     1      -5.211  -1.830 127.640  0.00  0.00    +0.000 C 
ATOM      9  C   UNL     1      -5.950  -0.574 127.764  0.00  0.00    +0.000 C 
ATOM     10  C   UNL     1      -5.093   0.496 127.046  0.00  0.00    +0.000 C 
ATOM     11  C   UNL     1      -7.377  -0.708 127.260  0.00  0.00    +0.000 C 
ATOM     12  C   UNL     1      -8.203  -1.885 127.688  0.00  0.00    +0.000 C 
ATOM     13  C   UNL     1      -8.118   0.634 127.321  0.00  0.00    +0.000 C 
ATOM     14  C   UNL     1      -9.352   0.649 126.466  0.00  0.00    +0.000 C 
ATOM     15  C   UNL     1      -8.735   0.676 125.005  0.00  0.00    +0.000 C 
ATOM     16  C   UNL     1      -8.320   1.902 124.369  0.00  0.00    +0.000 C 
ATOM     17  C   UNL     1      -8.507  -0.753 124.625  0.00  0.00    +0.000 C 
ATOM     18  C   UNL     1      -7.006  -2.380 124.851  0.00  0.00    +0.000 C 
ATOM     19  C   UNL     1      -5.021  -3.106 124.361  0.00  0.00    +0.000 C 
ENDROOT
BRANCH  15  20
ATOM     20  C   UNL     1      -8.040  -0.211 123.777  0.00  0.00    +0.000 C 
ATOM     21  C   UNL     1      -7.163   0.384 122.907  0.00  0.00    +0.000 C 
ENDBRANCH  15  20
BRANCH  17  22
ATOM     22  O   UNL     1      -9.869   0.002 123.342  0.00  0.00    +0.000 OA
ATOM     23  H   UNL     1     -10.745  -0.416 123.596  0.00  0.00    +0.000 HD
ENDBRANCH  17  22
BRANCH  13  24
ATOM     24  O   UNL     1      -8.321   0.796 128.695  0.00  0.00    +0.000 OA
BRANCH  24  25
ATOM     25  C   UNL     1      -8.235   2.068 129.107  0.00  0.00    +0.000 C 
ATOM     26  O   UNL     1      -9.079   2.924 128.877  0.00  0.00    +0.000 OA
BRANCH  25  27
ATOM     27  C   UNL     1      -6.944   2.255 129.866  0.00  0.00    +0.000 C 
BRANCH  27  28
ATOM     28  S   UNL     1      -6.146   3.627 129.071  0.00  0.00    +0.000 S 
BRANCH  28  29
ATOM     29  C   UNL     1      -4.398   3.600 129.655  0.00  0.00    +0.000 C 
ATOM     30  C   UNL     1      -3.466   4.034 128.505  0.00  0.00    +0.000 C 
ATOM     31  C   UNL     1      -3.926   5.390 128.070  0.00  0.00    +0.000 C 
ATOM     32  C   UNL     1      -3.402   6.747 128.044  0.00  0.00    +0.000 C 
ATOM     33  C   UNL     1      -4.152   7.256 129.915  0.00  0.00    +0.000 C 
ATOM     34  C   UNL     1      -4.736   5.941 130.132  0.00  0.00    +0.000 C 
ATOM     35  C   UNL     1      -4.328   4.662 130.778  0.00  0.00    +0.000 C 
ATOM     36  N   UNL     1      -3.616   6.051 129.284  0.00  0.00    +0.000 NA
ATOM     37  C   UNL     1      -2.100   6.415 129.818  0.00  0.00    +0.000 C 
ENDBRANCH  28  29
ENDBRANCH  27  28
ENDBRANCH  25  27
ENDBRANCH  24  25
ENDBRANCH  13  24
TORSDOF 7
ENDMDL
MODEL 9
REMARK VINA RESULT:      -8.9      4.183      6.288
REMARK  Name = Retapamulin
REMARK  12 active torsions:
REMARK  status: ('A' for Active; 'I' for Inactive)
REMARK    1  A    between atoms: C_10  and  C_11
REMARK    2  A    between atoms: C_12  and  C_13
REMARK    3  A    between atoms: C_14  and  O_24
REMARK    4  A    between atoms: C_16  and  C_17
REMARK    5  A    between atoms: C_16  and  C_18
REMARK    6  A    between atoms: C_20  and  O_21
REMARK    7  A    between atoms: C_22  and  C_23
REMARK    8  A    between atoms: O_24  and  C_25
REMARK    9  A    between atoms: C_25  and  C_27
REMARK   10  A    between atoms: C_27  and  S_28
REMARK   11  A    between atoms: S_28  and  C_29
REMARK   12  A    between atoms: N_36  and  C_37
REMARK                            x       y       z     vdW  Elec       q    Type
REMARK                         _______ _______ _______ _____ _____    ______ ____
ROOT
ATOM      1  C   UNL     1      -7.285  -1.271 125.789  0.00  0.00    +0.000 C 
ATOM      2  C   UNL     1      -8.843  -2.558 125.353  0.00  0.00    +0.000 C 
ATOM      3  O   UNL     1     -10.055  -2.429 125.616  0.00  0.00    +0.000 OA
ATOM      4  C   UNL     1      -8.510  -3.149 123.612  0.00  0.00    +0.000 C 
ATOM      5  C   UNL     1      -6.956  -3.161 123.630  0.00  0.00    +0.000 C 
ATOM      6  C   UNL     1      -6.058  -1.779 124.907  0.00  0.00    +0.000 C 
ATOM      7  C   UNL     1      -5.709  -2.272 126.290  0.00  0.00    +0.000 C 
ATOM      8  C   UNL     1      -5.221  -1.823 127.524  0.00  0.00    +0.000 C 
ATOM      9  C   UNL     1      -5.966  -0.566 127.592  0.00  0.00    +0.000 C 
ATOM     10  C   UNL     1      -5.134   0.465 126.793  0.00  0.00    +0.000 C 
ATOM     11  C   UNL     1      -7.403  -0.738 127.130  0.00  0.00    +0.000 C 
ATOM     12  C   UNL     1      -8.211  -1.893 127.645  0.00  0.00    +0.000 C 
ATOM     13  C   UNL     1      -8.153   0.601 127.130  0.00  0.00    +0.000 C 
ATOM     14  C   UNL     1      -9.406   0.559 126.305  0.00  0.00    +0.000 C 
ATOM     15  C   UNL     1      -8.823   0.505 124.831  0.00  0.00    +0.000 C 
ATOM     16  C   UNL     1      -8.432   1.694 124.115  0.00  0.00    +0.000 C 
ATOM     17  C   UNL     1      -8.593  -0.943 124.529  0.00  0.00    +0.000 C 
ATOM     18  C   UNL     1      -7.076  -2.544 124.815  0.00  0.00    +0.000 C 
ATOM     19  C   UNL     1      -5.097  -3.286 124.321  0.00  0.00    +0.000 C 
ENDROOT
BRANCH  15  20
ATOM     20  C   UNL     1      -8.150  -0.448 123.641  0.00  0.00    +0.000 C 
ATOM     21  C   UNL     1      -7.247   0.085 122.758  0.00  0.00    +0.000 C 
ENDBRANCH  15  20
BRANCH  17  22
ATOM     22  O   UNL     1      -9.990  -0.272 123.237  0.00  0.00    +0.000 OA
ATOM     23  H   UNL     1      -9.871   0.723 123.197  0.00  0.00    +0.000 HD
ENDBRANCH  17  22
BRANCH  13  24
ATOM     24  O   UNL     1      -8.325   0.842 128.497  0.00  0.00    +0.000 OA
BRANCH  24  25
ATOM     25  C   UNL     1      -8.036   2.098 128.865  0.00  0.00    +0.000 C 
ATOM     26  O   UNL     1      -8.493   3.095 128.323  0.00  0.00    +0.000 OA
BRANCH  25  27
ATOM     27  C   UNL     1      -7.063   2.063 130.019  0.00  0.00    +0.000 C 
BRANCH  27  28
ATOM     28  S   UNL     1      -7.627   0.728 131.045  0.00  0.00    +0.000 S 
BRANCH  28  29
ATOM     29  C   UNL     1      -6.156   0.184 132.013  0.00  0.00    +0.000 C 
ATOM     30  C   UNL     1      -6.622  -0.460 133.335  0.00  0.00    +0.000 C 
ATOM     31  C   UNL     1      -7.538  -1.583 132.965  0.00  0.00    +0.000 C 
ATOM     32  C   UNL     1      -7.567  -3.033 133.087  0.00  0.00    +0.000 C 
ATOM     33  C   UNL     1      -6.647  -3.377 131.255  0.00  0.00    +0.000 C 
ATOM     34  C   UNL     1      -6.512  -1.959 130.961  0.00  0.00    +0.000 C 
ATOM     35  C   UNL     1      -5.477  -0.902 131.146  0.00  0.00    +0.000 C 
ATOM     36  N   UNL     1      -6.558  -2.367 132.309  0.00  0.00    +0.000 NA
ATOM     37  C   UNL     1      -5.350  -3.209 133.048  0.00  0.00    +0.000 C 
ENDBRANCH  28  29
ENDBRANCH  27  28
ENDBRANCH  25  27
ENDBRANCH  24  25
ENDBRANCH  13  24
TORSDOF 7
ENDMDL
