MODEL 1
REMARK VINA RESULT:      -8.7      0.000      0.000
REMARK  Name = Revefenacin
REMARK  12 active torsions:
REMARK  status: ('A' for Active; 'I' for Inactive)
REMARK    1  A    between atoms: C_1  and  N_2
REMARK    2  A    between atoms: N_2  and  C_3
REMARK    3  A    between atoms: C_3  and  C_4
REMARK    4  A    between atoms: C_4  and  N_5
REMARK    5  A    between atoms: C_8  and  O_11
REMARK    6  A    between atoms: O_11  and  C_12
REMARK    7  A    between atoms: N_14  and  C_15
REMARK    8  A    between atoms: C_20  and  C_21
REMARK    9  A    between atoms: C_27  and  C_29
REMARK   10  A    between atoms: C_32  and  C_33
REMARK   11  A    between atoms: C_33  and  N_34
REMARK   12  A    between atoms: C_37  and  C_40
REMARK                            x       y       z     vdW  Elec       q    Type
REMARK                         _______ _______ _______ _____ _____    ______ ____
ROOT
ATOM      1  C   UNL     1      -8.281  -0.565 132.195  0.00  0.00    +0.000 C 
ENDROOT
BRANCH   1   2
ATOM      2  N   UNL     1      -8.824   0.415 131.251  0.00  0.00    +0.000 NA
ATOM      3  C   UNL     1      -9.352   1.522 132.036  0.00  0.00    +0.000 C 
ATOM      4  C   UNL     1      -9.938   2.610 131.164  0.00  0.00    +0.000 C 
ATOM      5  C   UNL     1      -8.863   3.174 130.234  0.00  0.00    +0.000 C 
ATOM      6  C   UNL     1      -8.277   2.004 129.439  0.00  0.00    +0.000 C 
ATOM      7  C   UNL     1      -7.760   0.905 130.362  0.00  0.00    +0.000 C 
BRANCH   5   8
ATOM      8  O   UNL     1      -7.806   3.880 130.968  0.00  0.00    +0.000 OA
BRANCH   8   9
ATOM      9  C   UNL     1      -6.858   4.467 130.170  0.00  0.00    +0.000 C 
ATOM     10  O   UNL     1      -7.160   5.248 129.260  0.00  0.00    +0.000 OA
ATOM     11  N   UNL     1      -5.558   4.085 130.459  0.00  0.00    +0.000 N 
ATOM     12  H   UNL     1      -5.406   3.247 131.004  0.00  0.00    +0.000 HD
BRANCH  11  13
ATOM     13  C   UNL     1      -4.424   4.833 130.007  0.00  0.00    +0.000 A 
ATOM     14  C   UNL     1      -3.940   5.920 130.746  0.00  0.00    +0.000 A 
ATOM     15  C   UNL     1      -2.827   6.656 130.292  0.00  0.00    +0.000 A 
ATOM     16  C   UNL     1      -2.174   6.308 129.112  0.00  0.00    +0.000 A 
ATOM     17  C   UNL     1      -2.669   5.259 128.355  0.00  0.00    +0.000 A 
ATOM     18  C   UNL     1      -3.790   4.521 128.782  0.00  0.00    +0.000 A 
BRANCH  18  19
ATOM     19  C   UNL     1      -4.299   3.506 127.866  0.00  0.00    +0.000 A 
ATOM     20  C   UNL     1      -4.648   3.864 126.555  0.00  0.00    +0.000 A 
ATOM     21  C   UNL     1      -5.127   2.909 125.669  0.00  0.00    +0.000 A 
ATOM     22  C   UNL     1      -5.219   1.582 126.078  0.00  0.00    +0.000 A 
ATOM     23  C   UNL     1      -4.864   1.214 127.379  0.00  0.00    +0.000 A 
ATOM     24  C   UNL     1      -4.389   2.168 128.266  0.00  0.00    +0.000 A 
ENDBRANCH  18  19
ENDBRANCH  11  13
ENDBRANCH   8   9
ENDBRANCH   5   8
ENDBRANCH   1   2
BRANCH   1  25
ATOM     25  C   UNL     1      -6.777  -0.685 132.034  0.00  0.00    +0.000 C 
BRANCH  25  27
ATOM     26  C   UNL     1      -5.681  -2.364 133.592  0.00  0.00    +0.000 C 
ATOM     27  N   UNL     1      -6.222  -2.032 132.281  0.00  0.00    +0.000 N 
ATOM     28  C   UNL     1      -6.267  -3.101 131.368  0.00  0.00    +0.000 C 
ATOM     29  O   UNL     1      -5.850  -4.227 131.631  0.00  0.00    +0.000 OA
BRANCH  28  30
ATOM     30  C   UNL     1      -6.764  -2.887 129.999  0.00  0.00    +0.000 A 
ATOM     31  C   UNL     1      -8.031  -3.311 129.560  0.00  0.00    +0.000 A 
ATOM     32  C   UNL     1      -8.414  -3.193 128.207  0.00  0.00    +0.000 A 
ATOM     33  C   UNL     1      -7.572  -2.552 127.313  0.00  0.00    +0.000 A 
ATOM     34  C   UNL     1      -6.319  -2.192 127.808  0.00  0.00    +0.000 A 
ATOM     35  C   UNL     1      -5.881  -2.392 129.082  0.00  0.00    +0.000 A 
BRANCH  33  36
ATOM     36  C   UNL     1      -7.985  -2.216 125.886  0.00  0.00    +0.000 C 
BRANCH  36  37
ATOM     37  N   UNL     1      -7.778  -0.800 125.488  0.00  0.00    +0.000 NA
ATOM     38  C   UNL     1      -7.626  -0.680 124.022  0.00  0.00    +0.000 C 
ATOM     39  C   UNL     1      -7.677   0.753 123.516  0.00  0.00    +0.000 C 
ATOM     40  C   UNL     1      -8.868   1.543 124.092  0.00  0.00    +0.000 C 
ATOM     41  C   UNL     1      -8.815   1.484 125.620  0.00  0.00    +0.000 C 
ATOM     42  C   UNL     1      -8.772   0.058 126.150  0.00  0.00    +0.000 C 
BRANCH  40  43
ATOM     43  C   UNL     1     -10.211   1.129 123.458  0.00  0.00    +0.000 C 
ATOM     44  N   UNL     1     -10.215   0.626 122.185  0.00  0.00    +0.000 N 
ATOM     45  O   UNL     1     -11.282   1.220 124.053  0.00  0.00    +0.000 OA
ATOM     46  H   UNL     1      -9.444   0.726 121.541  0.00  0.00    +0.000 HD
ATOM     47  H   UNL     1     -11.123   0.539 121.742  0.00  0.00    +0.000 HD
ENDBRANCH  40  43
ENDBRANCH  36  37
ENDBRANCH  33  36
ENDBRANCH  28  30
ENDBRANCH  25  27
ENDBRANCH   1  25
TORSDOF 11
ENDMDL
MODEL 2
REMARK VINA RESULT:      -8.6      1.879      2.862
REMARK  Name = Revefenacin
REMARK  12 active torsions:
REMARK  status: ('A' for Active; 'I' for Inactive)
REMARK    1  A    between atoms: C_1  and  N_2
REMARK    2  A    between atoms: N_2  and  C_3
REMARK    3  A    between atoms: C_3  and  C_4
REMARK    4  A    between atoms: C_4  and  N_5
REMARK    5  A    between atoms: C_8  and  O_11
REMARK    6  A    between atoms: O_11  and  C_12
REMARK    7  A    between atoms: N_14  and  C_15
REMARK    8  A    between atoms: C_20  and  C_21
REMARK    9  A    between atoms: C_27  and  C_29
REMARK   10  A    between atoms: C_32  and  C_33
REMARK   11  A    between atoms: C_33  and  N_34
REMARK   12  A    between atoms: C_37  and  C_40
REMARK                            x       y       z     vdW  Elec       q    Type
REMARK                         _______ _______ _______ _____ _____    ______ ____
ROOT
ATOM      1  C   UNL     1      -8.619  -0.650 132.215  0.00  0.00    +0.000 C 
ENDROOT
BRANCH   1   2
ATOM      2  N   UNL     1      -8.476   0.803 132.336  0.00  0.00    +0.000 NA
ATOM      3  C   UNL     1      -7.452   1.215 131.388  0.00  0.00    +0.000 C 
ATOM      4  C   UNL     1      -7.218   2.709 131.416  0.00  0.00    +0.000 C 
ATOM      5  C   UNL     1      -8.506   3.450 131.055  0.00  0.00    +0.000 C 
ATOM      6  C   UNL     1      -9.596   2.985 132.024  0.00  0.00    +0.000 C 
ATOM      7  C   UNL     1      -9.747   1.467 132.008  0.00  0.00    +0.000 C 
BRANCH   5   8
ATOM      8  O   UNL     1      -8.916   3.210 129.665  0.00  0.00    +0.000 OA
BRANCH   8   9
ATOM      9  C   UNL     1      -8.195   3.913 128.734  0.00  0.00    +0.000 C 
ATOM     10  O   UNL     1      -7.901   5.104 128.895  0.00  0.00    +0.000 OA
ATOM     11  N   UNL     1      -7.859   3.181 127.607  0.00  0.00    +0.000 N 
ATOM     12  H   UNL     1      -8.364   2.328 127.412  0.00  0.00    +0.000 HD
BRANCH  11  13
ATOM     13  C   UNL     1      -6.826   3.597 126.706  0.00  0.00    +0.000 A 
ATOM     14  C   UNL     1      -7.135   4.297 125.533  0.00  0.00    +0.000 A 
ATOM     15  C   UNL     1      -6.114   4.697 124.648  0.00  0.00    +0.000 A 
ATOM     16  C   UNL     1      -4.778   4.422 124.928  0.00  0.00    +0.000 A 
ATOM     17  C   UNL     1      -4.466   3.696 126.065  0.00  0.00    +0.000 A 
ATOM     18  C   UNL     1      -5.472   3.272 126.955  0.00  0.00    +0.000 A 
BRANCH  18  19
ATOM     19  C   UNL     1      -5.055   2.424 128.067  0.00  0.00    +0.000 A 
ATOM     20  C   UNL     1      -5.317   1.047 128.028  0.00  0.00    +0.000 A 
ATOM     21  C   UNL     1      -4.922   0.225 129.074  0.00  0.00    +0.000 A 
ATOM     22  C   UNL     1      -4.222   0.772 130.145  0.00  0.00    +0.000 A 
ATOM     23  C   UNL     1      -3.947   2.142 130.189  0.00  0.00    +0.000 A 
ATOM     24  C   UNL     1      -4.346   2.964 129.146  0.00  0.00    +0.000 A 
ENDBRANCH  18  19
ENDBRANCH  11  13
ENDBRANCH   8   9
ENDBRANCH   5   8
ENDBRANCH   1   2
BRANCH   1  25
ATOM     25  C   UNL     1      -7.926  -1.151 130.962  0.00  0.00    +0.000 C 
BRANCH  25  27
ATOM     26  C   UNL     1      -6.750  -2.845 132.445  0.00  0.00    +0.000 C 
ATOM     27  N   UNL     1      -7.175  -2.416 131.120  0.00  0.00    +0.000 N 
ATOM     28  C   UNL     1      -6.917  -3.332 130.085  0.00  0.00    +0.000 C 
ATOM     29  O   UNL     1      -6.344  -4.405 130.266  0.00  0.00    +0.000 OA
BRANCH  28  30
ATOM     30  C   UNL     1      -7.272  -3.003 128.694  0.00  0.00    +0.000 A 
ATOM     31  C   UNL     1      -8.531  -3.277 128.130  0.00  0.00    +0.000 A 
ATOM     32  C   UNL     1      -8.783  -3.054 126.760  0.00  0.00    +0.000 A 
ATOM     33  C   UNL     1      -7.809  -2.455 125.976  0.00  0.00    +0.000 A 
ATOM     34  C   UNL     1      -6.575  -2.246 126.591  0.00  0.00    +0.000 A 
ATOM     35  C   UNL     1      -6.270  -2.552 127.883  0.00  0.00    +0.000 A 
BRANCH  33  36
ATOM     36  C   UNL     1      -8.064  -2.009 124.542  0.00  0.00    +0.000 C 
BRANCH  36  37
ATOM     37  N   UNL     1      -9.075  -0.934 124.388  0.00  0.00    +0.000 NA
ATOM     38  C   UNL     1      -8.708   0.257 125.184  0.00  0.00    +0.000 C 
ATOM     39  C   UNL     1      -9.546   1.486 124.873  0.00  0.00    +0.000 C 
ATOM     40  C   UNL     1      -9.666   1.754 123.360  0.00  0.00    +0.000 C 
ATOM     41  C   UNL     1     -10.219   0.503 122.674  0.00  0.00    +0.000 C 
ATOM     42  C   UNL     1      -9.389  -0.739 122.964  0.00  0.00    +0.000 C 
BRANCH  40  43
ATOM     43  C   UNL     1      -8.366   2.323 122.758  0.00  0.00    +0.000 C 
ATOM     44  N   UNL     1      -8.429   3.460 122.000  0.00  0.00    +0.000 N 
ATOM     45  O   UNL     1      -7.268   1.801 122.940  0.00  0.00    +0.000 OA
ATOM     46  H   UNL     1      -9.283   3.823 121.605  0.00  0.00    +0.000 HD
ATOM     47  H   UNL     1      -7.592   3.694 121.477  0.00  0.00    +0.000 HD
ENDBRANCH  40  43
ENDBRANCH  36  37
ENDBRANCH  33  36
ENDBRANCH  28  30
ENDBRANCH  25  27
ENDBRANCH   1  25
TORSDOF 11
ENDMDL
MODEL 3
REMARK VINA RESULT:      -8.6      2.372      6.674
REMARK  Name = Revefenacin
REMARK  12 active torsions:
REMARK  status: ('A' for Active; 'I' for Inactive)
REMARK    1  A    between atoms: C_1  and  N_2
REMARK    2  A    between atoms: N_2  and  C_3
REMARK    3  A    between atoms: C_3  and  C_4
REMARK    4  A    between atoms: C_4  and  N_5
REMARK    5  A    between atoms: C_8  and  O_11
REMARK    6  A    between atoms: O_11  and  C_12
REMARK    7  A    between atoms: N_14  and  C_15
REMARK    8  A    between atoms: C_20  and  C_21
REMARK    9  A    between atoms: C_27  and  C_29
REMARK   10  A    between atoms: C_32  and  C_33
REMARK   11  A    between atoms: C_33  and  N_34
REMARK   12  A    between atoms: C_37  and  C_40
REMARK                            x       y       z     vdW  Elec       q    Type
REMARK                         _______ _______ _______ _____ _____    ______ ____
ROOT
ATOM      1  C   UNL     1      -6.582   5.806 131.127  0.00  0.00    +0.000 C 
ENDROOT
BRANCH   1   2
ATOM      2  N   UNL     1      -5.384   5.042 130.770  0.00  0.00    +0.000 NA
ATOM      3  C   UNL     1      -5.693   3.635 130.978  0.00  0.00    +0.000 C 
ATOM      4  C   UNL     1      -4.524   2.739 130.634  0.00  0.00    +0.000 C 
ATOM      5  C   UNL     1      -4.141   2.915 129.164  0.00  0.00    +0.000 C 
ATOM      6  C   UNL     1      -3.858   4.402 128.934  0.00  0.00    +0.000 C 
ATOM      7  C   UNL     1      -5.040   5.268 129.358  0.00  0.00    +0.000 C 
BRANCH   5   8
ATOM      8  O   UNL     1      -5.193   2.443 128.255  0.00  0.00    +0.000 OA
BRANCH   8   9
ATOM      9  C   UNL     1      -4.918   2.634 126.925  0.00  0.00    +0.000 C 
ATOM     10  O   UNL     1      -3.861   2.249 126.412  0.00  0.00    +0.000 OA
ATOM     11  N   UNL     1      -5.908   3.313 126.234  0.00  0.00    +0.000 N 
ATOM     12  H   UNL     1      -6.593   3.842 126.757  0.00  0.00    +0.000 HD
BRANCH  11  13
ATOM     13  C   UNL     1      -5.990   3.296 124.804  0.00  0.00    +0.000 A 
ATOM     14  C   UNL     1      -5.399   4.310 124.039  0.00  0.00    +0.000 A 
ATOM     15  C   UNL     1      -5.490   4.290 122.633  0.00  0.00    +0.000 A 
ATOM     16  C   UNL     1      -6.151   3.257 121.974  0.00  0.00    +0.000 A 
ATOM     17  C   UNL     1      -6.772   2.272 122.723  0.00  0.00    +0.000 A 
ATOM     18  C   UNL     1      -6.708   2.281 124.130  0.00  0.00    +0.000 A 
BRANCH  18  19
ATOM     19  C   UNL     1      -7.482   1.263 124.832  0.00  0.00    +0.000 A 
ATOM     20  C   UNL     1      -8.848   1.470 125.073  0.00  0.00    +0.000 A 
ATOM     21  C   UNL     1      -9.600   0.508 125.733  0.00  0.00    +0.000 A 
ATOM     22  C   UNL     1      -8.997  -0.686 126.118  0.00  0.00    +0.000 A 
ATOM     23  C   UNL     1      -7.639  -0.906 125.873  0.00  0.00    +0.000 A 
ATOM     24  C   UNL     1      -6.886   0.056 125.217  0.00  0.00    +0.000 A 
ENDBRANCH  18  19
ENDBRANCH  11  13
ENDBRANCH   8   9
ENDBRANCH   5   8
ENDBRANCH   1   2
BRANCH   1  25
ATOM     25  C   UNL     1      -7.646   4.890 131.703  0.00  0.00    +0.000 C 
BRANCH  25  27
ATOM     26  C   UNL     1      -9.624   6.424 131.275  0.00  0.00    +0.000 C 
ATOM     27  N   UNL     1      -9.013   5.105 131.183  0.00  0.00    +0.000 N 
ATOM     28  C   UNL     1      -9.767   4.148 130.482  0.00  0.00    +0.000 C 
ATOM     29  O   UNL     1     -10.877   4.382 130.008  0.00  0.00    +0.000 OA
BRANCH  28  30
ATOM     30  C   UNL     1      -9.272   2.768 130.344  0.00  0.00    +0.000 A 
ATOM     31  C   UNL     1      -9.304   1.825 131.388  0.00  0.00    +0.000 A 
ATOM     32  C   UNL     1      -8.706   0.555 131.245  0.00  0.00    +0.000 A 
ATOM     33  C   UNL     1      -8.173   0.186 130.020  0.00  0.00    +0.000 A 
ATOM     34  C   UNL     1      -8.142   1.182 129.044  0.00  0.00    +0.000 A 
ATOM     35  C   UNL     1      -8.613   2.452 129.190  0.00  0.00    +0.000 A 
BRANCH  33  36
ATOM     36  C   UNL     1      -7.682  -1.226 129.726  0.00  0.00    +0.000 C 
BRANCH  36  37
ATOM     37  N   UNL     1      -6.241  -1.331 129.383  0.00  0.00    +0.000 NA
ATOM     38  C   UNL     1      -5.397  -0.807 130.478  0.00  0.00    +0.000 C 
ATOM     39  C   UNL     1      -3.918  -1.121 130.317  0.00  0.00    +0.000 C 
ATOM     40  C   UNL     1      -3.660  -2.603 129.978  0.00  0.00    +0.000 C 
ATOM     41  C   UNL     1      -4.458  -2.975 128.726  0.00  0.00    +0.000 C 
ATOM     42  C   UNL     1      -5.944  -2.677 128.869  0.00  0.00    +0.000 C 
BRANCH  40  43
ATOM     43  C   UNL     1      -3.863  -3.528 131.194  0.00  0.00    +0.000 C 
ATOM     44  N   UNL     1      -3.205  -3.243 132.360  0.00  0.00    +0.000 N 
ATOM     45  O   UNL     1      -4.603  -4.509 131.165  0.00  0.00    +0.000 OA
ATOM     46  H   UNL     1      -2.415  -2.618 132.418  0.00  0.00    +0.000 HD
ATOM     47  H   UNL     1      -3.220  -3.969 133.069  0.00  0.00    +0.000 HD
ENDBRANCH  40  43
ENDBRANCH  36  37
ENDBRANCH  33  36
ENDBRANCH  28  30
ENDBRANCH  25  27
ENDBRANCH   1  25
TORSDOF 11
ENDMDL
MODEL 4
REMARK VINA RESULT:      -8.6      2.364      4.177
REMARK  Name = Revefenacin
REMARK  12 active torsions:
REMARK  status: ('A' for Active; 'I' for Inactive)
REMARK    1  A    between atoms: C_1  and  N_2
REMARK    2  A    between atoms: N_2  and  C_3
REMARK    3  A    between atoms: C_3  and  C_4
REMARK    4  A    between atoms: C_4  and  N_5
REMARK    5  A    between atoms: C_8  and  O_11
REMARK    6  A    between atoms: O_11  and  C_12
REMARK    7  A    between atoms: N_14  and  C_15
REMARK    8  A    between atoms: C_20  and  C_21
REMARK    9  A    between atoms: C_27  and  C_29
REMARK   10  A    between atoms: C_32  and  C_33
REMARK   11  A    between atoms: C_33  and  N_34
REMARK   12  A    between atoms: C_37  and  C_40
REMARK                            x       y       z     vdW  Elec       q    Type
REMARK                         _______ _______ _______ _____ _____    ______ ____
ROOT
ATOM      1  C   UNL     1      -5.298   0.521 133.471  0.00  0.00    +0.000 C 
ENDROOT
BRANCH   1   2
ATOM      2  N   UNL     1      -4.721   1.194 132.305  0.00  0.00    +0.000 NA
ATOM      3  C   UNL     1      -4.721   0.233 131.211  0.00  0.00    +0.000 C 
ATOM      4  C   UNL     1      -4.150   0.819 129.939  0.00  0.00    +0.000 C 
ATOM      5  C   UNL     1      -4.981   2.023 129.495  0.00  0.00    +0.000 C 
ATOM      6  C   UNL     1      -5.018   3.015 130.661  0.00  0.00    +0.000 C 
ATOM      7  C   UNL     1      -5.538   2.360 131.936  0.00  0.00    +0.000 C 
BRANCH   5   8
ATOM      8  O   UNL     1      -6.342   1.644 129.096  0.00  0.00    +0.000 OA
BRANCH   8   9
ATOM      9  C   UNL     1      -6.755   2.188 127.908  0.00  0.00    +0.000 C 
ATOM     10  O   UNL     1      -7.638   3.053 127.854  0.00  0.00    +0.000 OA
ATOM     11  N   UNL     1      -6.120   1.664 126.793  0.00  0.00    +0.000 N 
ATOM     12  H   UNL     1      -5.635   0.781 126.879  0.00  0.00    +0.000 HD
BRANCH  11  13
ATOM     13  C   UNL     1      -6.132   2.327 125.524  0.00  0.00    +0.000 A 
ATOM     14  C   UNL     1      -6.913   1.841 124.468  0.00  0.00    +0.000 A 
ATOM     15  C   UNL     1      -6.916   2.495 123.220  0.00  0.00    +0.000 A 
ATOM     16  C   UNL     1      -6.159   3.646 123.015  0.00  0.00    +0.000 A 
ATOM     17  C   UNL     1      -5.354   4.111 124.040  0.00  0.00    +0.000 A 
ATOM     18  C   UNL     1      -5.324   3.463 125.291  0.00  0.00    +0.000 A 
BRANCH  18  19
ATOM     19  C   UNL     1      -4.366   3.966 126.270  0.00  0.00    +0.000 A 
ATOM     20  C   UNL     1      -3.136   3.313 126.440  0.00  0.00    +0.000 A 
ATOM     21  C   UNL     1      -2.212   3.781 127.363  0.00  0.00    +0.000 A 
ATOM     22  C   UNL     1      -2.496   4.933 128.091  0.00  0.00    +0.000 A 
ATOM     23  C   UNL     1      -3.714   5.596 127.922  0.00  0.00    +0.000 A 
ATOM     24  C   UNL     1      -4.640   5.127 127.003  0.00  0.00    +0.000 A 
ENDBRANCH  18  19
ENDBRANCH  11  13
ENDBRANCH   8   9
ENDBRANCH   5   8
ENDBRANCH   1   2
BRANCH   1  25
ATOM     25  C   UNL     1      -5.151  -0.984 133.346  0.00  0.00    +0.000 C 
BRANCH  25  27
ATOM     26  C   UNL     1      -6.225  -2.012 135.406  0.00  0.00    +0.000 C 
ATOM     27  N   UNL     1      -6.233  -1.777 133.968  0.00  0.00    +0.000 N 
ATOM     28  C   UNL     1      -7.372  -2.253 133.294  0.00  0.00    +0.000 C 
ATOM     29  O   UNL     1      -8.283  -2.856 133.857  0.00  0.00    +0.000 OA
BRANCH  28  30
ATOM     30  C   UNL     1      -7.487  -2.105 131.833  0.00  0.00    +0.000 A 
ATOM     31  C   UNL     1      -6.892  -2.988 130.915  0.00  0.00    +0.000 A 
ATOM     32  C   UNL     1      -6.928  -2.735 129.527  0.00  0.00    +0.000 A 
ATOM     33  C   UNL     1      -7.653  -1.655 129.050  0.00  0.00    +0.000 A 
ATOM     34  C   UNL     1      -8.184  -0.802 130.017  0.00  0.00    +0.000 A 
ATOM     35  C   UNL     1      -8.071  -0.962 131.365  0.00  0.00    +0.000 A 
BRANCH  33  36
ATOM     36  C   UNL     1      -7.899  -1.418 127.565  0.00  0.00    +0.000 C 
BRANCH  36  37
ATOM     37  N   UNL     1      -7.304  -2.433 126.659  0.00  0.00    +0.000 NA
ATOM     38  C   UNL     1      -8.334  -3.024 125.777  0.00  0.00    +0.000 C 
ATOM     39  C   UNL     1      -7.765  -3.870 124.650  0.00  0.00    +0.000 C 
ATOM     40  C   UNL     1      -6.622  -3.161 123.896  0.00  0.00    +0.000 C 
ATOM     41  C   UNL     1      -5.541  -2.752 124.898  0.00  0.00    +0.000 C 
ATOM     42  C   UNL     1      -6.088  -1.895 126.032  0.00  0.00    +0.000 C 
BRANCH  40  43
ATOM     43  C   UNL     1      -7.135  -2.036 122.975  0.00  0.00    +0.000 C 
ATOM     44  N   UNL     1      -8.417  -2.099 122.502  0.00  0.00    +0.000 N 
ATOM     45  O   UNL     1      -6.440  -1.073 122.654  0.00  0.00    +0.000 OA
ATOM     46  H   UNL     1      -8.976  -2.939 122.513  0.00  0.00    +0.000 HD
ATOM     47  H   UNL     1      -8.653  -1.447 121.762  0.00  0.00    +0.000 HD
ENDBRANCH  40  43
ENDBRANCH  36  37
ENDBRANCH  33  36
ENDBRANCH  28  30
ENDBRANCH  25  27
ENDBRANCH   1  25
TORSDOF 11
ENDMDL
MODEL 5
REMARK VINA RESULT:      -8.5      3.193      8.381
REMARK  Name = Revefenacin
REMARK  12 active torsions:
REMARK  status: ('A' for Active; 'I' for Inactive)
REMARK    1  A    between atoms: C_1  and  N_2
REMARK    2  A    between atoms: N_2  and  C_3
REMARK    3  A    between atoms: C_3  and  C_4
REMARK    4  A    between atoms: C_4  and  N_5
REMARK    5  A    between atoms: C_8  and  O_11
REMARK    6  A    between atoms: O_11  and  C_12
REMARK    7  A    between atoms: N_14  and  C_15
REMARK    8  A    between atoms: C_20  and  C_21
REMARK    9  A    between atoms: C_27  and  C_29
REMARK   10  A    between atoms: C_32  and  C_33
REMARK   11  A    between atoms: C_33  and  N_34
REMARK   12  A    between atoms: C_37  and  C_40
REMARK                            x       y       z     vdW  Elec       q    Type
REMARK                         _______ _______ _______ _____ _____    ______ ____
ROOT
ATOM      1  C   UNL     1      -3.492   3.793 128.902  0.00  0.00    +0.000 C 
ENDROOT
BRANCH   1   2
ATOM      2  N   UNL     1      -4.893   3.853 128.476  0.00  0.00    +0.000 NA
ATOM      3  C   UNL     1      -5.011   3.043 127.272  0.00  0.00    +0.000 C 
ATOM      4  C   UNL     1      -6.426   3.022 126.737  0.00  0.00    +0.000 C 
ATOM      5  C   UNL     1      -7.375   2.437 127.783  0.00  0.00    +0.000 C 
ATOM      6  C   UNL     1      -7.219   3.262 129.064  0.00  0.00    +0.000 C 
ATOM      7  C   UNL     1      -5.766   3.307 129.525  0.00  0.00    +0.000 C 
BRANCH   5   8
ATOM      8  O   UNL     1      -7.106   1.018 128.047  0.00  0.00    +0.000 OA
BRANCH   8   9
ATOM      9  C   UNL     1      -7.133   0.221 126.932  0.00  0.00    +0.000 C 
ATOM     10  O   UNL     1      -6.113  -0.325 126.493  0.00  0.00    +0.000 OA
ATOM     11  N   UNL     1      -8.382   0.111 126.343  0.00  0.00    +0.000 N 
ATOM     12  H   UNL     1      -9.090   0.795 126.572  0.00  0.00    +0.000 HD
BRANCH  11  13
ATOM     13  C   UNL     1      -8.700  -0.932 125.415  0.00  0.00    +0.000 A 
ATOM     14  C   UNL     1      -8.962  -2.234 125.860  0.00  0.00    +0.000 A 
ATOM     15  C   UNL     1      -9.268  -3.257 124.941  0.00  0.00    +0.000 A 
ATOM     16  C   UNL     1      -9.334  -2.994 123.576  0.00  0.00    +0.000 A 
ATOM     17  C   UNL     1      -9.038  -1.720 123.122  0.00  0.00    +0.000 A 
ATOM     18  C   UNL     1      -8.714  -0.686 124.023  0.00  0.00    +0.000 A 
BRANCH  18  19
ATOM     19  C   UNL     1      -8.314   0.592 123.443  0.00  0.00    +0.000 A 
ATOM     20  C   UNL     1      -9.294   1.528 123.081  0.00  0.00    +0.000 A 
ATOM     21  C   UNL     1      -8.931   2.751 122.533  0.00  0.00    +0.000 A 
ATOM     22  C   UNL     1      -7.582   3.060 122.386  0.00  0.00    +0.000 A 
ATOM     23  C   UNL     1      -6.598   2.138 122.753  0.00  0.00    +0.000 A 
ATOM     24  C   UNL     1      -6.960   0.915 123.296  0.00  0.00    +0.000 A 
ENDBRANCH  18  19
ENDBRANCH  11  13
ENDBRANCH   8   9
ENDBRANCH   5   8
ENDBRANCH   1   2
BRANCH   1  25
ATOM     25  C   UNL     1      -3.290   4.584 130.181  0.00  0.00    +0.000 C 
BRANCH  25  27
ATOM     26  C   UNL     1      -2.003   6.551 129.220  0.00  0.00    +0.000 C 
ATOM     27  N   UNL     1      -3.122   6.042 130.001  0.00  0.00    +0.000 N 
ATOM     28  C   UNL     1      -4.036   7.017 130.438  0.00  0.00    +0.000 C 
ATOM     29  O   UNL     1      -3.895   8.218 130.215  0.00  0.00    +0.000 OA
BRANCH  28  30
ATOM     30  C   UNL     1      -5.195   6.633 131.262  0.00  0.00    +0.000 A 
ATOM     31  C   UNL     1      -5.097   5.825 132.409  0.00  0.00    +0.000 A 
ATOM     32  C   UNL     1      -6.249   5.385 133.094  0.00  0.00    +0.000 A 
ATOM     33  C   UNL     1      -7.495   5.842 132.697  0.00  0.00    +0.000 A 
ATOM     34  C   UNL     1      -7.520   6.607 131.531  0.00  0.00    +0.000 A 
ATOM     35  C   UNL     1      -6.434   6.957 130.787  0.00  0.00    +0.000 A 
BRANCH  33  36
ATOM     36  C   UNL     1      -8.766   5.568 133.491  0.00  0.00    +0.000 C 
BRANCH  36  37
ATOM     37  N   UNL     1      -9.960   5.239 132.673  0.00  0.00    +0.000 NA
ATOM     38  C   UNL     1     -10.727   6.459 132.341  0.00  0.00    +0.000 C 
ATOM     39  C   UNL     1     -11.806   6.239 131.292  0.00  0.00    +0.000 C 
ATOM     40  C   UNL     1     -11.288   5.467 130.062  0.00  0.00    +0.000 C 
ATOM     41  C   UNL     1     -10.671   4.146 130.525  0.00  0.00    +0.000 C 
ATOM     42  C   UNL     1      -9.581   4.342 131.570  0.00  0.00    +0.000 C 
BRANCH  40  43
ATOM     43  C   UNL     1     -10.394   6.336 129.155  0.00  0.00    +0.000 C 
ATOM     44  N   UNL     1     -10.587   7.691 129.138  0.00  0.00    +0.000 N 
ATOM     45  O   UNL     1      -9.503   5.864 128.453  0.00  0.00    +0.000 OA
ATOM     46  H   UNL     1     -11.419   8.142 129.486  0.00  0.00    +0.000 HD
ATOM     47  H   UNL     1     -10.110   8.200 128.402  0.00  0.00    +0.000 HD
ENDBRANCH  40  43
ENDBRANCH  36  37
ENDBRANCH  33  36
ENDBRANCH  28  30
ENDBRANCH  25  27
ENDBRANCH   1  25
TORSDOF 11
ENDMDL
MODEL 6
REMARK VINA RESULT:      -8.5      3.593      8.311
REMARK  Name = Revefenacin
REMARK  12 active torsions:
REMARK  status: ('A' for Active; 'I' for Inactive)
REMARK    1  A    between atoms: C_1  and  N_2
REMARK    2  A    between atoms: N_2  and  C_3
REMARK    3  A    between atoms: C_3  and  C_4
REMARK    4  A    between atoms: C_4  and  N_5
REMARK    5  A    between atoms: C_8  and  O_11
REMARK    6  A    between atoms: O_11  and  C_12
REMARK    7  A    between atoms: N_14  and  C_15
REMARK    8  A    between atoms: C_20  and  C_21
REMARK    9  A    between atoms: C_27  and  C_29
REMARK   10  A    between atoms: C_32  and  C_33
REMARK   11  A    between atoms: C_33  and  N_34
REMARK   12  A    between atoms: C_37  and  C_40
REMARK                            x       y       z     vdW  Elec       q    Type
REMARK                         _______ _______ _______ _____ _____    ______ ____
ROOT
ATOM      1  C   UNL     1      -3.636   5.609 127.730  0.00  0.00    +0.000 C 
ENDROOT
BRANCH   1   2
ATOM      2  N   UNL     1      -4.687   4.912 126.984  0.00  0.00    +0.000 NA
ATOM      3  C   UNL     1      -4.054   3.807 126.279  0.00  0.00    +0.000 C 
ATOM      4  C   UNL     1      -5.048   3.002 125.472  0.00  0.00    +0.000 C 
ATOM      5  C   UNL     1      -6.117   2.411 126.393  0.00  0.00    +0.000 C 
ATOM      6  C   UNL     1      -6.754   3.569 127.167  0.00  0.00    +0.000 C 
ATOM      7  C   UNL     1      -5.703   4.389 127.909  0.00  0.00    +0.000 C 
BRANCH   5   8
ATOM      8  O   UNL     1      -5.565   1.414 127.318  0.00  0.00    +0.000 OA
BRANCH   8   9
ATOM      9  C   UNL     1      -6.488   0.526 127.808  0.00  0.00    +0.000 C 
ATOM     10  O   UNL     1      -7.522   0.901 128.374  0.00  0.00    +0.000 OA
ATOM     11  N   UNL     1      -6.142  -0.805 127.635  0.00  0.00    +0.000 N 
ATOM     12  H   UNL     1      -5.179  -1.035 127.435  0.00  0.00    +0.000 HD
BRANCH  11  13
ATOM     13  C   UNL     1      -7.102  -1.863 127.738  0.00  0.00    +0.000 A 
ATOM     14  C   UNL     1      -7.547  -2.310 128.988  0.00  0.00    +0.000 A 
ATOM     15  C   UNL     1      -8.487  -3.356 129.081  0.00  0.00    +0.000 A 
ATOM     16  C   UNL     1      -9.005  -3.954 127.936  0.00  0.00    +0.000 A 
ATOM     17  C   UNL     1      -8.542  -3.546 126.697  0.00  0.00    +0.000 A 
ATOM     18  C   UNL     1      -7.591  -2.514 126.581  0.00  0.00    +0.000 A 
BRANCH  18  19
ATOM     19  C   UNL     1      -7.086  -2.228 125.242  0.00  0.00    +0.000 A 
ATOM     20  C   UNL     1      -6.011  -2.970 124.731  0.00  0.00    +0.000 A 
ATOM     21  C   UNL     1      -5.524  -2.716 123.456  0.00  0.00    +0.000 A 
ATOM     22  C   UNL     1      -6.139  -1.746 122.670  0.00  0.00    +0.000 A 
ATOM     23  C   UNL     1      -7.217  -1.009 123.167  0.00  0.00    +0.000 A 
ATOM     24  C   UNL     1      -7.702  -1.259 124.441  0.00  0.00    +0.000 A 
ENDBRANCH  18  19
ENDBRANCH  11  13
ENDBRANCH   8   9
ENDBRANCH   5   8
ENDBRANCH   1   2
BRANCH   1  25
ATOM     25  C   UNL     1      -4.217   6.306 128.945  0.00  0.00    +0.000 C 
BRANCH  25  27
ATOM     26  C   UNL     1      -2.360   5.591 130.523  0.00  0.00    +0.000 C 
ATOM     27  N   UNL     1      -3.780   5.767 130.251  0.00  0.00    +0.000 N 
ATOM     28  C   UNL     1      -4.632   5.500 131.337  0.00  0.00    +0.000 C 
ATOM     29  O   UNL     1      -4.225   5.112 132.430  0.00  0.00    +0.000 OA
BRANCH  28  30
ATOM     30  C   UNL     1      -6.092   5.613 131.182  0.00  0.00    +0.000 A 
ATOM     31  C   UNL     1      -6.779   6.840 131.174  0.00  0.00    +0.000 A 
ATOM     32  C   UNL     1      -8.189   6.890 131.146  0.00  0.00    +0.000 A 
ATOM     33  C   UNL     1      -8.910   5.715 131.014  0.00  0.00    +0.000 A 
ATOM     34  C   UNL     1      -8.168   4.535 131.065  0.00  0.00    +0.000 A 
ATOM     35  C   UNL     1      -6.815   4.454 131.202  0.00  0.00    +0.000 A 
BRANCH  33  36
ATOM     36  C   UNL     1     -10.416   5.692 130.786  0.00  0.00    +0.000 C 
BRANCH  36  37
ATOM     37  N   UNL     1     -10.865   6.254 129.488  0.00  0.00    +0.000 NA
ATOM     38  C   UNL     1     -12.337   6.193 129.365  0.00  0.00    +0.000 C 
ATOM     39  C   UNL     1     -12.888   6.985 128.189  0.00  0.00    +0.000 C 
ATOM     40  C   UNL     1     -12.309   8.412 128.113  0.00  0.00    +0.000 C 
ATOM     41  C   UNL     1     -10.782   8.329 128.074  0.00  0.00    +0.000 C 
ATOM     42  C   UNL     1     -10.207   7.548 129.247  0.00  0.00    +0.000 C 
BRANCH  40  43
ATOM     43  C   UNL     1     -12.897   9.344 129.191  0.00  0.00    +0.000 C 
ATOM     44  N   UNL     1     -13.417  10.551 128.810  0.00  0.00    +0.000 N 
ATOM     45  O   UNL     1     -12.929   9.043 130.382  0.00  0.00    +0.000 OA
ATOM     46  H   UNL     1     -13.233  10.983 127.918  0.00  0.00    +0.000 HD
ATOM     47  H   UNL     1     -13.622  11.204 129.559  0.00  0.00    +0.000 HD
ENDBRANCH  40  43
ENDBRANCH  36  37
ENDBRANCH  33  36
ENDBRANCH  28  30
ENDBRANCH  25  27
ENDBRANCH   1  25
TORSDOF 11
ENDMDL
MODEL 7
REMARK VINA RESULT:      -8.5      3.075      6.312
REMARK  Name = Revefenacin
REMARK  12 active torsions:
REMARK  status: ('A' for Active; 'I' for Inactive)
REMARK    1  A    between atoms: C_1  and  N_2
REMARK    2  A    between atoms: N_2  and  C_3
REMARK    3  A    between atoms: C_3  and  C_4
REMARK    4  A    between atoms: C_4  and  N_5
REMARK    5  A    between atoms: C_8  and  O_11
REMARK    6  A    between atoms: O_11  and  C_12
REMARK    7  A    between atoms: N_14  and  C_15
REMARK    8  A    between atoms: C_20  and  C_21
REMARK    9  A    between atoms: C_27  and  C_29
REMARK   10  A    between atoms: C_32  and  C_33
REMARK   11  A    between atoms: C_33  and  N_34
REMARK   12  A    between atoms: C_37  and  C_40
REMARK                            x       y       z     vdW  Elec       q    Type
REMARK                         _______ _______ _______ _____ _____    ______ ____
ROOT
ATOM      1  C   UNL     1      -6.786   0.689 128.357  0.00  0.00    +0.000 C 
ENDROOT
BRANCH   1   2
ATOM      2  N   UNL     1      -5.959   1.895 128.443  0.00  0.00    +0.000 NA
ATOM      3  C   UNL     1      -6.568   2.764 129.440  0.00  0.00    +0.000 C 
ATOM      4  C   UNL     1      -5.792   4.050 129.624  0.00  0.00    +0.000 C 
ATOM      5  C   UNL     1      -4.368   3.743 130.087  0.00  0.00    +0.000 C 
ATOM      6  C   UNL     1      -3.741   2.794 129.062  0.00  0.00    +0.000 C 
ATOM      7  C   UNL     1      -4.594   1.545 128.863  0.00  0.00    +0.000 C 
BRANCH   5   8
ATOM      8  O   UNL     1      -4.335   3.148 131.429  0.00  0.00    +0.000 OA
BRANCH   8   9
ATOM      9  C   UNL     1      -3.743   3.936 132.382  0.00  0.00    +0.000 C 
ATOM     10  O   UNL     1      -2.685   3.613 132.935  0.00  0.00    +0.000 OA
ATOM     11  N   UNL     1      -4.447   5.091 132.680  0.00  0.00    +0.000 N 
ATOM     12  H   UNL     1      -5.421   5.150 132.414  0.00  0.00    +0.000 HD
BRANCH  11  13
ATOM     13  C   UNL     1      -3.845   6.201 133.355  0.00  0.00    +0.000 A 
ATOM     14  C   UNL     1      -4.003   6.373 134.736  0.00  0.00    +0.000 A 
ATOM     15  C   UNL     1      -3.412   7.471 135.393  0.00  0.00    +0.000 A 
ATOM     16  C   UNL     1      -2.646   8.396 134.690  0.00  0.00    +0.000 A 
ATOM     17  C   UNL     1      -2.516   8.256 133.318  0.00  0.00    +0.000 A 
ATOM     18  C   UNL     1      -3.112   7.175 132.639  0.00  0.00    +0.000 A 
BRANCH  18  19
ATOM     19  C   UNL     1      -3.008   7.174 131.184  0.00  0.00    +0.000 A 
ATOM     20  C   UNL     1      -1.979   6.452 130.560  0.00  0.00    +0.000 A 
ATOM     21  C   UNL     1      -1.870   6.435 129.177  0.00  0.00    +0.000 A 
ATOM     22  C   UNL     1      -2.817   7.105 128.408  0.00  0.00    +0.000 A 
ATOM     23  C   UNL     1      -3.852   7.818 129.020  0.00  0.00    +0.000 A 
ATOM     24  C   UNL     1      -3.959   7.839 130.401  0.00  0.00    +0.000 A 
ENDBRANCH  18  19
ENDBRANCH  11  13
ENDBRANCH   8   9
ENDBRANCH   5   8
ENDBRANCH   1   2
BRANCH   1  25
ATOM     25  C   UNL     1      -7.924   0.750 129.359  0.00  0.00    +0.000 C 
BRANCH  25  27
ATOM     26  C   UNL     1      -7.890  -1.747 129.822  0.00  0.00    +0.000 C 
ATOM     27  N   UNL     1      -7.987  -0.378 130.312  0.00  0.00    +0.000 N 
ATOM     28  C   UNL     1      -8.023  -0.248 131.712  0.00  0.00    +0.000 C 
ATOM     29  O   UNL     1      -8.011  -1.212 132.476  0.00  0.00    +0.000 OA
BRANCH  28  30
ATOM     30  C   UNL     1      -8.151   1.081 132.332  0.00  0.00    +0.000 A 
ATOM     31  C   UNL     1      -7.082   1.753 132.952  0.00  0.00    +0.000 A 
ATOM     32  C   UNL     1      -7.282   2.969 133.638  0.00  0.00    +0.000 A 
ATOM     33  C   UNL     1      -8.530   3.570 133.612  0.00  0.00    +0.000 A 
ATOM     34  C   UNL     1      -9.550   2.830 133.013  0.00  0.00    +0.000 A 
ATOM     35  C   UNL     1      -9.408   1.604 132.438  0.00  0.00    +0.000 A 
BRANCH  33  36
ATOM     36  C   UNL     1      -8.786   4.967 134.164  0.00  0.00    +0.000 C 
BRANCH  36  37
ATOM     37  N   UNL     1      -8.960   6.026 133.138  0.00  0.00    +0.000 NA
ATOM     38  C   UNL     1      -7.804   6.065 132.217  0.00  0.00    +0.000 C 
ATOM     39  C   UNL     1      -8.026   6.935 130.989  0.00  0.00    +0.000 C 
ATOM     40  C   UNL     1      -9.374   6.649 130.297  0.00  0.00    +0.000 C 
ATOM     41  C   UNL     1     -10.503   6.809 131.317  0.00  0.00    +0.000 C 
ATOM     42  C   UNL     1     -10.305   5.939 132.550  0.00  0.00    +0.000 C 
BRANCH  40  43
ATOM     43  C   UNL     1      -9.365   5.318 129.519  0.00  0.00    +0.000 C 
ATOM     44  N   UNL     1     -10.007   4.234 130.054  0.00  0.00    +0.000 N 
ATOM     45  O   UNL     1      -8.812   5.191 128.428  0.00  0.00    +0.000 OA
ATOM     46  H   UNL     1     -10.281   4.168 131.022  0.00  0.00    +0.000 HD
ATOM     47  H   UNL     1      -9.823   3.342 129.607  0.00  0.00    +0.000 HD
ENDBRANCH  40  43
ENDBRANCH  36  37
ENDBRANCH  33  36
ENDBRANCH  28  30
ENDBRANCH  25  27
ENDBRANCH   1  25
TORSDOF 11
ENDMDL
MODEL 8
REMARK VINA RESULT:      -8.3      1.972      2.648
REMARK  Name = Revefenacin
REMARK  12 active torsions:
REMARK  status: ('A' for Active; 'I' for Inactive)
REMARK    1  A    between atoms: C_1  and  N_2
REMARK    2  A    between atoms: N_2  and  C_3
REMARK    3  A    between atoms: C_3  and  C_4
REMARK    4  A    between atoms: C_4  and  N_5
REMARK    5  A    between atoms: C_8  and  O_11
REMARK    6  A    between atoms: O_11  and  C_12
REMARK    7  A    between atoms: N_14  and  C_15
REMARK    8  A    between atoms: C_20  and  C_21
REMARK    9  A    between atoms: C_27  and  C_29
REMARK   10  A    between atoms: C_32  and  C_33
REMARK   11  A    between atoms: C_33  and  N_34
REMARK   12  A    between atoms: C_37  and  C_40
REMARK                            x       y       z     vdW  Elec       q    Type
REMARK                         _______ _______ _______ _____ _____    ______ ____
ROOT
ATOM      1  C   UNL     1      -6.244  -1.887 133.916  0.00  0.00    +0.000 C 
ENDROOT
BRANCH   1   2
ATOM      2  N   UNL     1      -6.917  -0.596 133.752  0.00  0.00    +0.000 NA
ATOM      3  C   UNL     1      -5.921   0.440 133.980  0.00  0.00    +0.000 C 
ATOM      4  C   UNL     1      -6.500   1.829 133.830  0.00  0.00    +0.000 C 
ATOM      5  C   UNL     1      -7.049   2.020 132.416  0.00  0.00    +0.000 C 
ATOM      6  C   UNL     1      -8.065   0.904 132.159  0.00  0.00    +0.000 C 
ATOM      7  C   UNL     1      -7.452  -0.473 132.387  0.00  0.00    +0.000 C 
BRANCH   5   8
ATOM      8  O   UNL     1      -5.990   1.998 131.400  0.00  0.00    +0.000 OA
BRANCH   8   9
ATOM      9  C   UNL     1      -5.422   3.220 131.148  0.00  0.00    +0.000 C 
ATOM     10  O   UNL     1      -6.087   4.263 131.138  0.00  0.00    +0.000 OA
ATOM     11  N   UNL     1      -4.062   3.170 130.885  0.00  0.00    +0.000 N 
ATOM     12  H   UNL     1      -3.648   2.285 130.628  0.00  0.00    +0.000 HD
BRANCH  11  13
ATOM     13  C   UNL     1      -3.227   4.331 130.959  0.00  0.00    +0.000 A 
ATOM     14  C   UNL     1      -2.849   4.867 132.196  0.00  0.00    +0.000 A 
ATOM     15  C   UNL     1      -2.032   6.013 132.261  0.00  0.00    +0.000 A 
ATOM     16  C   UNL     1      -1.569   6.626 131.100  0.00  0.00    +0.000 A 
ATOM     17  C   UNL     1      -1.969   6.127 129.872  0.00  0.00    +0.000 A 
ATOM     18  C   UNL     1      -2.799   4.993 129.785  0.00  0.00    +0.000 A 
BRANCH  18  19
ATOM     19  C   UNL     1      -3.251   4.608 128.452  0.00  0.00    +0.000 A 
ATOM     20  C   UNL     1      -4.470   5.100 127.962  0.00  0.00    +0.000 A 
ATOM     21  C   UNL     1      -4.912   4.749 126.694  0.00  0.00    +0.000 A 
ATOM     22  C   UNL     1      -4.115   3.938 125.893  0.00  0.00    +0.000 A 
ATOM     23  C   UNL     1      -2.894   3.450 126.368  0.00  0.00    +0.000 A 
ATOM     24  C   UNL     1      -2.454   3.797 127.636  0.00  0.00    +0.000 A 
ENDBRANCH  18  19
ENDBRANCH  11  13
ENDBRANCH   8   9
ENDBRANCH   5   8
ENDBRANCH   1   2
BRANCH   1  25
ATOM     25  C   UNL     1      -7.015  -2.985 133.206  0.00  0.00    +0.000 C 
BRANCH  25  27
ATOM     26  C   UNL     1      -5.783  -5.136 133.761  0.00  0.00    +0.000 C 
ATOM     27  N   UNL     1      -6.208  -4.147 132.778  0.00  0.00    +0.000 N 
ATOM     28  C   UNL     1      -5.891  -4.459 131.445  0.00  0.00    +0.000 C 
ATOM     29  O   UNL     1      -5.270  -5.470 131.121  0.00  0.00    +0.000 OA
BRANCH  28  30
ATOM     30  C   UNL     1      -6.239  -3.526 130.360  0.00  0.00    +0.000 A 
ATOM     31  C   UNL     1      -5.345  -2.572 129.841  0.00  0.00    +0.000 A 
ATOM     32  C   UNL     1      -5.764  -1.619 128.888  0.00  0.00    +0.000 A 
ATOM     33  C   UNL     1      -7.048  -1.690 128.372  0.00  0.00    +0.000 A 
ATOM     34  C   UNL     1      -7.889  -2.635 128.958  0.00  0.00    +0.000 A 
ATOM     35  C   UNL     1      -7.544  -3.495 129.957  0.00  0.00    +0.000 A 
BRANCH  33  36
ATOM     36  C   UNL     1      -7.518  -0.825 127.210  0.00  0.00    +0.000 C 
BRANCH  36  37
ATOM     37  N   UNL     1      -7.033  -1.250 125.872  0.00  0.00    +0.000 NA
ATOM     38  C   UNL     1      -7.348  -2.673 125.623  0.00  0.00    +0.000 C 
ATOM     39  C   UNL     1      -7.123  -3.108 124.184  0.00  0.00    +0.000 C 
ATOM     40  C   UNL     1      -7.753  -2.137 123.166  0.00  0.00    +0.000 C 
ATOM     41  C   UNL     1      -7.215  -0.728 123.422  0.00  0.00    +0.000 C 
ATOM     42  C   UNL     1      -7.438  -0.267 124.855  0.00  0.00    +0.000 C 
BRANCH  40  43
ATOM     43  C   UNL     1      -9.288  -2.262 123.106  0.00  0.00    +0.000 C 
ATOM     44  N   UNL     1      -9.863  -3.482 123.337  0.00  0.00    +0.000 N 
ATOM     45  O   UNL     1     -10.022  -1.305 122.869  0.00  0.00    +0.000 OA
ATOM     46  H   UNL     1      -9.356  -4.354 123.307  0.00  0.00    +0.000 HD
ATOM     47  H   UNL     1     -10.848  -3.561 123.109  0.00  0.00    +0.000 HD
ENDBRANCH  40  43
ENDBRANCH  36  37
ENDBRANCH  33  36
ENDBRANCH  28  30
ENDBRANCH  25  27
ENDBRANCH   1  25
TORSDOF 11
ENDMDL
MODEL 9
REMARK VINA RESULT:      -8.3      2.600      7.940
REMARK  Name = Revefenacin
REMARK  12 active torsions:
REMARK  status: ('A' for Active; 'I' for Inactive)
REMARK    1  A    between atoms: C_1  and  N_2
REMARK    2  A    between atoms: N_2  and  C_3
REMARK    3  A    between atoms: C_3  and  C_4
REMARK    4  A    between atoms: C_4  and  N_5
REMARK    5  A    between atoms: C_8  and  O_11
REMARK    6  A    between atoms: O_11  and  C_12
REMARK    7  A    between atoms: N_14  and  C_15
REMARK    8  A    between atoms: C_20  and  C_21
REMARK    9  A    between atoms: C_27  and  C_29
REMARK   10  A    between atoms: C_32  and  C_33
REMARK   11  A    between atoms: C_33  and  N_34
REMARK   12  A    between atoms: C_37  and  C_40
REMARK                            x       y       z     vdW  Elec       q    Type
REMARK                         _______ _______ _______ _____ _____    ______ ____
ROOT
ATOM      1  C   UNL     1      -9.391   3.050 130.268  0.00  0.00    +0.000 C 
ENDROOT
BRANCH   1   2
ATOM      2  N   UNL     1      -8.141   2.512 129.728  0.00  0.00    +0.000 NA
ATOM      3  C   UNL     1      -7.832   1.304 130.479  0.00  0.00    +0.000 C 
ATOM      4  C   UNL     1      -6.554   0.649 130.003  0.00  0.00    +0.000 C 
ATOM      5  C   UNL     1      -6.682   0.257 128.531  0.00  0.00    +0.000 C 
ATOM      6  C   UNL     1      -7.050   1.518 127.745  0.00  0.00    +0.000 C 
ATOM      7  C   UNL     1      -8.305   2.179 128.305  0.00  0.00    +0.000 C 
BRANCH   5   8
ATOM      8  O   UNL     1      -7.685  -0.794 128.319  0.00  0.00    +0.000 OA
BRANCH   8   9
ATOM      9  C   UNL     1      -7.459  -1.577 127.217  0.00  0.00    +0.000 C 
ATOM     10  O   UNL     1      -8.174  -2.550 126.947  0.00  0.00    +0.000 OA
ATOM     11  N   UNL     1      -6.359  -1.196 126.466  0.00  0.00    +0.000 N 
ATOM     12  H   UNL     1      -5.667  -0.592 126.888  0.00  0.00    +0.000 HD
BRANCH  11  13
ATOM     13  C   UNL     1      -6.166  -1.635 125.117  0.00  0.00    +0.000 A 
ATOM     14  C   UNL     1      -5.365  -2.748 124.831  0.00  0.00    +0.000 A 
ATOM     15  C   UNL     1      -5.174  -3.170 123.500  0.00  0.00    +0.000 A 
ATOM     16  C   UNL     1      -5.790  -2.504 122.444  0.00  0.00    +0.000 A 
ATOM     17  C   UNL     1      -6.552  -1.380 122.713  0.00  0.00    +0.000 A 
ATOM     18  C   UNL     1      -6.742  -0.930 124.035  0.00  0.00    +0.000 A 
BRANCH  18  19
ATOM     19  C   UNL     1      -7.471   0.322 124.207  0.00  0.00    +0.000 A 
ATOM     20  C   UNL     1      -6.801   1.544 124.054  0.00  0.00    +0.000 A 
ATOM     21  C   UNL     1      -7.481   2.744 124.208  0.00  0.00    +0.000 A 
ATOM     22  C   UNL     1      -8.847   2.726 124.474  0.00  0.00    +0.000 A 
ATOM     23  C   UNL     1      -9.526   1.513 124.619  0.00  0.00    +0.000 A 
ATOM     24  C   UNL     1      -8.847   0.315 124.469  0.00  0.00    +0.000 A 
ENDBRANCH  18  19
ENDBRANCH  11  13
ENDBRANCH   8   9
ENDBRANCH   5   8
ENDBRANCH   1   2
BRANCH   1  25
ATOM     25  C   UNL     1      -9.577   4.496 129.846  0.00  0.00    +0.000 C 
BRANCH  25  27
ATOM     26  C   UNL     1     -11.674   5.463 130.903  0.00  0.00    +0.000 C 
ATOM     27  N   UNL     1     -10.221   5.369 130.851  0.00  0.00    +0.000 N 
ATOM     28  C   UNL     1      -9.543   6.060 131.870  0.00  0.00    +0.000 C 
ATOM     29  O   UNL     1     -10.119   6.727 132.727  0.00  0.00    +0.000 OA
BRANCH  28  30
ATOM     30  C   UNL     1      -8.071   6.067 131.910  0.00  0.00    +0.000 A 
ATOM     31  C   UNL     1      -7.318   5.343 132.851  0.00  0.00    +0.000 A 
ATOM     32  C   UNL     1      -5.915   5.479 132.927  0.00  0.00    +0.000 A 
ATOM     33  C   UNL     1      -5.254   6.256 131.990  0.00  0.00    +0.000 A 
ATOM     34  C   UNL     1      -6.066   6.974 131.111  0.00  0.00    +0.000 A 
ATOM     35  C   UNL     1      -7.427   6.946 131.087  0.00  0.00    +0.000 A 
BRANCH  33  36
ATOM     36  C   UNL     1      -3.735   6.307 131.883  0.00  0.00    +0.000 C 
BRANCH  36  37
ATOM     37  N   UNL     1      -3.152   5.462 130.811  0.00  0.00    +0.000 NA
ATOM     38  C   UNL     1      -3.912   4.203 130.657  0.00  0.00    +0.000 C 
ATOM     39  C   UNL     1      -3.542   3.411 129.412  0.00  0.00    +0.000 C 
ATOM     40  C   UNL     1      -3.509   4.285 128.142  0.00  0.00    +0.000 C 
ATOM     41  C   UNL     1      -2.555   5.460 128.371  0.00  0.00    +0.000 C 
ATOM     42  C   UNL     1      -2.912   6.272 129.607  0.00  0.00    +0.000 C 
BRANCH  40  43
ATOM     43  C   UNL     1      -4.920   4.661 127.649  0.00  0.00    +0.000 C 
ATOM     44  N   UNL     1      -5.147   4.760 126.303  0.00  0.00    +0.000 N 
ATOM     45  O   UNL     1      -5.858   4.867 128.417  0.00  0.00    +0.000 OA
ATOM     46  H   UNL     1      -4.412   4.841 125.617  0.00  0.00    +0.000 HD
ATOM     47  H   UNL     1      -6.027   5.183 126.029  0.00  0.00    +0.000 HD
ENDBRANCH  40  43
ENDBRANCH  36  37
ENDBRANCH  33  36
ENDBRANCH  28  30
ENDBRANCH  25  27
ENDBRANCH   1  25
TORSDOF 11
ENDMDL
