MODEL 1
REMARK VINA RESULT:      -6.2      0.000      0.000
REMARK  Name = Ribavirin
REMARK  6 active torsions:
REMARK  status: ('A' for Active; 'I' for Inactive)
REMARK    1  A    between atoms: C_2  and  C_4
REMARK    2  A    between atoms: N_6  and  C1*_9
REMARK    3  A    between atoms: C4*_11  and  C5*_12
REMARK    4  A    between atoms: C5*_12  and  O5*_13
REMARK    5  A    between atoms: C3*_14  and  O3*_15
REMARK    6  A    between atoms: C2*_16  and  O2*_17
REMARK                            x       y       z     vdW  Elec       q    Type
REMARK                         _______ _______ _______ _____ _____    ______ ____
ROOT
ATOM      1  C1* UNL     1     -10.858   6.021 131.156  0.00  0.00    +0.000 C 
ATOM      2  O4* UNL     1      -9.856   6.758 131.887  0.00  0.00    +0.000 OA
ATOM      3  C4* UNL     1      -8.807   5.852 132.285  0.00  0.00    +0.000 C 
ATOM      4  C3* UNL     1      -9.250   4.436 131.905  0.00  0.00    +0.000 C 
ATOM      5  C2* UNL     1     -10.253   4.668 130.782  0.00  0.00    +0.000 C 
ENDROOT
BRANCH   1   8
ATOM      6  C   UNL     1     -11.568   7.411 128.023  0.00  0.00    +0.000 A 
ATOM      7  N   UNL     1     -11.127   6.359 128.750  0.00  0.00    +0.000 NA
ATOM      8  N   UNL     1     -11.294   6.806 130.014  0.00  0.00    +0.000 N 
ATOM      9  C   UNL     1     -11.917   8.014 130.026  0.00  0.00    +0.000 A 
ATOM     10  N   UNL     1     -12.069   8.442 128.797  0.00  0.00    +0.000 NA
BRANCH   6  12
ATOM     11  N   UNL     1     -12.673   6.811 125.974  0.00  0.00    +0.000 N 
ATOM     12  C   UNL     1     -11.586   7.420 126.549  0.00  0.00    +0.000 C 
ATOM     13  O   UNL     1     -10.725   7.948 125.843  0.00  0.00    +0.000 OA
ATOM     14  H   UNL     1     -12.753   6.824 124.968  0.00  0.00    +0.000 HD
ATOM     15  H   UNL     1     -13.415   6.430 126.545  0.00  0.00    +0.000 HD
ENDBRANCH   6  12
ENDBRANCH   1   8
BRANCH   4  16
ATOM     16  O3* UNL     1      -9.890   3.780 133.009  0.00  0.00    +0.000 OA
ATOM     17  H3* UNL     1      -9.387   3.928 133.825  0.00  0.00    +0.000 HD
ENDBRANCH   4  16
BRANCH   5  18
ATOM     18  O2* UNL     1     -11.226   3.632 130.681  0.00  0.00    +0.000 OA
ATOM     19  H2* UNL     1     -11.814   3.681 131.457  0.00  0.00    +0.000 HD
ENDBRANCH   5  18
BRANCH   3  20
ATOM     20  C5* UNL     1      -7.501   6.273 131.606  0.00  0.00    +0.000 C 
BRANCH  20  21
ATOM     21  O5* UNL     1      -7.725   7.313 130.665  0.00  0.00    +0.000 OA
ATOM     22  H5* UNL     1      -8.349   6.986 129.991  0.00  0.00    +0.000 HD
ENDBRANCH  20  21
ENDBRANCH   3  20
TORSDOF 6
ENDMDL
MODEL 2
REMARK VINA RESULT:      -6.2      2.410      5.642
REMARK  Name = Ribavirin
REMARK  6 active torsions:
REMARK  status: ('A' for Active; 'I' for Inactive)
REMARK    1  A    between atoms: C_2  and  C_4
REMARK    2  A    between atoms: N_6  and  C1*_9
REMARK    3  A    between atoms: C4*_11  and  C5*_12
REMARK    4  A    between atoms: C5*_12  and  O5*_13
REMARK    5  A    between atoms: C3*_14  and  O3*_15
REMARK    6  A    between atoms: C2*_16  and  O2*_17
REMARK                            x       y       z     vdW  Elec       q    Type
REMARK                         _______ _______ _______ _____ _____    ______ ____
ROOT
ATOM      1  C1* UNL     1     -12.374   6.671 129.543  0.00  0.00    +0.000 C 
ATOM      2  O4* UNL     1     -12.200   6.300 128.159  0.00  0.00    +0.000 OA
ATOM      3  C4* UNL     1     -12.169   7.496 127.355  0.00  0.00    +0.000 C 
ATOM      4  C3* UNL     1     -12.488   8.680 128.274  0.00  0.00    +0.000 C 
ATOM      5  C2* UNL     1     -12.099   8.170 129.655  0.00  0.00    +0.000 C 
ENDROOT
BRANCH   1   8
ATOM      6  C   UNL     1     -10.221   5.290 131.932  0.00  0.00    +0.000 A 
ATOM      7  N   UNL     1     -11.034   6.303 131.553  0.00  0.00    +0.000 NA
ATOM      8  N   UNL     1     -11.510   5.850 130.372  0.00  0.00    +0.000 N 
ATOM      9  C   UNL     1     -11.090   4.580 130.133  0.00  0.00    +0.000 A 
ATOM     10  N   UNL     1     -10.250   4.210 131.067  0.00  0.00    +0.000 NA
BRANCH   6  12
ATOM     11  N   UNL     1      -9.626   4.215 133.998  0.00  0.00    +0.000 N 
ATOM     12  C   UNL     1      -9.445   5.306 133.185  0.00  0.00    +0.000 C 
ATOM     13  O   UNL     1      -8.659   6.197 133.509  0.00  0.00    +0.000 OA
ATOM     14  H   UNL     1      -9.088   4.158 134.850  0.00  0.00    +0.000 HD
ATOM     15  H   UNL     1     -10.220   3.449 133.712  0.00  0.00    +0.000 HD
ENDBRANCH   6  12
ENDBRANCH   1   8
BRANCH   4  16
ATOM     16  O3* UNL     1     -13.887   8.998 128.241  0.00  0.00    +0.000 OA
ATOM     17  H3* UNL     1     -14.409   8.249 128.571  0.00  0.00    +0.000 HD
ENDBRANCH   4  16
BRANCH   5  18
ATOM     18  O2* UNL     1     -12.833   8.793 130.705  0.00  0.00    +0.000 OA
ATOM     19  H2* UNL     1     -13.368   9.515 130.326  0.00  0.00    +0.000 HD
ENDBRANCH   5  18
BRANCH   3  20
ATOM     20  C5* UNL     1     -10.797   7.612 126.686  0.00  0.00    +0.000 C 
BRANCH  20  21
ATOM     21  O5* UNL     1      -9.940   6.554 127.089  0.00  0.00    +0.000 OA
ATOM     22  H5* UNL     1     -10.455   5.936 127.640  0.00  0.00    +0.000 HD
ENDBRANCH  20  21
ENDBRANCH   3  20
TORSDOF 6
ENDMDL
MODEL 3
REMARK VINA RESULT:      -5.8      1.878      2.066
REMARK  Name = Ribavirin
REMARK  6 active torsions:
REMARK  status: ('A' for Active; 'I' for Inactive)
REMARK    1  A    between atoms: C_2  and  C_4
REMARK    2  A    between atoms: N_6  and  C1*_9
REMARK    3  A    between atoms: C4*_11  and  C5*_12
REMARK    4  A    between atoms: C5*_12  and  O5*_13
REMARK    5  A    between atoms: C3*_14  and  O3*_15
REMARK    6  A    between atoms: C2*_16  and  O2*_17
REMARK                            x       y       z     vdW  Elec       q    Type
REMARK                         _______ _______ _______ _____ _____    ______ ____
ROOT
ATOM      1  C1* UNL     1     -10.550   5.878 131.794  0.00  0.00    +0.000 C 
ATOM      2  O4* UNL     1      -9.604   6.458 132.717  0.00  0.00    +0.000 OA
ATOM      3  C4* UNL     1      -8.654   5.447 133.110  0.00  0.00    +0.000 C 
ATOM      4  C3* UNL     1      -9.120   4.117 132.509  0.00  0.00    +0.000 C 
ATOM      5  C2* UNL     1      -9.973   4.544 131.323  0.00  0.00    +0.000 C 
ENDROOT
BRANCH   1   8
ATOM      6  C   UNL     1     -11.868   8.039 129.377  0.00  0.00    +0.000 A 
ATOM      7  N   UNL     1     -12.055   7.297 130.492  0.00  0.00    +0.000 NA
ATOM      8  N   UNL     1     -10.811   6.820 130.720  0.00  0.00    +0.000 N 
ATOM      9  C   UNL     1      -9.917   7.356 129.849  0.00  0.00    +0.000 A 
ATOM     10  N   UNL     1     -10.547   8.094 128.969  0.00  0.00    +0.000 NA
BRANCH   6  12
ATOM     11  N   UNL     1     -13.004  10.123 128.996  0.00  0.00    +0.000 N 
ATOM     12  C   UNL     1     -12.955   8.781 128.712  0.00  0.00    +0.000 C 
ATOM     13  O   UNL     1     -13.765   8.282 127.930  0.00  0.00    +0.000 OA
ATOM     14  H   UNL     1     -13.706  10.684 128.535  0.00  0.00    +0.000 HD
ATOM     15  H   UNL     1     -12.306  10.554 129.586  0.00  0.00    +0.000 HD
ENDBRANCH   6  12
ENDBRANCH   1   8
BRANCH   4  16
ATOM     16  O3* UNL     1      -9.915   3.376 133.447  0.00  0.00    +0.000 OA
ATOM     17  H3* UNL     1      -9.444   3.288 134.290  0.00  0.00    +0.000 HD
ENDBRANCH   4  16
BRANCH   5  18
ATOM     18  O2* UNL     1     -10.978   3.591 130.987  0.00  0.00    +0.000 OA
ATOM     19  H2* UNL     1     -11.684   3.633 131.659  0.00  0.00    +0.000 HD
ENDBRANCH   5  18
BRANCH   3  20
ATOM     20  C5* UNL     1      -7.259   5.861 132.635  0.00  0.00    +0.000 C 
BRANCH  20  21
ATOM     21  O5* UNL     1      -6.505   4.733 132.215  0.00  0.00    +0.000 OA
ATOM     22  H5* UNL     1      -6.629   4.022 132.870  0.00  0.00    +0.000 HD
ENDBRANCH  20  21
ENDBRANCH   3  20
TORSDOF 6
ENDMDL
MODEL 4
REMARK VINA RESULT:      -5.7      2.845      4.571
REMARK  Name = Ribavirin
REMARK  6 active torsions:
REMARK  status: ('A' for Active; 'I' for Inactive)
REMARK    1  A    between atoms: C_2  and  C_4
REMARK    2  A    between atoms: N_6  and  C1*_9
REMARK    3  A    between atoms: C4*_11  and  C5*_12
REMARK    4  A    between atoms: C5*_12  and  O5*_13
REMARK    5  A    between atoms: C3*_14  and  O3*_15
REMARK    6  A    between atoms: C2*_16  and  O2*_17
REMARK                            x       y       z     vdW  Elec       q    Type
REMARK                         _______ _______ _______ _____ _____    ______ ____
ROOT
ATOM      1  C1* UNL     1     -11.242   5.277 130.274  0.00  0.00    +0.000 C 
ATOM      2  O4* UNL     1     -11.754   5.920 129.087  0.00  0.00    +0.000 OA
ATOM      3  C4* UNL     1     -12.169   7.260 129.423  0.00  0.00    +0.000 C 
ATOM      4  C3* UNL     1     -12.042   7.415 130.942  0.00  0.00    +0.000 C 
ATOM      5  C2* UNL     1     -11.007   6.365 131.321  0.00  0.00    +0.000 C 
ENDROOT
BRANCH   1   8
ATOM      6  C   UNL     1      -8.276   3.965 128.959  0.00  0.00    +0.000 A 
ATOM      7  N   UNL     1      -9.142   4.999 129.055  0.00  0.00    +0.000 NA
ATOM      8  N   UNL     1     -10.051   4.519 129.932  0.00  0.00    +0.000 N 
ATOM      9  C   UNL     1      -9.668   3.310 130.419  0.00  0.00    +0.000 A 
ATOM     10  N   UNL     1      -8.581   2.912 129.804  0.00  0.00    +0.000 NA
BRANCH   6  12
ATOM     11  N   UNL     1      -7.066   3.068 127.085  0.00  0.00    +0.000 N 
ATOM     12  C   UNL     1      -7.079   3.993 128.098  0.00  0.00    +0.000 C 
ATOM     13  O   UNL     1      -6.148   4.790 128.223  0.00  0.00    +0.000 OA
ATOM     14  H   UNL     1      -6.288   3.071 126.444  0.00  0.00    +0.000 HD
ATOM     15  H   UNL     1      -7.854   2.452 126.936  0.00  0.00    +0.000 HD
ENDBRANCH   6  12
ENDBRANCH   1   8
BRANCH   4  16
ATOM     16  O3* UNL     1     -13.289   7.136 131.597  0.00  0.00    +0.000 OA
ATOM     17  H3* UNL     1     -13.384   6.182 131.744  0.00  0.00    +0.000 HD
ENDBRANCH   4  16
BRANCH   5  18
ATOM     18  O2* UNL     1     -11.155   5.892 132.657  0.00  0.00    +0.000 OA
ATOM     19  H2* UNL     1     -12.064   5.557 132.769  0.00  0.00    +0.000 HD
ENDBRANCH   5  18
BRANCH   3  20
ATOM     20  C5* UNL     1     -11.306   8.258 128.647  0.00  0.00    +0.000 C 
BRANCH  20  21
ATOM     21  O5* UNL     1     -10.159   7.625 128.098  0.00  0.00    +0.000 OA
ATOM     22  H5* UNL     1      -9.962   8.042 127.239  0.00  0.00    +0.000 HD
ENDBRANCH  20  21
ENDBRANCH   3  20
TORSDOF 6
ENDMDL
MODEL 5
REMARK VINA RESULT:      -5.7      2.190      2.920
REMARK  Name = Ribavirin
REMARK  6 active torsions:
REMARK  status: ('A' for Active; 'I' for Inactive)
REMARK    1  A    between atoms: C_2  and  C_4
REMARK    2  A    between atoms: N_6  and  C1*_9
REMARK    3  A    between atoms: C4*_11  and  C5*_12
REMARK    4  A    between atoms: C5*_12  and  O5*_13
REMARK    5  A    between atoms: C3*_14  and  O3*_15
REMARK    6  A    between atoms: C2*_16  and  O2*_17
REMARK                            x       y       z     vdW  Elec       q    Type
REMARK                         _______ _______ _______ _____ _____    ______ ____
ROOT
ATOM      1  C1* UNL     1      -9.516   6.380 131.345  0.00  0.00    +0.000 C 
ATOM      2  O4* UNL     1      -8.963   5.557 130.296  0.00  0.00    +0.000 OA
ATOM      3  C4* UNL     1      -8.292   4.429 130.892  0.00  0.00    +0.000 C 
ATOM      4  C3* UNL     1      -8.302   4.633 132.410  0.00  0.00    +0.000 C 
ATOM      5  C2* UNL     1      -9.489   5.560 132.635  0.00  0.00    +0.000 C 
ENDROOT
BRANCH   1   8
ATOM      6  C   UNL     1     -12.362   7.826 129.910  0.00  0.00    +0.000 A 
ATOM      7  N   UNL     1     -11.039   7.554 129.836  0.00  0.00    +0.000 NA
ATOM      8  N   UNL     1     -10.843   6.824 130.957  0.00  0.00    +0.000 N 
ATOM      9  C   UNL     1     -12.020   6.579 131.590  0.00  0.00    +0.000 A 
ATOM     10  N   UNL     1     -12.988   7.223 130.986  0.00  0.00    +0.000 NA
BRANCH   6  12
ATOM     11  N   UNL     1     -12.975   9.981 129.039  0.00  0.00    +0.000 N 
ATOM     12  C   UNL     1     -13.078   8.620 128.895  0.00  0.00    +0.000 C 
ATOM     13  O   UNL     1     -13.712   8.142 127.953  0.00  0.00    +0.000 OA
ATOM     14  H   UNL     1     -13.415  10.570 128.348  0.00  0.00    +0.000 HD
ATOM     15  H   UNL     1     -12.406  10.383 129.771  0.00  0.00    +0.000 HD
ENDBRANCH   6  12
ENDBRANCH   1   8
BRANCH   4  16
ATOM     16  O3* UNL     1      -7.093   5.265 132.855  0.00  0.00    +0.000 OA
ATOM     17  H3* UNL     1      -6.654   4.716 133.524  0.00  0.00    +0.000 HD
ENDBRANCH   4  16
BRANCH   5  18
ATOM     18  O2* UNL     1      -9.355   6.365 133.803  0.00  0.00    +0.000 OA
ATOM     19  H2* UNL     1     -10.245   6.607 134.119  0.00  0.00    +0.000 HD
ENDBRANCH   5  18
BRANCH   3  20
ATOM     20  C5* UNL     1      -9.000   3.142 130.458  0.00  0.00    +0.000 C 
BRANCH  20  21
ATOM     21  O5* UNL     1     -10.170   3.431 129.706  0.00  0.00    +0.000 OA
ATOM     22  H5* UNL     1     -10.145   4.371 129.450  0.00  0.00    +0.000 HD
ENDBRANCH  20  21
ENDBRANCH   3  20
TORSDOF 6
ENDMDL
MODEL 6
REMARK VINA RESULT:      -5.6      3.048      5.136
REMARK  Name = Ribavirin
REMARK  6 active torsions:
REMARK  status: ('A' for Active; 'I' for Inactive)
REMARK    1  A    between atoms: C_2  and  C_4
REMARK    2  A    between atoms: N_6  and  C1*_9
REMARK    3  A    between atoms: C4*_11  and  C5*_12
REMARK    4  A    between atoms: C5*_12  and  O5*_13
REMARK    5  A    between atoms: C3*_14  and  O3*_15
REMARK    6  A    between atoms: C2*_16  and  O2*_17
REMARK                            x       y       z     vdW  Elec       q    Type
REMARK                         _______ _______ _______ _____ _____    ______ ____
ROOT
ATOM      1  C1* UNL     1     -11.307   5.302 130.469  0.00  0.00    +0.000 C 
ATOM      2  O4* UNL     1     -12.076   5.588 129.282  0.00  0.00    +0.000 OA
ATOM      3  C4* UNL     1     -12.583   6.935 129.367  0.00  0.00    +0.000 C 
ATOM      4  C3* UNL     1     -12.231   7.475 130.757  0.00  0.00    +0.000 C 
ATOM      5  C2* UNL     1     -11.032   6.632 131.171  0.00  0.00    +0.000 C 
ENDROOT
BRANCH   1   8
ATOM      6  C   UNL     1      -8.836   2.966 129.639  0.00  0.00    +0.000 A 
ATOM      7  N   UNL     1     -10.144   3.247 129.836  0.00  0.00    +0.000 NA
ATOM      8  N   UNL     1     -10.106   4.572 130.099  0.00  0.00    +0.000 N 
ATOM      9  C   UNL     1      -8.850   5.064 129.942  0.00  0.00    +0.000 A 
ATOM     10  N   UNL     1      -8.020   4.082 129.693  0.00  0.00    +0.000 NA
BRANCH   6  12
ATOM     11  N   UNL     1      -8.183   0.779 130.395  0.00  0.00    +0.000 N 
ATOM     12  C   UNL     1      -8.342   1.614 129.318  0.00  0.00    +0.000 C 
ATOM     13  O   UNL     1      -8.104   1.210 128.179  0.00  0.00    +0.000 OA
ATOM     14  H   UNL     1      -7.885  -0.170 130.225  0.00  0.00    +0.000 HD
ATOM     15  H   UNL     1      -8.436   1.080 131.326  0.00  0.00    +0.000 HD
ENDBRANCH   6  12
ENDBRANCH   1   8
BRANCH   4  16
ATOM     16  O3* UNL     1     -13.313   7.278 131.679  0.00  0.00    +0.000 OA
ATOM     17  H3* UNL     1     -12.988   7.322 132.592  0.00  0.00    +0.000 HD
ENDBRANCH   4  16
BRANCH   5  18
ATOM     18  O2* UNL     1     -10.906   6.499 132.584  0.00  0.00    +0.000 OA
ATOM     19  H2* UNL     1     -10.264   5.790 132.774  0.00  0.00    +0.000 HD
ENDBRANCH   5  18
BRANCH   3  20
ATOM     20  C5* UNL     1     -11.981   7.767 128.232  0.00  0.00    +0.000 C 
BRANCH  20  21
ATOM     21  O5* UNL     1     -12.045   9.155 128.526  0.00  0.00    +0.000 OA
ATOM     22  H5* UNL     1     -12.813   9.310 129.106  0.00  0.00    +0.000 HD
ENDBRANCH  20  21
ENDBRANCH   3  20
TORSDOF 6
ENDMDL
MODEL 7
REMARK VINA RESULT:      -5.6      7.401      8.600
REMARK  Name = Ribavirin
REMARK  6 active torsions:
REMARK  status: ('A' for Active; 'I' for Inactive)
REMARK    1  A    between atoms: C_2  and  C_4
REMARK    2  A    between atoms: N_6  and  C1*_9
REMARK    3  A    between atoms: C4*_11  and  C5*_12
REMARK    4  A    between atoms: C5*_12  and  O5*_13
REMARK    5  A    between atoms: C3*_14  and  O3*_15
REMARK    6  A    between atoms: C2*_16  and  O2*_17
REMARK                            x       y       z     vdW  Elec       q    Type
REMARK                         _______ _______ _______ _____ _____    ______ ____
ROOT
ATOM      1  C1* UNL     1      -7.684   3.172 124.045  0.00  0.00    +0.000 C 
ATOM      2  O4* UNL     1      -6.282   2.848 123.937  0.00  0.00    +0.000 OA
ATOM      3  C4* UNL     1      -5.554   3.579 124.944  0.00  0.00    +0.000 C 
ATOM      4  C3* UNL     1      -6.541   4.528 125.631  0.00  0.00    +0.000 C 
ATOM      5  C2* UNL     1      -7.893   3.869 125.389  0.00  0.00    +0.000 C 
ENDROOT
BRANCH   1   8
ATOM      6  C   UNL     1      -8.949  -0.042 123.480  0.00  0.00    +0.000 A 
ATOM      7  N   UNL     1      -7.880   0.765 123.669  0.00  0.00    +0.000 NA
ATOM      8  N   UNL     1      -8.471   1.962 123.880  0.00  0.00    +0.000 N 
ATOM      9  C   UNL     1      -9.823   1.836 123.932  0.00  0.00    +0.000 A 
ATOM     10  N   UNL     1     -10.161   0.603 123.647  0.00  0.00    +0.000 NA
BRANCH   6  12
ATOM     11  N   UNL     1      -7.587  -1.899 122.790  0.00  0.00    +0.000 N 
ATOM     12  C   UNL     1      -8.829  -1.485 123.202  0.00  0.00    +0.000 C 
ATOM     13  O   UNL     1      -9.741  -2.302 123.343  0.00  0.00    +0.000 OA
ATOM     14  H   UNL     1      -7.442  -2.884 122.624  0.00  0.00    +0.000 HD
ATOM     15  H   UNL     1      -6.817  -1.248 122.732  0.00  0.00    +0.000 HD
ENDBRANCH   6  12
ENDBRANCH   1   8
BRANCH   4  16
ATOM     16  O3* UNL     1      -6.514   5.830 125.026  0.00  0.00    +0.000 OA
ATOM     17  H3* UNL     1      -5.667   5.971 124.572  0.00  0.00    +0.000 HD
ENDBRANCH   4  16
BRANCH   5  18
ATOM     18  O2* UNL     1      -8.972   4.799 125.372  0.00  0.00    +0.000 OA
ATOM     19  H2* UNL     1      -8.645   5.661 125.693  0.00  0.00    +0.000 HD
ENDBRANCH   5  18
BRANCH   3  20
ATOM     20  C5* UNL     1      -4.909   2.585 125.913  0.00  0.00    +0.000 C 
BRANCH  20  21
ATOM     21  O5* UNL     1      -5.456   1.284 125.751  0.00  0.00    +0.000 OA
ATOM     22  H5* UNL     1      -4.721   0.643 125.739  0.00  0.00    +0.000 HD
ENDBRANCH  20  21
ENDBRANCH   3  20
TORSDOF 6
ENDMDL
MODEL 8
REMARK VINA RESULT:      -5.5      2.544      5.654
REMARK  Name = Ribavirin
REMARK  6 active torsions:
REMARK  status: ('A' for Active; 'I' for Inactive)
REMARK    1  A    between atoms: C_2  and  C_4
REMARK    2  A    between atoms: N_6  and  C1*_9
REMARK    3  A    between atoms: C4*_11  and  C5*_12
REMARK    4  A    between atoms: C5*_12  and  O5*_13
REMARK    5  A    between atoms: C3*_14  and  O3*_15
REMARK    6  A    between atoms: C2*_16  and  O2*_17
REMARK                            x       y       z     vdW  Elec       q    Type
REMARK                         _______ _______ _______ _____ _____    ______ ____
ROOT
ATOM      1  C1* UNL     1      -9.730   6.909 129.608  0.00  0.00    +0.000 C 
ATOM      2  O4* UNL     1     -10.619   7.634 130.484  0.00  0.00    +0.000 OA
ATOM      3  C4* UNL     1     -11.788   8.032 129.739  0.00  0.00    +0.000 C 
ATOM      4  C3* UNL     1     -11.551   7.658 128.273  0.00  0.00    +0.000 C 
ATOM      5  C2* UNL     1     -10.522   6.539 128.354  0.00  0.00    +0.000 C 
ENDROOT
BRANCH   1   8
ATOM      6  C   UNL     1      -8.971   4.253 131.756  0.00  0.00    +0.000 A 
ATOM      7  N   UNL     1      -9.859   5.179 131.330  0.00  0.00    +0.000 NA
ATOM      8  N   UNL     1      -9.182   5.767 130.318  0.00  0.00    +0.000 N 
ATOM      9  C   UNL     1      -8.004   5.131 130.087  0.00  0.00    +0.000 A 
ATOM     10  N   UNL     1      -7.819   4.203 130.992  0.00  0.00    +0.000 NA
BRANCH   6  12
ATOM     11  N   UNL     1      -9.750   3.922 134.007  0.00  0.00    +0.000 N 
ATOM     12  C   UNL     1      -9.243   3.332 132.876  0.00  0.00    +0.000 C 
ATOM     13  O   UNL     1      -9.070   2.113 132.836  0.00  0.00    +0.000 OA
ATOM     14  H   UNL     1      -9.989   3.331 134.788  0.00  0.00    +0.000 HD
ATOM     15  H   UNL     1      -9.954   4.912 134.028  0.00  0.00    +0.000 HD
ENDBRANCH   6  12
ENDBRANCH   1   8
BRANCH   4  16
ATOM     16  O3* UNL     1     -11.015   8.767 127.536  0.00  0.00    +0.000 OA
ATOM     17  H3* UNL     1     -11.706   9.430 127.377  0.00  0.00    +0.000 HD
ENDBRANCH   4  16
BRANCH   5  18
ATOM     18  O2* UNL     1      -9.707   6.445 127.189  0.00  0.00    +0.000 OA
ATOM     19  H2* UNL     1      -9.451   7.345 126.914  0.00  0.00    +0.000 HD
ENDBRANCH   5  18
BRANCH   3  20
ATOM     20  C5* UNL     1     -13.018   7.346 130.339  0.00  0.00    +0.000 C 
BRANCH  20  21
ATOM     21  O5* UNL     1     -12.689   6.665 131.542  0.00  0.00    +0.000 OA
ATOM     22  H5* UNL     1     -13.478   6.180 131.844  0.00  0.00    +0.000 HD
ENDBRANCH  20  21
ENDBRANCH   3  20
TORSDOF 6
ENDMDL
MODEL 9
REMARK VINA RESULT:      -5.5      2.053      2.424
REMARK  Name = Ribavirin
REMARK  6 active torsions:
REMARK  status: ('A' for Active; 'I' for Inactive)
REMARK    1  A    between atoms: C_2  and  C_4
REMARK    2  A    between atoms: N_6  and  C1*_9
REMARK    3  A    between atoms: C4*_11  and  C5*_12
REMARK    4  A    between atoms: C5*_12  and  O5*_13
REMARK    5  A    between atoms: C3*_14  and  O3*_15
REMARK    6  A    between atoms: C2*_16  and  O2*_17
REMARK                            x       y       z     vdW  Elec       q    Type
REMARK                         _______ _______ _______ _____ _____    ______ ____
ROOT
ATOM      1  C1* UNL     1     -10.205   4.933 130.435  0.00  0.00    +0.000 C 
ATOM      2  O4* UNL     1      -9.948   4.651 131.827  0.00  0.00    +0.000 OA
ATOM      3  C4* UNL     1      -8.525   4.546 132.029  0.00  0.00    +0.000 C 
ATOM      4  C3* UNL     1      -7.856   4.623 130.653  0.00  0.00    +0.000 C 
ATOM      5  C2* UNL     1      -8.881   5.361 129.802  0.00  0.00    +0.000 C 
ENDROOT
BRANCH   1   8
ATOM      6  C   UNL     1     -12.544   7.362 129.499  0.00  0.00    +0.000 A 
ATOM      7  N   UNL     1     -11.642   6.422 129.135  0.00  0.00    +0.000 NA
ATOM      8  N   UNL     1     -11.256   5.930 130.333  0.00  0.00    +0.000 N 
ATOM      9  C   UNL     1     -11.988   6.472 131.341  0.00  0.00    +0.000 A 
ATOM     10  N   UNL     1     -12.777   7.402 130.862  0.00  0.00    +0.000 NA
BRANCH   6  12
ATOM     11  N   UNL     1     -13.887   7.522 127.511  0.00  0.00    +0.000 N 
ATOM     12  C   UNL     1     -13.266   8.204 128.527  0.00  0.00    +0.000 C 
ATOM     13  O   UNL     1     -13.356   9.431 128.597  0.00  0.00    +0.000 OA
ATOM     14  H   UNL     1     -14.427   8.049 126.841  0.00  0.00    +0.000 HD
ATOM     15  H   UNL     1     -13.872   6.512 127.480  0.00  0.00    +0.000 HD
ENDBRANCH   6  12
ENDBRANCH   1   8
BRANCH   4  16
ATOM     16  O3* UNL     1      -7.623   3.312 130.116  0.00  0.00    +0.000 OA
ATOM     17  H3* UNL     1      -8.100   2.647 130.637  0.00  0.00    +0.000 HD
ENDBRANCH   4  16
BRANCH   5  18
ATOM     18  O2* UNL     1      -8.796   5.034 128.418  0.00  0.00    +0.000 OA
ATOM     19  H2* UNL     1      -8.313   5.746 127.959  0.00  0.00    +0.000 HD
ENDBRANCH   5  18
BRANCH   3  20
ATOM     20  C5* UNL     1      -8.072   5.659 132.977  0.00  0.00    +0.000 C 
BRANCH  20  21
ATOM     21  O5* UNL     1      -9.171   6.198 133.696  0.00  0.00    +0.000 OA
ATOM     22  H5* UNL     1      -9.964   5.673 133.482  0.00  0.00    +0.000 HD
ENDBRANCH  20  21
ENDBRANCH   3  20
TORSDOF 6
ENDMDL
