MODEL 1
REMARK VINA RESULT:      -6.7      0.000      0.000
REMARK  Name = Ribostamycin
REMARK  16 active torsions:
REMARK  status: ('A' for Active; 'I' for Inactive)
REMARK    1  A    between atoms: C_2  and  O_3
REMARK    2  A    between atoms: O_3  and  C_4
REMARK    3  A    between atoms: C_5  and  O_6
REMARK    4  A    between atoms: C_7  and  N_8
REMARK    5  A    between atoms: C_10  and  N_11
REMARK    6  A    between atoms: C_12  and  O_13
REMARK    7  A    between atoms: O_13  and  C_14
REMARK    8  A    between atoms: C_16  and  C_17
REMARK    9  A    between atoms: C_17  and  N_18
REMARK   10  A    between atoms: C_19  and  O_20
REMARK   11  A    between atoms: C_21  and  O_22
REMARK   12  A    between atoms: C_23  and  N_24
REMARK   13  A    between atoms: C_26  and  C_27
REMARK   14  A    between atoms: C_27  and  O_28
REMARK   15  A    between atoms: C_29  and  O_30
REMARK   16  A    between atoms: C_31  and  O_32
REMARK                            x       y       z     vdW  Elec       q    Type
REMARK                         _______ _______ _______ _____ _____    ______ ____
ROOT
ATOM      1  C   UNL     1      -8.509   3.760 129.024  0.00  0.00    +0.000 C 
ATOM      2  C   UNL     1      -8.291   2.712 130.137  0.00  0.00    +0.000 C 
ATOM      3  C   UNL     1      -7.066   2.950 131.035  0.00  0.00    +0.000 C 
ATOM      4  C   UNL     1      -5.844   3.078 130.139  0.00  0.00    +0.000 C 
ATOM      5  C   UNL     1      -6.005   4.154 129.038  0.00  0.00    +0.000 C 
ATOM      6  C   UNL     1      -7.229   3.790 128.148  0.00  0.00    +0.000 C 
ENDROOT
BRANCH   3   7
ATOM      7  N   UNL     1      -7.179   4.091 131.957  0.00  0.00    +0.000 NA
ATOM      8  H   UNL     1      -6.307   4.622 131.965  0.00  0.00    +0.000 HD
ATOM      9  H   UNL     1      -7.282   3.748 132.911  0.00  0.00    +0.000 HD
ENDBRANCH   3   7
BRANCH   5  10
ATOM     10  N   UNL     1      -6.090   5.534 129.542  0.00  0.00    +0.000 NA
ATOM     11  H   UNL     1      -6.613   6.081 128.849  0.00  0.00    +0.000 HD
ATOM     12  H   UNL     1      -5.160   5.951 129.481  0.00  0.00    +0.000 HD
ENDBRANCH   5  10
BRANCH   2  13
ATOM     13  O   UNL     1      -8.344   1.373 129.634  0.00  0.00    +0.000 OA
ATOM     14  H   UNL     1      -8.560   0.772 130.377  0.00  0.00    +0.000 HD
ENDBRANCH   2  13
BRANCH   6  15
ATOM     15  O   UNL     1      -7.123   2.479 127.569  0.00  0.00    +0.000 OA
BRANCH  15  16
ATOM     16  C   UNL     1      -7.673   2.343 126.264  0.00  0.00    +0.000 C 
ATOM     17  O   UNL     1      -6.665   1.980 125.323  0.00  0.00    +0.000 OA
ATOM     18  C   UNL     1      -7.076   1.963 123.948  0.00  0.00    +0.000 C 
ATOM     19  C   UNL     1      -8.128   0.851 123.818  0.00  0.00    +0.000 C 
ATOM     20  C   UNL     1      -9.261   1.024 124.855  0.00  0.00    +0.000 C 
ATOM     21  C   UNL     1      -8.734   1.209 126.301  0.00  0.00    +0.000 C 
BRANCH  21  22
ATOM     22  N   UNL     1      -8.193  -0.033 126.908  0.00  0.00    +0.000 NA
ATOM     23  H   UNL     1      -8.650  -0.229 127.795  0.00  0.00    +0.000 HD
ATOM     24  H   UNL     1      -7.196   0.073 127.110  0.00  0.00    +0.000 HD
ENDBRANCH  21  22
BRANCH  19  25
ATOM     25  O   UNL     1      -7.471  -0.417 124.045  0.00  0.00    +0.000 OA
ATOM     26  H   UNL     1      -6.800  -0.529 123.364  0.00  0.00    +0.000 HD
ENDBRANCH  19  25
BRANCH  20  27
ATOM     27  O   UNL     1     -10.109   2.123 124.484  0.00  0.00    +0.000 OA
ATOM     28  H   UNL     1      -9.833   2.507 123.642  0.00  0.00    +0.000 HD
ENDBRANCH  20  27
BRANCH  18  29
ATOM     29  C   UNL     1      -7.479   3.370 123.430  0.00  0.00    +0.000 C 
BRANCH  29  30
ATOM     30  N   UNL     1      -8.446   3.420 122.342  0.00  0.00    +0.000 NA
ATOM     31  H   UNL     1      -8.115   4.003 121.572  0.00  0.00    +0.000 HD
ATOM     32  H   UNL     1      -9.339   3.798 122.651  0.00  0.00    +0.000 HD
ENDBRANCH  29  30
ENDBRANCH  18  29
ENDBRANCH  15  16
ENDBRANCH   6  15
BRANCH   1  33
ATOM     33  O   UNL     1      -8.773   5.074 129.543  0.00  0.00    +0.000 OA
BRANCH  33  34
ATOM     34  C   UNL     1      -9.995   5.255 130.266  0.00  0.00    +0.000 C 
ATOM     35  O   UNL     1     -11.180   5.122 129.472  0.00  0.00    +0.000 OA
ATOM     36  C   UNL     1     -12.057   6.248 129.700  0.00  0.00    +0.000 C 
ATOM     37  C   UNL     1     -11.575   6.864 131.011  0.00  0.00    +0.000 C 
ATOM     38  C   UNL     1     -10.084   6.571 131.031  0.00  0.00    +0.000 C 
BRANCH  38  39
ATOM     39  O   UNL     1      -9.536   6.446 132.344  0.00  0.00    +0.000 OA
ATOM     40  H   UNL     1      -8.724   6.986 132.366  0.00  0.00    +0.000 HD
ENDBRANCH  38  39
BRANCH  37  41
ATOM     41  O   UNL     1     -12.195   6.199 132.122  0.00  0.00    +0.000 OA
ATOM     42  H   UNL     1     -11.493   5.815 132.676  0.00  0.00    +0.000 HD
ENDBRANCH  37  41
BRANCH  36  43
ATOM     43  C   UNL     1     -12.102   7.268 128.539  0.00  0.00    +0.000 C 
BRANCH  43  44
ATOM     44  O   UNL     1     -11.940   6.628 127.283  0.00  0.00    +0.000 OA
ATOM     45  H   UNL     1     -11.049   6.849 126.963  0.00  0.00    +0.000 HD
ENDBRANCH  43  44
ENDBRANCH  36  43
ENDBRANCH  33  34
ENDBRANCH   1  33
TORSDOF 16
ENDMDL
MODEL 2
REMARK VINA RESULT:      -6.6      2.533      4.452
REMARK  Name = Ribostamycin
REMARK  16 active torsions:
REMARK  status: ('A' for Active; 'I' for Inactive)
REMARK    1  A    between atoms: C_2  and  O_3
REMARK    2  A    between atoms: O_3  and  C_4
REMARK    3  A    between atoms: C_5  and  O_6
REMARK    4  A    between atoms: C_7  and  N_8
REMARK    5  A    between atoms: C_10  and  N_11
REMARK    6  A    between atoms: C_12  and  O_13
REMARK    7  A    between atoms: O_13  and  C_14
REMARK    8  A    between atoms: C_16  and  C_17
REMARK    9  A    between atoms: C_17  and  N_18
REMARK   10  A    between atoms: C_19  and  O_20
REMARK   11  A    between atoms: C_21  and  O_22
REMARK   12  A    between atoms: C_23  and  N_24
REMARK   13  A    between atoms: C_26  and  C_27
REMARK   14  A    between atoms: C_27  and  O_28
REMARK   15  A    between atoms: C_29  and  O_30
REMARK   16  A    between atoms: C_31  and  O_32
REMARK                            x       y       z     vdW  Elec       q    Type
REMARK                         _______ _______ _______ _____ _____    ______ ____
ROOT
ATOM      1  C   UNL     1      -7.261   2.172 126.697  0.00  0.00    +0.000 C 
ATOM      2  C   UNL     1      -5.838   2.741 126.510  0.00  0.00    +0.000 C 
ATOM      3  C   UNL     1      -5.743   4.002 125.634  0.00  0.00    +0.000 C 
ATOM      4  C   UNL     1      -6.405   3.698 124.300  0.00  0.00    +0.000 C 
ATOM      5  C   UNL     1      -7.852   3.168 124.443  0.00  0.00    +0.000 C 
ATOM      6  C   UNL     1      -7.834   1.862 125.289  0.00  0.00    +0.000 C 
ENDROOT
BRANCH   3   7
ATOM      7  N   UNL     1      -6.291   5.226 126.240  0.00  0.00    +0.000 NA
ATOM      8  H   UNL     1      -7.051   5.590 125.665  0.00  0.00    +0.000 HD
ATOM      9  H   UNL     1      -5.582   5.959 126.225  0.00  0.00    +0.000 HD
ENDBRANCH   3   7
BRANCH   5  10
ATOM     10  N   UNL     1      -8.810   4.150 124.978  0.00  0.00    +0.000 NA
ATOM     11  H   UNL     1      -8.376   5.076 124.896  0.00  0.00    +0.000 HD
ATOM     12  H   UNL     1      -8.854   4.028 125.991  0.00  0.00    +0.000 HD
ENDBRANCH   5  10
BRANCH   2  13
ATOM     13  O   UNL     1      -4.901   1.734 126.115  0.00  0.00    +0.000 OA
ATOM     14  H   UNL     1      -5.309   1.193 125.408  0.00  0.00    +0.000 HD
ENDBRANCH   2  13
BRANCH   6  15
ATOM     15  O   UNL     1      -6.974   0.854 124.733  0.00  0.00    +0.000 OA
BRANCH  15  16
ATOM     16  C   UNL     1      -7.520  -0.459 124.693  0.00  0.00    +0.000 C 
ATOM     17  O   UNL     1      -7.145  -1.130 123.492  0.00  0.00    +0.000 OA
ATOM     18  C   UNL     1      -7.764  -2.407 123.274  0.00  0.00    +0.000 C 
ATOM     19  C   UNL     1      -7.266  -3.333 124.392  0.00  0.00    +0.000 C 
ATOM     20  C   UNL     1      -7.495  -2.706 125.786  0.00  0.00    +0.000 C 
ATOM     21  C   UNL     1      -6.950  -1.259 125.895  0.00  0.00    +0.000 C 
BRANCH  21  22
ATOM     22  N   UNL     1      -5.468  -1.176 125.959  0.00  0.00    +0.000 NA
ATOM     23  H   UNL     1      -5.077  -1.009 125.036  0.00  0.00    +0.000 HD
ATOM     24  H   UNL     1      -5.075  -2.061 126.288  0.00  0.00    +0.000 HD
ENDBRANCH  21  22
BRANCH  19  25
ATOM     25  O   UNL     1      -5.849  -3.548 124.199  0.00  0.00    +0.000 OA
ATOM     26  H   UNL     1      -5.635  -3.318 123.290  0.00  0.00    +0.000 HD
ENDBRANCH  19  25
BRANCH  20  27
ATOM     27  O   UNL     1      -8.891  -2.745 126.124  0.00  0.00    +0.000 OA
ATOM     28  H   UNL     1      -9.045  -2.392 127.009  0.00  0.00    +0.000 HD
ENDBRANCH  20  27
BRANCH  18  29
ATOM     29  C   UNL     1      -9.302  -2.298 123.089  0.00  0.00    +0.000 C 
BRANCH  29  30
ATOM     30  N   UNL     1     -10.091  -3.474 123.428  0.00  0.00    +0.000 NA
ATOM     31  H   UNL     1      -9.874  -4.261 122.816  0.00  0.00    +0.000 HD
ATOM     32  H   UNL     1     -11.089  -3.291 123.349  0.00  0.00    +0.000 HD
ENDBRANCH  29  30
ENDBRANCH  18  29
ENDBRANCH  15  16
ENDBRANCH   6  15
BRANCH   1  33
ATOM     33  O   UNL     1      -8.135   3.079 127.389  0.00  0.00    +0.000 OA
BRANCH  33  34
ATOM     34  C   UNL     1      -7.961   3.201 128.804  0.00  0.00    +0.000 C 
ATOM     35  O   UNL     1      -8.879   2.424 129.584  0.00  0.00    +0.000 OA
ATOM     36  C   UNL     1      -9.482   3.251 130.605  0.00  0.00    +0.000 C 
ATOM     37  C   UNL     1      -8.567   4.467 130.720  0.00  0.00    +0.000 C 
ATOM     38  C   UNL     1      -7.997   4.634 129.321  0.00  0.00    +0.000 C 
BRANCH  38  39
ATOM     39  O   UNL     1      -6.699   5.229 129.292  0.00  0.00    +0.000 OA
ATOM     40  H   UNL     1      -6.057   4.522 129.493  0.00  0.00    +0.000 HD
ENDBRANCH  38  39
BRANCH  37  41
ATOM     41  O   UNL     1      -7.492   4.186 131.630  0.00  0.00    +0.000 OA
ATOM     42  H   UNL     1      -7.774   3.465 132.220  0.00  0.00    +0.000 HD
ENDBRANCH  37  41
BRANCH  36  43
ATOM     43  C   UNL     1     -10.954   3.633 130.329  0.00  0.00    +0.000 C 
BRANCH  43  44
ATOM     44  O   UNL     1     -11.301   4.849 130.972  0.00  0.00    +0.000 OA
ATOM     45  H   UNL     1     -12.087   4.669 131.516  0.00  0.00    +0.000 HD
ENDBRANCH  43  44
ENDBRANCH  36  43
ENDBRANCH  33  34
ENDBRANCH   1  33
TORSDOF 16
ENDMDL
MODEL 3
REMARK VINA RESULT:      -6.6      2.231      7.176
REMARK  Name = Ribostamycin
REMARK  16 active torsions:
REMARK  status: ('A' for Active; 'I' for Inactive)
REMARK    1  A    between atoms: C_2  and  O_3
REMARK    2  A    between atoms: O_3  and  C_4
REMARK    3  A    between atoms: C_5  and  O_6
REMARK    4  A    between atoms: C_7  and  N_8
REMARK    5  A    between atoms: C_10  and  N_11
REMARK    6  A    between atoms: C_12  and  O_13
REMARK    7  A    between atoms: O_13  and  C_14
REMARK    8  A    between atoms: C_16  and  C_17
REMARK    9  A    between atoms: C_17  and  N_18
REMARK   10  A    between atoms: C_19  and  O_20
REMARK   11  A    between atoms: C_21  and  O_22
REMARK   12  A    between atoms: C_23  and  N_24
REMARK   13  A    between atoms: C_26  and  C_27
REMARK   14  A    between atoms: C_27  and  O_28
REMARK   15  A    between atoms: C_29  and  O_30
REMARK   16  A    between atoms: C_31  and  O_32
REMARK                            x       y       z     vdW  Elec       q    Type
REMARK                         _______ _______ _______ _____ _____    ______ ____
ROOT
ATOM      1  C   UNL     1      -7.813   3.150 126.322  0.00  0.00    +0.000 C 
ATOM      2  C   UNL     1      -7.737   4.312 125.309  0.00  0.00    +0.000 C 
ATOM      3  C   UNL     1      -6.317   4.780 124.950  0.00  0.00    +0.000 C 
ATOM      4  C   UNL     1      -5.592   5.117 126.243  0.00  0.00    +0.000 C 
ATOM      5  C   UNL     1      -5.605   3.958 127.269  0.00  0.00    +0.000 C 
ATOM      6  C   UNL     1      -7.081   3.601 127.613  0.00  0.00    +0.000 C 
ENDROOT
BRANCH   3   7
ATOM      7  N   UNL     1      -5.539   3.842 124.125  0.00  0.00    +0.000 NA
ATOM      8  H   UNL     1      -5.129   4.333 123.330  0.00  0.00    +0.000 HD
ATOM      9  H   UNL     1      -6.167   3.155 123.709  0.00  0.00    +0.000 HD
ENDBRANCH   3   7
BRANCH   5  10
ATOM     10  N   UNL     1      -4.840   2.770 126.856  0.00  0.00    +0.000 NA
ATOM     11  H   UNL     1      -3.892   3.084 126.620  0.00  0.00    +0.000 HD
ATOM     12  H   UNL     1      -5.193   2.467 125.947  0.00  0.00    +0.000 HD
ENDBRANCH   5  10
BRANCH   2  13
ATOM     13  O   UNL     1      -8.592   5.401 125.671  0.00  0.00    +0.000 OA
ATOM     14  H   UNL     1      -9.349   5.043 126.179  0.00  0.00    +0.000 HD
ENDBRANCH   2  13
BRANCH   6  15
ATOM     15  O   UNL     1      -7.822   4.729 128.107  0.00  0.00    +0.000 OA
BRANCH  15  16
ATOM     16  C   UNL     1      -8.640   4.471 129.242  0.00  0.00    +0.000 C 
ATOM     17  O   UNL     1      -7.916   4.691 130.451  0.00  0.00    +0.000 OA
ATOM     18  C   UNL     1      -8.595   4.316 131.659  0.00  0.00    +0.000 C 
ATOM     19  C   UNL     1      -9.817   5.237 131.781  0.00  0.00    +0.000 C 
ATOM     20  C   UNL     1     -10.673   5.209 130.494  0.00  0.00    +0.000 C 
ATOM     21  C   UNL     1      -9.841   5.454 129.209  0.00  0.00    +0.000 C 
BRANCH  21  22
ATOM     22  N   UNL     1      -9.397   6.861 129.037  0.00  0.00    +0.000 NA
ATOM     23  H   UNL     1      -8.942   6.987 128.138  0.00  0.00    +0.000 HD
ATOM     24  H   UNL     1      -8.709   7.107 129.752  0.00  0.00    +0.000 HD
ENDBRANCH  21  22
BRANCH  19  25
ATOM     25  O   UNL     1      -9.343   6.585 132.002  0.00  0.00    +0.000 OA
ATOM     26  H   UNL     1      -8.957   6.902 131.180  0.00  0.00    +0.000 HD
ENDBRANCH  19  25
BRANCH  20  27
ATOM     27  O   UNL     1     -11.388   3.967 130.401  0.00  0.00    +0.000 OA
ATOM     28  H   UNL     1     -11.125   3.360 131.103  0.00  0.00    +0.000 HD
ENDBRANCH  20  27
BRANCH  18  29
ATOM     29  C   UNL     1      -8.860   2.788 131.741  0.00  0.00    +0.000 C 
BRANCH  29  30
ATOM     30  N   UNL     1      -9.969   2.356 132.580  0.00  0.00    +0.000 NA
ATOM     31  H   UNL     1     -10.860   2.420 132.087  0.00  0.00    +0.000 HD
ATOM     32  H   UNL     1     -10.044   2.921 133.423  0.00  0.00    +0.000 HD
ENDBRANCH  29  30
ENDBRANCH  18  29
ENDBRANCH  15  16
ENDBRANCH   6  15
BRANCH   1  33
ATOM     33  O   UNL     1      -7.219   1.940 125.825  0.00  0.00    +0.000 OA
BRANCH  33  34
ATOM     34  C   UNL     1      -7.956   1.209 124.839  0.00  0.00    +0.000 C 
ATOM     35  O   UNL     1      -7.496   1.395 123.495  0.00  0.00    +0.000 OA
ATOM     36  C   UNL     1      -8.610   1.713 122.631  0.00  0.00    +0.000 C 
ATOM     37  C   UNL     1      -9.849   1.272 123.406  0.00  0.00    +0.000 C 
ATOM     38  C   UNL     1      -9.459   1.460 124.864  0.00  0.00    +0.000 C 
BRANCH  38  39
ATOM     39  O   UNL     1     -10.120   0.566 125.760  0.00  0.00    +0.000 OA
ATOM     40  H   UNL     1      -9.424   0.084 126.246  0.00  0.00    +0.000 HD
ENDBRANCH  38  39
BRANCH  37  41
ATOM     41  O   UNL     1     -10.105  -0.121 123.169  0.00  0.00    +0.000 OA
ATOM     42  H   UNL     1     -10.024  -0.593 124.017  0.00  0.00    +0.000 HD
ENDBRANCH  37  41
BRANCH  36  43
ATOM     43  C   UNL     1      -8.675   3.193 122.190  0.00  0.00    +0.000 C 
BRANCH  43  44
ATOM     44  O   UNL     1      -7.404   3.661 121.766  0.00  0.00    +0.000 OA
ATOM     45  H   UNL     1      -7.218   3.241 120.908  0.00  0.00    +0.000 HD
ENDBRANCH  43  44
ENDBRANCH  36  43
ENDBRANCH  33  34
ENDBRANCH   1  33
TORSDOF 16
ENDMDL
MODEL 4
REMARK VINA RESULT:      -6.4      4.544      7.776
REMARK  Name = Ribostamycin
REMARK  16 active torsions:
REMARK  status: ('A' for Active; 'I' for Inactive)
REMARK    1  A    between atoms: C_2  and  O_3
REMARK    2  A    between atoms: O_3  and  C_4
REMARK    3  A    between atoms: C_5  and  O_6
REMARK    4  A    between atoms: C_7  and  N_8
REMARK    5  A    between atoms: C_10  and  N_11
REMARK    6  A    between atoms: C_12  and  O_13
REMARK    7  A    between atoms: O_13  and  C_14
REMARK    8  A    between atoms: C_16  and  C_17
REMARK    9  A    between atoms: C_17  and  N_18
REMARK   10  A    between atoms: C_19  and  O_20
REMARK   11  A    between atoms: C_21  and  O_22
REMARK   12  A    between atoms: C_23  and  N_24
REMARK   13  A    between atoms: C_26  and  C_27
REMARK   14  A    between atoms: C_27  and  O_28
REMARK   15  A    between atoms: C_29  and  O_30
REMARK   16  A    between atoms: C_31  and  O_32
REMARK                            x       y       z     vdW  Elec       q    Type
REMARK                         _______ _______ _______ _____ _____    ______ ____
ROOT
ATOM      1  C   UNL     1      -7.846  -0.868 125.643  0.00  0.00    +0.000 C 
ATOM      2  C   UNL     1      -7.011  -1.324 124.429  0.00  0.00    +0.000 C 
ATOM      3  C   UNL     1      -7.587  -2.513 123.642  0.00  0.00    +0.000 C 
ATOM      4  C   UNL     1      -7.823  -3.653 124.619  0.00  0.00    +0.000 C 
ATOM      5  C   UNL     1      -8.698  -3.248 125.829  0.00  0.00    +0.000 C 
ATOM      6  C   UNL     1      -8.001  -2.085 126.594  0.00  0.00    +0.000 C 
ENDROOT
BRANCH   3   7
ATOM      7  N   UNL     1      -8.796  -2.216 122.858  0.00  0.00    +0.000 NA
ATOM      8  H   UNL     1      -9.253  -1.380 123.224  0.00  0.00    +0.000 HD
ATOM      9  H   UNL     1      -9.479  -2.962 122.991  0.00  0.00    +0.000 HD
ENDBRANCH   3   7
BRANCH   5  10
ATOM     10  N   UNL     1     -10.092  -2.917 125.490  0.00  0.00    +0.000 NA
ATOM     11  H   UNL     1     -10.493  -3.734 125.016  0.00  0.00    +0.000 HD
ATOM     12  H   UNL     1     -10.079  -2.224 124.740  0.00  0.00    +0.000 HD
ENDBRANCH   5  10
BRANCH   2  13
ATOM     13  O   UNL     1      -5.631  -1.512 124.763  0.00  0.00    +0.000 OA
ATOM     14  H   UNL     1      -5.522  -2.414 125.129  0.00  0.00    +0.000 HD
ENDBRANCH   2  13
BRANCH   6  15
ATOM     15  O   UNL     1      -6.669  -2.420 127.016  0.00  0.00    +0.000 OA
BRANCH  15  16
ATOM     16  C   UNL     1      -6.397  -2.210 128.396  0.00  0.00    +0.000 C 
ATOM     17  O   UNL     1      -5.324  -3.040 128.836  0.00  0.00    +0.000 OA
ATOM     18  C   UNL     1      -5.062  -3.023 130.247  0.00  0.00    +0.000 C 
ATOM     19  C   UNL     1      -4.599  -1.600 130.590  0.00  0.00    +0.000 C 
ATOM     20  C   UNL     1      -5.605  -0.543 130.081  0.00  0.00    +0.000 C 
ATOM     21  C   UNL     1      -5.973  -0.728 128.587  0.00  0.00    +0.000 C 
BRANCH  21  22
ATOM     22  N   UNL     1      -4.892  -0.338 127.647  0.00  0.00    +0.000 NA
ATOM     23  H   UNL     1      -4.092  -0.959 127.742  0.00  0.00    +0.000 HD
ATOM     24  H   UNL     1      -4.558   0.604 127.858  0.00  0.00    +0.000 HD
ENDBRANCH  21  22
BRANCH  19  25
ATOM     25  O   UNL     1      -3.320  -1.378 129.953  0.00  0.00    +0.000 OA
ATOM     26  H   UNL     1      -3.463  -0.805 129.194  0.00  0.00    +0.000 HD
ENDBRANCH  19  25
BRANCH  20  27
ATOM     27  O   UNL     1      -6.788  -0.552 130.897  0.00  0.00    +0.000 OA
ATOM     28  H   UNL     1      -6.680   0.009 131.674  0.00  0.00    +0.000 HD
ENDBRANCH  20  27
BRANCH  18  29
ATOM     29  C   UNL     1      -6.244  -3.593 131.078  0.00  0.00    +0.000 C 
BRANCH  29  30
ATOM     30  N   UNL     1      -6.336  -3.170 132.468  0.00  0.00    +0.000 NA
ATOM     31  H   UNL     1      -7.104  -2.513 132.611  0.00  0.00    +0.000 HD
ATOM     32  H   UNL     1      -5.481  -2.714 132.779  0.00  0.00    +0.000 HD
ENDBRANCH  29  30
ENDBRANCH  18  29
ENDBRANCH  15  16
ENDBRANCH   6  15
BRANCH   1  33
ATOM     33  O   UNL     1      -9.144  -0.375 125.270  0.00  0.00    +0.000 OA
BRANCH  33  34
ATOM     34  C   UNL     1      -9.276   1.038 125.089  0.00  0.00    +0.000 C 
ATOM     35  O   UNL     1      -9.240   1.467 123.722  0.00  0.00    +0.000 OA
ATOM     36  C   UNL     1      -8.301   2.555 123.570  0.00  0.00    +0.000 C 
ATOM     37  C   UNL     1      -8.085   3.091 124.983  0.00  0.00    +0.000 C 
ATOM     38  C   UNL     1      -8.268   1.871 125.872  0.00  0.00    +0.000 C 
BRANCH  38  39
ATOM     39  O   UNL     1      -8.752   2.175 127.181  0.00  0.00    +0.000 OA
ATOM     40  H   UNL     1      -9.640   2.565 127.072  0.00  0.00    +0.000 HD
ENDBRANCH  38  39
BRANCH  37  41
ATOM     41  O   UNL     1      -9.099   4.055 125.302  0.00  0.00    +0.000 OA
ATOM     42  H   UNL     1      -9.643   4.198 124.507  0.00  0.00    +0.000 HD
ENDBRANCH  37  41
BRANCH  36  43
ATOM     43  C   UNL     1      -6.979   2.165 122.869  0.00  0.00    +0.000 C 
BRANCH  43  44
ATOM     44  O   UNL     1      -6.373   3.287 122.247  0.00  0.00    +0.000 OA
ATOM     45  H   UNL     1      -5.658   3.586 122.835  0.00  0.00    +0.000 HD
ENDBRANCH  43  44
ENDBRANCH  36  43
ENDBRANCH  33  34
ENDBRANCH   1  33
TORSDOF 16
ENDMDL
MODEL 5
REMARK VINA RESULT:      -6.4      2.381      6.855
REMARK  Name = Ribostamycin
REMARK  16 active torsions:
REMARK  status: ('A' for Active; 'I' for Inactive)
REMARK    1  A    between atoms: C_2  and  O_3
REMARK    2  A    between atoms: O_3  and  C_4
REMARK    3  A    between atoms: C_5  and  O_6
REMARK    4  A    between atoms: C_7  and  N_8
REMARK    5  A    between atoms: C_10  and  N_11
REMARK    6  A    between atoms: C_12  and  O_13
REMARK    7  A    between atoms: O_13  and  C_14
REMARK    8  A    between atoms: C_16  and  C_17
REMARK    9  A    between atoms: C_17  and  N_18
REMARK   10  A    between atoms: C_19  and  O_20
REMARK   11  A    between atoms: C_21  and  O_22
REMARK   12  A    between atoms: C_23  and  N_24
REMARK   13  A    between atoms: C_26  and  C_27
REMARK   14  A    between atoms: C_27  and  O_28
REMARK   15  A    between atoms: C_29  and  O_30
REMARK   16  A    between atoms: C_31  and  O_32
REMARK                            x       y       z     vdW  Elec       q    Type
REMARK                         _______ _______ _______ _____ _____    ______ ____
ROOT
ATOM      1  C   UNL     1      -6.043   3.192 127.043  0.00  0.00    +0.000 C 
ATOM      2  C   UNL     1      -4.879   4.035 126.480  0.00  0.00    +0.000 C 
ATOM      3  C   UNL     1      -3.480   3.653 126.993  0.00  0.00    +0.000 C 
ATOM      4  C   UNL     1      -3.512   3.686 128.512  0.00  0.00    +0.000 C 
ATOM      5  C   UNL     1      -4.637   2.814 129.118  0.00  0.00    +0.000 C 
ATOM      6  C   UNL     1      -6.011   3.318 128.589  0.00  0.00    +0.000 C 
ENDROOT
BRANCH   3   7
ATOM      7  N   UNL     1      -2.960   2.370 126.493  0.00  0.00    +0.000 NA
ATOM      8  H   UNL     1      -2.156   2.079 127.050  0.00  0.00    +0.000 HD
ATOM      9  H   UNL     1      -2.590   2.497 125.552  0.00  0.00    +0.000 HD
ENDBRANCH   3   7
BRANCH   5  10
ATOM     10  N   UNL     1      -4.469   1.367 128.904  0.00  0.00    +0.000 NA
ATOM     11  H   UNL     1      -3.473   1.199 128.725  0.00  0.00    +0.000 HD
ATOM     12  H   UNL     1      -4.888   1.130 128.004  0.00  0.00    +0.000 HD
ENDBRANCH   5  10
BRANCH   2  13
ATOM     13  O   UNL     1      -5.131   5.440 126.585  0.00  0.00    +0.000 OA
ATOM     14  H   UNL     1      -5.222   5.806 125.681  0.00  0.00    +0.000 HD
ENDBRANCH   2  13
BRANCH   6  15
ATOM     15  O   UNL     1      -6.236   4.710 128.870  0.00  0.00    +0.000 OA
BRANCH  15  16
ATOM     16  C   UNL     1      -7.295   4.984 129.780  0.00  0.00    +0.000 C 
ATOM     17  O   UNL     1      -7.292   6.358 130.163  0.00  0.00    +0.000 OA
ATOM     18  C   UNL     1      -8.223   6.717 131.195  0.00  0.00    +0.000 C 
ATOM     19  C   UNL     1      -9.628   6.491 130.618  0.00  0.00    +0.000 C 
ATOM     20  C   UNL     1      -9.778   5.063 130.046  0.00  0.00    +0.000 C 
ATOM     21  C   UNL     1      -8.640   4.681 129.066  0.00  0.00    +0.000 C 
BRANCH  21  22
ATOM     22  N   UNL     1      -8.728   5.358 127.747  0.00  0.00    +0.000 NA
ATOM     23  H   UNL     1      -8.850   4.678 127.001  0.00  0.00    +0.000 HD
ATOM     24  H   UNL     1      -7.861   5.861 127.545  0.00  0.00    +0.000 HD
ENDBRANCH  21  22
BRANCH  19  25
ATOM     25  O   UNL     1      -9.836   7.449 129.555  0.00  0.00    +0.000 OA
ATOM     26  H   UNL     1     -10.427   7.050 128.909  0.00  0.00    +0.000 HD
ENDBRANCH  19  25
BRANCH  20  27
ATOM     27  O   UNL     1      -9.864   4.107 131.115  0.00  0.00    +0.000 OA
ATOM     28  H   UNL     1     -10.660   4.245 131.643  0.00  0.00    +0.000 HD
ENDBRANCH  20  27
BRANCH  18  29
ATOM     29  C   UNL     1      -7.904   6.027 132.549  0.00  0.00    +0.000 C 
BRANCH  29  30
ATOM     30  N   UNL     1      -8.962   6.020 133.550  0.00  0.00    +0.000 NA
ATOM     31  H   UNL     1      -9.395   6.939 133.645  0.00  0.00    +0.000 HD
ATOM     32  H   UNL     1      -8.609   5.751 134.466  0.00  0.00    +0.000 HD
ENDBRANCH  29  30
ENDBRANCH  18  29
ENDBRANCH  15  16
ENDBRANCH   6  15
BRANCH   1  33
ATOM     33  O   UNL     1      -5.958   1.807 126.668  0.00  0.00    +0.000 OA
BRANCH  33  34
ATOM     34  C   UNL     1      -7.056   1.264 125.928  0.00  0.00    +0.000 C 
ATOM     35  O   UNL     1      -6.798   1.080 124.531  0.00  0.00    +0.000 OA
ATOM     36  C   UNL     1      -7.869   1.656 123.750  0.00  0.00    +0.000 C 
ATOM     37  C   UNL     1      -9.031   1.809 124.728  0.00  0.00    +0.000 C 
ATOM     38  C   UNL     1      -8.357   2.045 126.070  0.00  0.00    +0.000 C 
BRANCH  38  39
ATOM     39  O   UNL     1      -9.118   1.587 127.188  0.00  0.00    +0.000 OA
ATOM     40  H   UNL     1      -8.497   1.129 127.786  0.00  0.00    +0.000 HD
ENDBRANCH  38  39
BRANCH  37  41
ATOM     41  O   UNL     1      -9.781   0.586 124.792  0.00  0.00    +0.000 OA
ATOM     42  H   UNL     1     -10.728   0.811 124.806  0.00  0.00    +0.000 HD
ENDBRANCH  37  41
BRANCH  36  43
ATOM     43  C   UNL     1      -7.502   2.981 123.043  0.00  0.00    +0.000 C 
BRANCH  43  44
ATOM     44  O   UNL     1      -8.619   3.526 122.357  0.00  0.00    +0.000 OA
ATOM     45  H   UNL     1      -8.369   3.600 121.420  0.00  0.00    +0.000 HD
ENDBRANCH  43  44
ENDBRANCH  36  43
ENDBRANCH  33  34
ENDBRANCH   1  33
TORSDOF 16
ENDMDL
MODEL 6
REMARK VINA RESULT:      -6.3      2.871      3.987
REMARK  Name = Ribostamycin
REMARK  16 active torsions:
REMARK  status: ('A' for Active; 'I' for Inactive)
REMARK    1  A    between atoms: C_2  and  O_3
REMARK    2  A    between atoms: O_3  and  C_4
REMARK    3  A    between atoms: C_5  and  O_6
REMARK    4  A    between atoms: C_7  and  N_8
REMARK    5  A    between atoms: C_10  and  N_11
REMARK    6  A    between atoms: C_12  and  O_13
REMARK    7  A    between atoms: O_13  and  C_14
REMARK    8  A    between atoms: C_16  and  C_17
REMARK    9  A    between atoms: C_17  and  N_18
REMARK   10  A    between atoms: C_19  and  O_20
REMARK   11  A    between atoms: C_21  and  O_22
REMARK   12  A    between atoms: C_23  and  N_24
REMARK   13  A    between atoms: C_26  and  C_27
REMARK   14  A    between atoms: C_27  and  O_28
REMARK   15  A    between atoms: C_29  and  O_30
REMARK   16  A    between atoms: C_31  and  O_32
REMARK                            x       y       z     vdW  Elec       q    Type
REMARK                         _______ _______ _______ _____ _____    ______ ____
ROOT
ATOM      1  C   UNL     1      -9.357   3.054 130.761  0.00  0.00    +0.000 C 
ATOM      2  C   UNL     1      -9.906   2.445 132.068  0.00  0.00    +0.000 C 
ATOM      3  C   UNL     1      -9.104   2.779 133.337  0.00  0.00    +0.000 C 
ATOM      4  C   UNL     1      -7.657   2.379 133.098  0.00  0.00    +0.000 C 
ATOM      5  C   UNL     1      -7.055   3.008 131.819  0.00  0.00    +0.000 C 
ATOM      6  C   UNL     1      -7.896   2.562 130.588  0.00  0.00    +0.000 C 
ENDROOT
BRANCH   3   7
ATOM      7  N   UNL     1      -9.209   4.174 133.794  0.00  0.00    +0.000 NA
ATOM      8  H   UNL     1      -9.394   4.200 134.797  0.00  0.00    +0.000 HD
ATOM      9  H   UNL     1     -10.026   4.610 133.369  0.00  0.00    +0.000 HD
ENDBRANCH   3   7
BRANCH   5  10
ATOM     10  N   UNL     1      -6.904   4.472 131.872  0.00  0.00    +0.000 NA
ATOM     11  H   UNL     1      -6.952   4.819 130.908  0.00  0.00    +0.000 HD
ATOM     12  H   UNL     1      -5.936   4.681 132.122  0.00  0.00    +0.000 HD
ENDBRANCH   5  10
BRANCH   2  13
ATOM     13  O   UNL     1     -10.166   1.043 131.944  0.00  0.00    +0.000 OA
ATOM     14  H   UNL     1     -10.992   0.837 132.428  0.00  0.00    +0.000 HD
ENDBRANCH   2  13
BRANCH   6  15
ATOM     15  O   UNL     1      -7.980   1.132 130.464  0.00  0.00    +0.000 OA
BRANCH  15  16
ATOM     16  C   UNL     1      -6.865   0.510 129.835  0.00  0.00    +0.000 C 
ATOM     17  O   UNL     1      -6.942  -0.909 129.954  0.00  0.00    +0.000 OA
ATOM     18  C   UNL     1      -5.794  -1.635 129.489  0.00  0.00    +0.000 C 
ATOM     19  C   UNL     1      -5.703  -1.390 127.976  0.00  0.00    +0.000 C 
ATOM     20  C   UNL     1      -5.719   0.121 127.649  0.00  0.00    +0.000 C 
ATOM     21  C   UNL     1      -6.893   0.873 128.326  0.00  0.00    +0.000 C 
BRANCH  21  22
ATOM     22  N   UNL     1      -8.219   0.595 127.717  0.00  0.00    +0.000 NA
ATOM     23  H   UNL     1      -8.938   0.536 128.432  0.00  0.00    +0.000 HD
ATOM     24  H   UNL     1      -8.208  -0.307 127.236  0.00  0.00    +0.000 HD
ENDBRANCH  21  22
BRANCH  19  25
ATOM     25  O   UNL     1      -6.843  -2.020 127.349  0.00  0.00    +0.000 OA
ATOM     26  H   UNL     1      -7.453  -2.288 128.044  0.00  0.00    +0.000 HD
ENDBRANCH  19  25
BRANCH  20  27
ATOM     27  O   UNL     1      -4.464   0.719 128.008  0.00  0.00    +0.000 OA
ATOM     28  H   UNL     1      -4.216   1.411 127.383  0.00  0.00    +0.000 HD
ENDBRANCH  20  27
BRANCH  18  29
ATOM     29  C   UNL     1      -4.521  -1.332 130.325  0.00  0.00    +0.000 C 
BRANCH  29  30
ATOM     30  N   UNL     1      -3.238  -1.622 129.699  0.00  0.00    +0.000 NA
ATOM     31  H   UNL     1      -2.688  -0.774 129.562  0.00  0.00    +0.000 HD
ATOM     32  H   UNL     1      -3.356  -2.062 128.789  0.00  0.00    +0.000 HD
ENDBRANCH  29  30
ENDBRANCH  18  29
ENDBRANCH  15  16
ENDBRANCH   6  15
BRANCH   1  33
ATOM     33  O   UNL     1      -9.389   4.491 130.761  0.00  0.00    +0.000 OA
BRANCH  33  34
ATOM     34  C   UNL     1     -10.675   5.114 130.838  0.00  0.00    +0.000 C 
ATOM     35  O   UNL     1     -11.398   5.136 129.601  0.00  0.00    +0.000 OA
ATOM     36  C   UNL     1     -11.887   6.471 129.338  0.00  0.00    +0.000 C 
ATOM     37  C   UNL     1     -11.826   7.186 130.685  0.00  0.00    +0.000 C 
ATOM     38  C   UNL     1     -10.654   6.532 131.398  0.00  0.00    +0.000 C 
BRANCH  38  39
ATOM     39  O   UNL     1     -10.771   6.529 132.821  0.00  0.00    +0.000 OA
ATOM     40  H   UNL     1     -10.310   5.731 133.143  0.00  0.00    +0.000 HD
ENDBRANCH  38  39
BRANCH  37  41
ATOM     41  O   UNL     1     -13.026   6.930 131.430  0.00  0.00    +0.000 OA
ATOM     42  H   UNL     1     -12.876   7.205 132.352  0.00  0.00    +0.000 HD
ENDBRANCH  37  41
BRANCH  36  43
ATOM     43  C   UNL     1     -11.122   7.223 128.225  0.00  0.00    +0.000 C 
BRANCH  43  44
ATOM     44  O   UNL     1      -9.988   6.488 127.791  0.00  0.00    +0.000 OA
ATOM     45  H   UNL     1      -9.240   6.763 128.350  0.00  0.00    +0.000 HD
ENDBRANCH  43  44
ENDBRANCH  36  43
ENDBRANCH  33  34
ENDBRANCH   1  33
TORSDOF 16
ENDMDL
MODEL 7
REMARK VINA RESULT:      -6.3      2.221      7.595
REMARK  Name = Ribostamycin
REMARK  16 active torsions:
REMARK  status: ('A' for Active; 'I' for Inactive)
REMARK    1  A    between atoms: C_2  and  O_3
REMARK    2  A    between atoms: O_3  and  C_4
REMARK    3  A    between atoms: C_5  and  O_6
REMARK    4  A    between atoms: C_7  and  N_8
REMARK    5  A    between atoms: C_10  and  N_11
REMARK    6  A    between atoms: C_12  and  O_13
REMARK    7  A    between atoms: O_13  and  C_14
REMARK    8  A    between atoms: C_16  and  C_17
REMARK    9  A    between atoms: C_17  and  N_18
REMARK   10  A    between atoms: C_19  and  O_20
REMARK   11  A    between atoms: C_21  and  O_22
REMARK   12  A    between atoms: C_23  and  N_24
REMARK   13  A    between atoms: C_26  and  C_27
REMARK   14  A    between atoms: C_27  and  O_28
REMARK   15  A    between atoms: C_29  and  O_30
REMARK   16  A    between atoms: C_31  and  O_32
REMARK                            x       y       z     vdW  Elec       q    Type
REMARK                         _______ _______ _______ _____ _____    ______ ____
ROOT
ATOM      1  C   UNL     1      -8.017   3.166 126.502  0.00  0.00    +0.000 C 
ATOM      2  C   UNL     1      -7.990   4.346 125.507  0.00  0.00    +0.000 C 
ATOM      3  C   UNL     1      -6.602   4.707 124.952  0.00  0.00    +0.000 C 
ATOM      4  C   UNL     1      -5.672   4.946 126.130  0.00  0.00    +0.000 C 
ATOM      5  C   UNL     1      -5.635   3.763 127.127  0.00  0.00    +0.000 C 
ATOM      6  C   UNL     1      -7.070   3.518 127.679  0.00  0.00    +0.000 C 
ENDROOT
BRANCH   3   7
ATOM      7  N   UNL     1      -6.034   3.733 124.007  0.00  0.00    +0.000 NA
ATOM      8  H   UNL     1      -5.854   4.182 123.108  0.00  0.00    +0.000 HD
ATOM      9  H   UNL     1      -6.728   3.014 123.802  0.00  0.00    +0.000 HD
ENDBRANCH   3   7
BRANCH   5  10
ATOM     10  N   UNL     1      -5.041   2.529 126.587  0.00  0.00    +0.000 NA
ATOM     11  H   UNL     1      -5.750   2.085 125.993  0.00  0.00    +0.000 HD
ATOM     12  H   UNL     1      -4.958   1.858 127.353  0.00  0.00    +0.000 HD
ENDBRANCH   5  10
BRANCH   2  13
ATOM     13  O   UNL     1      -8.688   5.490 126.009  0.00  0.00    +0.000 OA
ATOM     14  H   UNL     1      -8.041   6.213 126.142  0.00  0.00    +0.000 HD
ENDBRANCH   2  13
BRANCH   6  15
ATOM     15  O   UNL     1      -7.633   4.688 128.294  0.00  0.00    +0.000 OA
BRANCH  15  16
ATOM     16  C   UNL     1      -8.471   4.442 129.418  0.00  0.00    +0.000 C 
ATOM     17  O   UNL     1      -7.804   4.780 130.632  0.00  0.00    +0.000 OA
ATOM     18  C   UNL     1      -8.497   4.431 131.840  0.00  0.00    +0.000 C 
ATOM     19  C   UNL     1      -9.781   5.273 131.869  0.00  0.00    +0.000 C 
ATOM     20  C   UNL     1     -10.589   5.113 130.561  0.00  0.00    +0.000 C 
ATOM     21  C   UNL     1      -9.732   5.338 129.290  0.00  0.00    +0.000 C 
BRANCH  21  22
ATOM     22  N   UNL     1      -9.376   6.759 129.047  0.00  0.00    +0.000 NA
ATOM     23  H   UNL     1      -8.668   7.070 129.707  0.00  0.00    +0.000 HD
ATOM     24  H   UNL     1     -10.191   7.360 129.186  0.00  0.00    +0.000 HD
ENDBRANCH  21  22
BRANCH  19  25
ATOM     25  O   UNL     1      -9.404   6.661 132.023  0.00  0.00    +0.000 OA
ATOM     26  H   UNL     1      -8.533   6.776 131.631  0.00  0.00    +0.000 HD
ENDBRANCH  19  25
BRANCH  20  27
ATOM     27  O   UNL     1     -11.218   3.821 130.523  0.00  0.00    +0.000 OA
ATOM     28  H   UNL     1     -10.579   3.130 130.311  0.00  0.00    +0.000 HD
ENDBRANCH  20  27
BRANCH  18  29
ATOM     29  C   UNL     1      -8.664   2.896 132.006  0.00  0.00    +0.000 C 
BRANCH  29  30
ATOM     30  N   UNL     1      -9.803   2.438 132.790  0.00  0.00    +0.000 NA
ATOM     31  H   UNL     1      -9.676   1.478 133.111  0.00  0.00    +0.000 HD
ATOM     32  H   UNL     1     -10.666   2.470 132.252  0.00  0.00    +0.000 HD
ENDBRANCH  29  30
ENDBRANCH  18  29
ENDBRANCH  15  16
ENDBRANCH   6  15
BRANCH   1  33
ATOM     33  O   UNL     1      -7.606   1.926 125.902  0.00  0.00    +0.000 OA
BRANCH  33  34
ATOM     34  C   UNL     1      -8.577   1.230 125.113  0.00  0.00    +0.000 C 
ATOM     35  O   UNL     1      -9.002  -0.022 125.664  0.00  0.00    +0.000 OA
ATOM     36  C   UNL     1      -8.927  -1.056 124.658  0.00  0.00    +0.000 C 
ATOM     37  C   UNL     1      -8.867  -0.309 123.328  0.00  0.00    +0.000 C 
ATOM     38  C   UNL     1      -8.158   0.992 123.667  0.00  0.00    +0.000 C 
BRANCH  38  39
ATOM     39  O   UNL     1      -8.530   2.089 122.832  0.00  0.00    +0.000 OA
ATOM     40  H   UNL     1      -9.478   2.257 122.989  0.00  0.00    +0.000 HD
ENDBRANCH  38  39
BRANCH  37  41
ATOM     41  O   UNL     1     -10.195  -0.010 122.874  0.00  0.00    +0.000 OA
ATOM     42  H   UNL     1     -10.534   0.738 123.397  0.00  0.00    +0.000 HD
ENDBRANCH  37  41
BRANCH  36  43
ATOM     43  C   UNL     1      -7.752  -2.044 124.844  0.00  0.00    +0.000 C 
BRANCH  43  44
ATOM     44  O   UNL     1      -7.369  -2.629 123.609  0.00  0.00    +0.000 OA
ATOM     45  H   UNL     1      -6.433  -2.403 123.465  0.00  0.00    +0.000 HD
ENDBRANCH  43  44
ENDBRANCH  36  43
ENDBRANCH  33  34
ENDBRANCH   1  33
TORSDOF 16
ENDMDL
MODEL 8
REMARK VINA RESULT:      -6.3      2.873      4.974
REMARK  Name = Ribostamycin
REMARK  16 active torsions:
REMARK  status: ('A' for Active; 'I' for Inactive)
REMARK    1  A    between atoms: C_2  and  O_3
REMARK    2  A    between atoms: O_3  and  C_4
REMARK    3  A    between atoms: C_5  and  O_6
REMARK    4  A    between atoms: C_7  and  N_8
REMARK    5  A    between atoms: C_10  and  N_11
REMARK    6  A    between atoms: C_12  and  O_13
REMARK    7  A    between atoms: O_13  and  C_14
REMARK    8  A    between atoms: C_16  and  C_17
REMARK    9  A    between atoms: C_17  and  N_18
REMARK   10  A    between atoms: C_19  and  O_20
REMARK   11  A    between atoms: C_21  and  O_22
REMARK   12  A    between atoms: C_23  and  N_24
REMARK   13  A    between atoms: C_26  and  C_27
REMARK   14  A    between atoms: C_27  and  O_28
REMARK   15  A    between atoms: C_29  and  O_30
REMARK   16  A    between atoms: C_31  and  O_32
REMARK                            x       y       z     vdW  Elec       q    Type
REMARK                         _______ _______ _______ _____ _____    ______ ____
ROOT
ATOM      1  C   UNL     1      -8.177   5.866 130.108  0.00  0.00    +0.000 C 
ATOM      2  C   UNL     1      -9.480   6.685 129.992  0.00  0.00    +0.000 C 
ATOM      3  C   UNL     1     -10.649   6.190 130.860  0.00  0.00    +0.000 C 
ATOM      4  C   UNL     1     -10.881   4.721 130.544  0.00  0.00    +0.000 C 
ATOM      5  C   UNL     1      -9.606   3.857 130.695  0.00  0.00    +0.000 C 
ATOM      6  C   UNL     1      -8.508   4.397 129.733  0.00  0.00    +0.000 C 
ENDROOT
BRANCH   3   7
ATOM      7  N   UNL     1     -10.490   6.410 132.306  0.00  0.00    +0.000 NA
ATOM      8  H   UNL     1      -9.535   6.703 132.512  0.00  0.00    +0.000 HD
ATOM      9  H   UNL     1     -10.600   5.524 132.799  0.00  0.00    +0.000 HD
ENDBRANCH   3   7
BRANCH   5  10
ATOM     10  N   UNL     1      -9.110   3.739 132.076  0.00  0.00    +0.000 NA
ATOM     11  H   UNL     1      -8.873   4.684 132.397  0.00  0.00    +0.000 HD
ATOM     12  H   UNL     1      -8.192   3.292 132.044  0.00  0.00    +0.000 HD
ENDBRANCH   5  10
BRANCH   2  13
ATOM     13  O   UNL     1      -9.867   6.893 128.629  0.00  0.00    +0.000 OA
ATOM     14  H   UNL     1      -9.339   7.635 128.268  0.00  0.00    +0.000 HD
ENDBRANCH   2  13
BRANCH   6  15
ATOM     15  O   UNL     1      -8.941   4.434 128.363  0.00  0.00    +0.000 OA
BRANCH  15  16
ATOM     16  C   UNL     1      -7.990   3.972 127.412  0.00  0.00    +0.000 C 
ATOM     17  O   UNL     1      -8.512   2.878 126.661  0.00  0.00    +0.000 OA
ATOM     18  C   UNL     1      -7.584   2.233 125.775  0.00  0.00    +0.000 C 
ATOM     19  C   UNL     1      -7.201   3.270 124.709  0.00  0.00    +0.000 C 
ATOM     20  C   UNL     1      -6.709   4.585 125.355  0.00  0.00    +0.000 C 
ATOM     21  C   UNL     1      -7.684   5.134 126.427  0.00  0.00    +0.000 C 
BRANCH  21  22
ATOM     22  N   UNL     1      -8.927   5.723 125.868  0.00  0.00    +0.000 NA
ATOM     23  H   UNL     1      -9.421   6.261 126.575  0.00  0.00    +0.000 HD
ATOM     24  H   UNL     1      -9.565   4.986 125.562  0.00  0.00    +0.000 HD
ENDBRANCH  21  22
BRANCH  19  25
ATOM     25  O   UNL     1      -8.375   3.547 123.911  0.00  0.00    +0.000 OA
ATOM     26  H   UNL     1      -8.466   2.841 123.264  0.00  0.00    +0.000 HD
ENDBRANCH  19  25
BRANCH  20  27
ATOM     27  O   UNL     1      -5.398   4.403 125.912  0.00  0.00    +0.000 OA
ATOM     28  H   UNL     1      -5.447   4.085 126.821  0.00  0.00    +0.000 HD
ENDBRANCH  20  27
BRANCH  18  29
ATOM     29  C   UNL     1      -6.416   1.547 126.534  0.00  0.00    +0.000 C 
BRANCH  29  30
ATOM     30  N   UNL     1      -5.140   1.456 125.837  0.00  0.00    +0.000 NA
ATOM     31  H   UNL     1      -4.483   0.854 126.334  0.00  0.00    +0.000 HD
ATOM     32  H   UNL     1      -4.703   2.369 125.735  0.00  0.00    +0.000 HD
ENDBRANCH  29  30
ENDBRANCH  18  29
ENDBRANCH  15  16
ENDBRANCH   6  15
BRANCH   1  33
ATOM     33  O   UNL     1      -7.607   5.914 131.427  0.00  0.00    +0.000 OA
BRANCH  33  34
ATOM     34  C   UNL     1      -6.359   6.598 131.572  0.00  0.00    +0.000 C 
ATOM     35  O   UNL     1      -5.875   7.214 130.372  0.00  0.00    +0.000 OA
ATOM     36  C   UNL     1      -4.495   6.847 130.150  0.00  0.00    +0.000 C 
ATOM     37  C   UNL     1      -3.998   6.341 131.502  0.00  0.00    +0.000 C 
ATOM     38  C   UNL     1      -5.237   5.743 132.150  0.00  0.00    +0.000 C 
BRANCH  38  39
ATOM     39  O   UNL     1      -5.227   5.795 133.576  0.00  0.00    +0.000 OA
ATOM     40  H   UNL     1      -5.696   6.610 133.835  0.00  0.00    +0.000 HD
ENDBRANCH  38  39
BRANCH  37  41
ATOM     41  O   UNL     1      -3.543   7.444 132.301  0.00  0.00    +0.000 OA
ATOM     42  H   UNL     1      -3.988   7.397 133.165  0.00  0.00    +0.000 HD
ENDBRANCH  37  41
BRANCH  36  43
ATOM     43  C   UNL     1      -4.282   5.824 129.012  0.00  0.00    +0.000 C 
BRANCH  43  44
ATOM     44  O   UNL     1      -4.259   6.460 127.743  0.00  0.00    +0.000 OA
ATOM     45  H   UNL     1      -3.324   6.570 127.497  0.00  0.00    +0.000 HD
ENDBRANCH  43  44
ENDBRANCH  36  43
ENDBRANCH  33  34
ENDBRANCH   1  33
TORSDOF 16
ENDMDL
MODEL 9
REMARK VINA RESULT:      -6.2      3.757      7.626
REMARK  Name = Ribostamycin
REMARK  16 active torsions:
REMARK  status: ('A' for Active; 'I' for Inactive)
REMARK    1  A    between atoms: C_2  and  O_3
REMARK    2  A    between atoms: O_3  and  C_4
REMARK    3  A    between atoms: C_5  and  O_6
REMARK    4  A    between atoms: C_7  and  N_8
REMARK    5  A    between atoms: C_10  and  N_11
REMARK    6  A    between atoms: C_12  and  O_13
REMARK    7  A    between atoms: O_13  and  C_14
REMARK    8  A    between atoms: C_16  and  C_17
REMARK    9  A    between atoms: C_17  and  N_18
REMARK   10  A    between atoms: C_19  and  O_20
REMARK   11  A    between atoms: C_21  and  O_22
REMARK   12  A    between atoms: C_23  and  N_24
REMARK   13  A    between atoms: C_26  and  C_27
REMARK   14  A    between atoms: C_27  and  O_28
REMARK   15  A    between atoms: C_29  and  O_30
REMARK   16  A    between atoms: C_31  and  O_32
REMARK                            x       y       z     vdW  Elec       q    Type
REMARK                         _______ _______ _______ _____ _____    ______ ____
ROOT
ATOM      1  C   UNL     1      -7.709  -0.734 126.507  0.00  0.00    +0.000 C 
ATOM      2  C   UNL     1      -8.991  -1.269 125.833  0.00  0.00    +0.000 C 
ATOM      3  C   UNL     1      -8.762  -2.218 124.645  0.00  0.00    +0.000 C 
ATOM      4  C   UNL     1      -7.856  -1.515 123.648  0.00  0.00    +0.000 C 
ATOM      5  C   UNL     1      -6.538  -1.005 124.276  0.00  0.00    +0.000 C 
ATOM      6  C   UNL     1      -6.873  -0.006 125.422  0.00  0.00    +0.000 C 
ENDROOT
BRANCH   3   7
ATOM      7  N   UNL     1      -8.242  -3.548 125.000  0.00  0.00    +0.000 NA
ATOM      8  H   UNL     1      -7.244  -3.490 125.203  0.00  0.00    +0.000 HD
ATOM      9  H   UNL     1      -8.306  -4.165 124.190  0.00  0.00    +0.000 HD
ENDBRANCH   3   7
BRANCH   5  10
ATOM     10  N   UNL     1      -5.628  -2.069 124.732  0.00  0.00    +0.000 NA
ATOM     11  H   UNL     1      -4.685  -1.666 124.776  0.00  0.00    +0.000 HD
ATOM     12  H   UNL     1      -5.531  -2.748 123.975  0.00  0.00    +0.000 HD
ENDBRANCH   5  10
BRANCH   2  13
ATOM     13  O   UNL     1      -9.913  -0.220 125.519  0.00  0.00    +0.000 OA
ATOM     14  H   UNL     1     -10.641  -0.243 126.174  0.00  0.00    +0.000 HD
ENDBRANCH   2  13
BRANCH   6  15
ATOM     15  O   UNL     1      -7.686   1.093 124.977  0.00  0.00    +0.000 OA
BRANCH  15  16
ATOM     16  C   UNL     1      -7.389   2.350 125.573  0.00  0.00    +0.000 C 
ATOM     17  O   UNL     1      -6.037   2.727 125.319  0.00  0.00    +0.000 OA
ATOM     18  C   UNL     1      -5.581   3.906 125.999  0.00  0.00    +0.000 C 
ATOM     19  C   UNL     1      -6.407   5.077 125.449  0.00  0.00    +0.000 C 
ATOM     20  C   UNL     1      -7.923   4.791 125.544  0.00  0.00    +0.000 C 
ATOM     21  C   UNL     1      -8.319   3.420 124.939  0.00  0.00    +0.000 C 
BRANCH  21  22
ATOM     22  N   UNL     1      -8.273   3.380 123.455  0.00  0.00    +0.000 NA
ATOM     23  H   UNL     1      -7.344   3.126 123.131  0.00  0.00    +0.000 HD
ATOM     24  H   UNL     1      -8.477   4.303 123.067  0.00  0.00    +0.000 HD
ENDBRANCH  21  22
BRANCH  19  25
ATOM     25  O   UNL     1      -6.049   5.265 124.060  0.00  0.00    +0.000 OA
ATOM     26  H   UNL     1      -6.358   4.498 123.568  0.00  0.00    +0.000 HD
ENDBRANCH  19  25
BRANCH  20  27
ATOM     27  O   UNL     1      -8.360   4.885 126.909  0.00  0.00    +0.000 OA
ATOM     28  H   UNL     1      -9.026   5.574 127.015  0.00  0.00    +0.000 HD
ENDBRANCH  20  27
BRANCH  18  29
ATOM     29  C   UNL     1      -5.559   3.730 127.542  0.00  0.00    +0.000 C 
BRANCH  29  30
ATOM     30  N   UNL     1      -5.648   4.942 128.344  0.00  0.00    +0.000 NA
ATOM     31  H   UNL     1      -6.522   4.981 128.869  0.00  0.00    +0.000 HD
ATOM     32  H   UNL     1      -5.599   5.778 127.767  0.00  0.00    +0.000 HD
ENDBRANCH  29  30
ENDBRANCH  18  29
ENDBRANCH  15  16
ENDBRANCH   6  15
BRANCH   1  33
ATOM     33  O   UNL     1      -6.923  -1.776 127.109  0.00  0.00    +0.000 OA
BRANCH  33  34
ATOM     34  C   UNL     1      -7.057  -1.960 128.521  0.00  0.00    +0.000 C 
ATOM     35  O   UNL     1      -5.913  -1.555 129.284  0.00  0.00    +0.000 OA
ATOM     36  C   UNL     1      -5.534  -2.604 130.202  0.00  0.00    +0.000 C 
ATOM     37  C   UNL     1      -6.762  -3.505 130.302  0.00  0.00    +0.000 C 
ATOM     38  C   UNL     1      -7.423  -3.380 128.938  0.00  0.00    +0.000 C 
BRANCH  38  39
ATOM     39  O   UNL     1      -8.839  -3.565 128.962  0.00  0.00    +0.000 OA
ATOM     40  H   UNL     1      -9.080  -4.020 128.133  0.00  0.00    +0.000 HD
ENDBRANCH  38  39
BRANCH  37  41
ATOM     41  O   UNL     1      -7.660  -3.000 131.302  0.00  0.00    +0.000 OA
ATOM     42  H   UNL     1      -8.373  -3.651 131.426  0.00  0.00    +0.000 HD
ENDBRANCH  37  41
BRANCH  36  43
ATOM     43  C   UNL     1      -4.256  -3.375 129.798  0.00  0.00    +0.000 C 
BRANCH  43  44
ATOM     44  O   UNL     1      -3.295  -2.510 129.213  0.00  0.00    +0.000 OA
ATOM     45  H   UNL     1      -3.312  -1.681 129.722  0.00  0.00    +0.000 HD
ENDBRANCH  43  44
ENDBRANCH  36  43
ENDBRANCH  33  34
ENDBRANCH   1  33
TORSDOF 16
ENDMDL
