MODEL 1
REMARK VINA RESULT:      -7.3      0.000      0.000
REMARK  Name = Riboflavin
REMARK  11 active torsions:
REMARK  status: ('A' for Active; 'I' for Inactive)
REMARK    1  A    between atoms: C_1  and  C_2
REMARK    2  A    between atoms: C_3  and  C_4
REMARK    3  A    between atoms: N_7  and  C_8
REMARK    4  A    between atoms: C_8  and  C_9
REMARK    5  A    between atoms: C_9  and  O_10
REMARK    6  A    between atoms: C_9  and  C_11
REMARK    7  A    between atoms: C_11  and  O_12
REMARK    8  A    between atoms: C_11  and  C_13
REMARK    9  A    between atoms: C_13  and  O_14
REMARK   10  A    between atoms: C_13  and  C_15
REMARK   11  A    between atoms: C_15  and  O_16
REMARK                            x       y       z     vdW  Elec       q    Type
REMARK                         _______ _______ _______ _____ _____    ______ ____
ROOT
ATOM      1  C   UNL     1      -7.399   4.550 118.437  0.00  0.00    +0.000 C 
ATOM      2  C   UNL     1      -7.231   4.201 119.873  0.00  0.00    +0.000 A 
ATOM      3  C   UNL     1      -6.090   4.571 120.527  0.00  0.00    +0.000 A 
ATOM      4  C   UNL     1      -4.875   5.295 119.997  0.00  0.00    +0.000 C 
ATOM      5  C   UNL     1      -6.010   4.187 121.852  0.00  0.00    +0.000 A 
ATOM      6  C   UNL     1      -6.924   3.475 122.640  0.00  0.00    +0.000 A 
ATOM      7  N   UNL     1      -6.734   3.092 123.985  0.00  0.00    +0.000 N 
ATOM      8  C   UNL     1      -7.757   2.379 124.618  0.00  0.00    +0.000 A 
ATOM      9  N   UNL     1      -7.684   2.003 125.859  0.00  0.00    +0.000 NA
ATOM     10  C   UNL     1      -8.683   1.321 126.499  0.00  0.00    +0.000 A 
ATOM     11  O   UNL     1      -8.596   0.985 127.667  0.00  0.00    +0.000 OA
ATOM     12  N   UNL     1      -9.824   1.006 125.813  0.00  0.00    +0.000 N 
ATOM     13  C   UNL     1     -10.095   1.301 124.513  0.00  0.00    +0.000 A 
ATOM     14  O   UNL     1     -11.140   0.995 123.955  0.00  0.00    +0.000 OA
ATOM     15  C   UNL     1      -8.995   2.052 123.815  0.00  0.00    +0.000 A 
ATOM     16  N   UNL     1      -9.134   2.404 122.569  0.00  0.00    +0.000 NA
ATOM     17  C   UNL     1      -8.089   3.121 121.954  0.00  0.00    +0.000 A 
ATOM     18  C   UNL     1      -8.225   3.485 120.590  0.00  0.00    +0.000 A 
ATOM     19  H   UNL     1     -10.527   0.507 126.338  0.00  0.00    +0.000 HD
ENDROOT
BRANCH   7  20
ATOM     20  C   UNL     1      -5.540   3.387 124.829  0.00  0.00    +0.000 C 
BRANCH  20  21
ATOM     21  C   UNL     1      -5.374   4.818 125.308  0.00  0.00    +0.000 C 
BRANCH  21  22
ATOM     22  O   UNL     1      -6.499   5.675 125.094  0.00  0.00    +0.000 OA
ATOM     23  H   UNL     1      -7.290   5.122 124.999  0.00  0.00    +0.000 HD
ENDBRANCH  21  22
BRANCH  21  24
ATOM     24  C   UNL     1      -4.881   4.811 126.819  0.00  0.00    +0.000 C 
BRANCH  24  25
ATOM     25  O   UNL     1      -4.395   6.039 127.394  0.00  0.00    +0.000 OA
ATOM     26  H   UNL     1      -4.830   6.202 128.256  0.00  0.00    +0.000 HD
ENDBRANCH  24  25
BRANCH  24  27
ATOM     27  C   UNL     1      -5.917   4.158 127.754  0.00  0.00    +0.000 C 
BRANCH  27  28
ATOM     28  O   UNL     1      -7.247   4.614 127.483  0.00  0.00    +0.000 OA
ATOM     29  H   UNL     1      -7.699   4.740 128.338  0.00  0.00    +0.000 HD
ENDBRANCH  27  28
BRANCH  27  30
ATOM     30  C   UNL     1      -5.532   4.486 129.194  0.00  0.00    +0.000 C 
BRANCH  30  31
ATOM     31  O   UNL     1      -6.167   5.678 129.644  0.00  0.00    +0.000 OA
ATOM     32  H   UNL     1      -5.597   6.421 129.359  0.00  0.00    +0.000 HD
ENDBRANCH  30  31
ENDBRANCH  27  30
ENDBRANCH  24  27
ENDBRANCH  21  24
ENDBRANCH  20  21
ENDBRANCH   7  20
TORSDOF 9
ENDMDL
MODEL 2
REMARK VINA RESULT:      -7.2      2.904      5.918
REMARK  Name = Riboflavin
REMARK  11 active torsions:
REMARK  status: ('A' for Active; 'I' for Inactive)
REMARK    1  A    between atoms: C_1  and  C_2
REMARK    2  A    between atoms: C_3  and  C_4
REMARK    3  A    between atoms: N_7  and  C_8
REMARK    4  A    between atoms: C_8  and  C_9
REMARK    5  A    between atoms: C_9  and  O_10
REMARK    6  A    between atoms: C_9  and  C_11
REMARK    7  A    between atoms: C_11  and  O_12
REMARK    8  A    between atoms: C_11  and  C_13
REMARK    9  A    between atoms: C_13  and  O_14
REMARK   10  A    between atoms: C_13  and  C_15
REMARK   11  A    between atoms: C_15  and  O_16
REMARK                            x       y       z     vdW  Elec       q    Type
REMARK                         _______ _______ _______ _____ _____    ______ ____
ROOT
ATOM      1  C   UNL     1      -8.947  -4.217 128.166  0.00  0.00    +0.000 C 
ATOM      2  C   UNL     1      -8.435  -3.024 127.442  0.00  0.00    +0.000 A 
ATOM      3  C   UNL     1      -7.248  -2.463 127.821  0.00  0.00    +0.000 A 
ATOM      4  C   UNL     1      -6.321  -2.855 128.948  0.00  0.00    +0.000 C 
ATOM      5  C   UNL     1      -6.860  -1.347 127.106  0.00  0.00    +0.000 A 
ATOM      6  C   UNL     1      -7.495  -0.694 126.041  0.00  0.00    +0.000 A 
ATOM      7  N   UNL     1      -7.036   0.475 125.395  0.00  0.00    +0.000 N 
ATOM      8  C   UNL     1      -7.802   0.992 124.347  0.00  0.00    +0.000 A 
ATOM      9  N   UNL     1      -7.451   2.049 123.678  0.00  0.00    +0.000 NA
ATOM     10  C   UNL     1      -8.179   2.558 122.638  0.00  0.00    +0.000 A 
ATOM     11  O   UNL     1      -7.826   3.547 122.019  0.00  0.00    +0.000 OA
ATOM     12  N   UNL     1      -9.342   1.939 122.269  0.00  0.00    +0.000 N 
ATOM     13  C   UNL     1      -9.885   0.830 122.839  0.00  0.00    +0.000 A 
ATOM     14  O   UNL     1     -10.930   0.319 122.460  0.00  0.00    +0.000 OA
ATOM     15  C   UNL     1      -9.080   0.274 123.981  0.00  0.00    +0.000 A 
ATOM     16  N   UNL     1      -9.487  -0.793 124.607  0.00  0.00    +0.000 NA
ATOM     17  C   UNL     1      -8.697  -1.294 125.661  0.00  0.00    +0.000 A 
ATOM     18  C   UNL     1      -9.148  -2.442 126.361  0.00  0.00    +0.000 A 
ATOM     19  H   UNL     1      -9.833   2.357 121.492  0.00  0.00    +0.000 HD
ENDROOT
BRANCH   7  20
ATOM     20  C   UNL     1      -5.784   1.224 125.707  0.00  0.00    +0.000 C 
BRANCH  20  21
ATOM     21  C   UNL     1      -5.789   2.078 126.963  0.00  0.00    +0.000 C 
BRANCH  21  22
ATOM     22  O   UNL     1      -4.656   1.920 127.821  0.00  0.00    +0.000 OA
ATOM     23  H   UNL     1      -4.877   2.292 128.689  0.00  0.00    +0.000 HD
ENDBRANCH  21  22
BRANCH  21  24
ATOM     24  C   UNL     1      -6.057   3.593 126.564  0.00  0.00    +0.000 C 
BRANCH  24  25
ATOM     25  O   UNL     1      -5.863   3.993 125.194  0.00  0.00    +0.000 OA
ATOM     26  H   UNL     1      -5.936   4.967 125.115  0.00  0.00    +0.000 HD
ENDBRANCH  24  25
BRANCH  24  27
ATOM     27  C   UNL     1      -7.425   4.084 127.074  0.00  0.00    +0.000 C 
BRANCH  27  28
ATOM     28  O   UNL     1      -8.272   2.998 127.467  0.00  0.00    +0.000 OA
ATOM     29  H   UNL     1      -9.072   3.377 127.875  0.00  0.00    +0.000 HD
ENDBRANCH  27  28
BRANCH  27  30
ATOM     30  C   UNL     1      -8.088   4.890 125.959  0.00  0.00    +0.000 C 
BRANCH  30  31
ATOM     31  O   UNL     1      -9.076   4.122 125.280  0.00  0.00    +0.000 OA
ATOM     32  H   UNL     1      -9.930   4.578 125.427  0.00  0.00    +0.000 HD
ENDBRANCH  30  31
ENDBRANCH  27  30
ENDBRANCH  24  27
ENDBRANCH  21  24
ENDBRANCH  20  21
ENDBRANCH   7  20
TORSDOF 9
ENDMDL
MODEL 3
REMARK VINA RESULT:      -7.1      7.590      9.358
REMARK  Name = Riboflavin
REMARK  11 active torsions:
REMARK  status: ('A' for Active; 'I' for Inactive)
REMARK    1  A    between atoms: C_1  and  C_2
REMARK    2  A    between atoms: C_3  and  C_4
REMARK    3  A    between atoms: N_7  and  C_8
REMARK    4  A    between atoms: C_8  and  C_9
REMARK    5  A    between atoms: C_9  and  O_10
REMARK    6  A    between atoms: C_9  and  C_11
REMARK    7  A    between atoms: C_11  and  O_12
REMARK    8  A    between atoms: C_11  and  C_13
REMARK    9  A    between atoms: C_13  and  O_14
REMARK   10  A    between atoms: C_13  and  C_15
REMARK   11  A    between atoms: C_15  and  O_16
REMARK                            x       y       z     vdW  Elec       q    Type
REMARK                         _______ _______ _______ _____ _____    ______ ____
ROOT
ATOM      1  C   UNL     1      -2.467   6.648 130.866  0.00  0.00    +0.000 C 
ATOM      2  C   UNL     1      -3.840   6.483 131.412  0.00  0.00    +0.000 A 
ATOM      3  C   UNL     1      -4.009   5.957 132.662  0.00  0.00    +0.000 A 
ATOM      4  C   UNL     1      -2.971   5.452 133.637  0.00  0.00    +0.000 C 
ATOM      5  C   UNL     1      -5.319   5.821 133.080  0.00  0.00    +0.000 A 
ATOM      6  C   UNL     1      -6.513   6.143 132.420  0.00  0.00    +0.000 A 
ATOM      7  N   UNL     1      -7.817   5.928 132.918  0.00  0.00    +0.000 N 
ATOM      8  C   UNL     1      -8.898   6.310 132.118  0.00  0.00    +0.000 A 
ATOM      9  N   UNL     1     -10.132   6.174 132.498  0.00  0.00    +0.000 NA
ATOM     10  C   UNL     1     -11.202   6.559 131.737  0.00  0.00    +0.000 A 
ATOM     11  O   UNL     1     -12.352   6.429 132.117  0.00  0.00    +0.000 OA
ATOM     12  N   UNL     1     -10.981   7.117 130.507  0.00  0.00    +0.000 N 
ATOM     13  C   UNL     1      -9.773   7.341 129.925  0.00  0.00    +0.000 A 
ATOM     14  O   UNL     1      -9.639   7.849 128.820  0.00  0.00    +0.000 OA
ATOM     15  C   UNL     1      -8.601   6.917 130.766  0.00  0.00    +0.000 A 
ATOM     16  N   UNL     1      -7.387   7.087 130.327  0.00  0.00    +0.000 NA
ATOM     17  C   UNL     1      -6.314   6.693 131.152  0.00  0.00    +0.000 A 
ATOM     18  C   UNL     1      -4.990   6.853 130.668  0.00  0.00    +0.000 A 
ATOM     19  H   UNL     1     -11.807   7.386 129.993  0.00  0.00    +0.000 HD
ENDROOT
BRANCH   7  20
ATOM     20  C   UNL     1      -8.173   5.339 134.241  0.00  0.00    +0.000 C 
BRANCH  20  21
ATOM     21  C   UNL     1      -8.711   3.920 134.240  0.00  0.00    +0.000 C 
BRANCH  21  22
ATOM     22  O   UNL     1     -10.130   3.797 134.105  0.00  0.00    +0.000 OA
ATOM     23  H   UNL     1     -10.326   2.928 133.722  0.00  0.00    +0.000 HD
ENDBRANCH  21  22
BRANCH  21  24
ATOM     24  C   UNL     1      -7.912   3.058 133.169  0.00  0.00    +0.000 C 
BRANCH  24  25
ATOM     25  O   UNL     1      -6.651   2.477 133.552  0.00  0.00    +0.000 OA
ATOM     26  H   UNL     1      -6.600   2.396 134.527  0.00  0.00    +0.000 HD
ENDBRANCH  24  25
BRANCH  24  27
ATOM     27  C   UNL     1      -8.810   1.996 132.507  0.00  0.00    +0.000 C 
BRANCH  27  28
ATOM     28  O   UNL     1      -8.135   0.742 132.355  0.00  0.00    +0.000 OA
ATOM     29  H   UNL     1      -8.495   0.304 131.562  0.00  0.00    +0.000 HD
ENDBRANCH  27  28
BRANCH  27  30
ATOM     30  C   UNL     1      -9.249   2.525 131.144  0.00  0.00    +0.000 C 
BRANCH  30  31
ATOM     31  O   UNL     1     -10.472   3.247 131.237  0.00  0.00    +0.000 OA
ATOM     32  H   UNL     1     -10.237   4.197 131.214  0.00  0.00    +0.000 HD
ENDBRANCH  30  31
ENDBRANCH  27  30
ENDBRANCH  24  27
ENDBRANCH  21  24
ENDBRANCH  20  21
ENDBRANCH   7  20
TORSDOF 9
ENDMDL
MODEL 4
REMARK VINA RESULT:      -6.9      2.978      6.128
REMARK  Name = Riboflavin
REMARK  11 active torsions:
REMARK  status: ('A' for Active; 'I' for Inactive)
REMARK    1  A    between atoms: C_1  and  C_2
REMARK    2  A    between atoms: C_3  and  C_4
REMARK    3  A    between atoms: N_7  and  C_8
REMARK    4  A    between atoms: C_8  and  C_9
REMARK    5  A    between atoms: C_9  and  O_10
REMARK    6  A    between atoms: C_9  and  C_11
REMARK    7  A    between atoms: C_11  and  O_12
REMARK    8  A    between atoms: C_11  and  C_13
REMARK    9  A    between atoms: C_13  and  O_14
REMARK   10  A    between atoms: C_13  and  C_15
REMARK   11  A    between atoms: C_15  and  O_16
REMARK                            x       y       z     vdW  Elec       q    Type
REMARK                         _______ _______ _______ _____ _____    ______ ____
ROOT
ATOM      1  C   UNL     1      -9.011  -4.656 128.207  0.00  0.00    +0.000 C 
ATOM      2  C   UNL     1      -8.651  -3.305 127.699  0.00  0.00    +0.000 A 
ATOM      3  C   UNL     1      -7.811  -2.513 128.428  0.00  0.00    +0.000 A 
ATOM      4  C   UNL     1      -7.166  -2.779 129.768  0.00  0.00    +0.000 C 
ATOM      5  C   UNL     1      -7.548  -1.267 127.890  0.00  0.00    +0.000 A 
ATOM      6  C   UNL     1      -8.009  -0.684 126.702  0.00  0.00    +0.000 A 
ATOM      7  N   UNL     1      -7.714   0.621 126.252  0.00  0.00    +0.000 N 
ATOM      8  C   UNL     1      -8.265   1.040 125.038  0.00  0.00    +0.000 A 
ATOM      9  N   UNL     1      -8.034   2.213 124.531  0.00  0.00    +0.000 NA
ATOM     10  C   UNL     1      -8.550   2.633 123.335  0.00  0.00    +0.000 A 
ATOM     11  O   UNL     1      -8.312   3.736 122.876  0.00  0.00    +0.000 OA
ATOM     12  N   UNL     1      -9.356   1.788 122.622  0.00  0.00    +0.000 N 
ATOM     13  C   UNL     1      -9.724   0.528 122.976  0.00  0.00    +0.000 A 
ATOM     14  O   UNL     1     -10.447  -0.182 122.291  0.00  0.00    +0.000 OA
ATOM     15  C   UNL     1      -9.153   0.071 124.290  0.00  0.00    +0.000 A 
ATOM     16  N   UNL     1      -9.421  -1.121 124.739  0.00  0.00    +0.000 NA
ATOM     17  C   UNL     1      -8.853  -1.519 125.966  0.00  0.00    +0.000 A 
ATOM     18  C   UNL     1      -9.162  -2.808 126.471  0.00  0.00    +0.000 A 
ATOM     19  H   UNL     1      -9.703   2.150 121.746  0.00  0.00    +0.000 HD
ENDROOT
BRANCH   7  20
ATOM     20  C   UNL     1      -6.844   1.619 126.941  0.00  0.00    +0.000 C 
BRANCH  20  21
ATOM     21  C   UNL     1      -5.350   1.518 126.689  0.00  0.00    +0.000 C 
BRANCH  21  22
ATOM     22  O   UNL     1      -4.906   0.297 126.091  0.00  0.00    +0.000 OA
ATOM     23  H   UNL     1      -5.378  -0.438 126.512  0.00  0.00    +0.000 HD
ENDBRANCH  21  22
BRANCH  21  24
ATOM     24  C   UNL     1      -4.865   2.807 125.896  0.00  0.00    +0.000 C 
BRANCH  24  25
ATOM     25  O   UNL     1      -5.843   3.794 125.516  0.00  0.00    +0.000 OA
ATOM     26  H   UNL     1      -6.677   3.355 125.249  0.00  0.00    +0.000 HD
ENDBRANCH  24  25
BRANCH  24  27
ATOM     27  C   UNL     1      -3.666   3.483 126.587  0.00  0.00    +0.000 C 
BRANCH  27  28
ATOM     28  O   UNL     1      -2.743   2.526 127.120  0.00  0.00    +0.000 OA
ATOM     29  H   UNL     1      -3.259   1.844 127.589  0.00  0.00    +0.000 HD
ENDBRANCH  27  28
BRANCH  27  30
ATOM     30  C   UNL     1      -4.201   4.376 127.705  0.00  0.00    +0.000 C 
BRANCH  30  31
ATOM     31  O   UNL     1      -4.510   5.680 127.225  0.00  0.00    +0.000 OA
ATOM     32  H   UNL     1      -5.266   6.000 127.758  0.00  0.00    +0.000 HD
ENDBRANCH  30  31
ENDBRANCH  27  30
ENDBRANCH  24  27
ENDBRANCH  21  24
ENDBRANCH  20  21
ENDBRANCH   7  20
TORSDOF 9
ENDMDL
MODEL 5
REMARK VINA RESULT:      -6.9      3.371      5.472
REMARK  Name = Riboflavin
REMARK  11 active torsions:
REMARK  status: ('A' for Active; 'I' for Inactive)
REMARK    1  A    between atoms: C_1  and  C_2
REMARK    2  A    between atoms: C_3  and  C_4
REMARK    3  A    between atoms: N_7  and  C_8
REMARK    4  A    between atoms: C_8  and  C_9
REMARK    5  A    between atoms: C_9  and  O_10
REMARK    6  A    between atoms: C_9  and  C_11
REMARK    7  A    between atoms: C_11  and  O_12
REMARK    8  A    between atoms: C_11  and  C_13
REMARK    9  A    between atoms: C_13  and  O_14
REMARK   10  A    between atoms: C_13  and  C_15
REMARK   11  A    between atoms: C_15  and  O_16
REMARK                            x       y       z     vdW  Elec       q    Type
REMARK                         _______ _______ _______ _____ _____    ______ ____
ROOT
ATOM      1  C   UNL     1      -4.757  -4.046 124.066  0.00  0.00    +0.000 C 
ATOM      2  C   UNL     1      -5.562  -2.865 124.476  0.00  0.00    +0.000 A 
ATOM      3  C   UNL     1      -6.118  -2.064 123.519  0.00  0.00    +0.000 A 
ATOM      4  C   UNL     1      -6.024  -2.162 122.015  0.00  0.00    +0.000 C 
ATOM      5  C   UNL     1      -6.831  -0.978 123.991  0.00  0.00    +0.000 A 
ATOM      6  C   UNL     1      -7.079  -0.567 125.308  0.00  0.00    +0.000 A 
ATOM      7  N   UNL     1      -7.791   0.590 125.693  0.00  0.00    +0.000 N 
ATOM      8  C   UNL     1      -7.940   0.848 127.058  0.00  0.00    +0.000 A 
ATOM      9  N   UNL     1      -8.597   1.873 127.510  0.00  0.00    +0.000 NA
ATOM     10  C   UNL     1      -8.768   2.131 128.843  0.00  0.00    +0.000 A 
ATOM     11  O   UNL     1      -9.396   3.095 129.243  0.00  0.00    +0.000 OA
ATOM     12  N   UNL     1      -8.224   1.278 129.764  0.00  0.00    +0.000 N 
ATOM     13  C   UNL     1      -7.500   0.157 129.502  0.00  0.00    +0.000 A 
ATOM     14  O   UNL     1      -7.041  -0.570 130.372  0.00  0.00    +0.000 OA
ATOM     15  C   UNL     1      -7.316  -0.122 128.036  0.00  0.00    +0.000 A 
ATOM     16  N   UNL     1      -6.649  -1.172 127.650  0.00  0.00    +0.000 NA
ATOM     17  C   UNL     1      -6.513  -1.409 126.267  0.00  0.00    +0.000 A 
ATOM     18  C   UNL     1      -5.767  -2.538 125.842  0.00  0.00    +0.000 A 
ATOM     19  H   UNL     1      -8.387   1.516 130.731  0.00  0.00    +0.000 HD
ENDROOT
BRANCH   7  20
ATOM     20  C   UNL     1      -8.431   1.580 124.778  0.00  0.00    +0.000 C 
BRANCH  20  21
ATOM     21  C   UNL     1      -7.514   2.583 124.101  0.00  0.00    +0.000 C 
BRANCH  21  22
ATOM     22  O   UNL     1      -7.386   2.442 122.683  0.00  0.00    +0.000 OA
ATOM     23  H   UNL     1      -8.012   1.765 122.386  0.00  0.00    +0.000 HD
ENDBRANCH  21  22
BRANCH  21  24
ATOM     24  C   UNL     1      -7.930   4.053 124.541  0.00  0.00    +0.000 C 
BRANCH  24  25
ATOM     25  O   UNL     1      -8.988   4.213 125.506  0.00  0.00    +0.000 OA
ATOM     26  H   UNL     1      -8.989   3.458 126.130  0.00  0.00    +0.000 HD
ENDBRANCH  24  25
BRANCH  24  27
ATOM     27  C   UNL     1      -6.705   4.894 124.948  0.00  0.00    +0.000 C 
BRANCH  27  28
ATOM     28  O   UNL     1      -5.737   4.976 123.896  0.00  0.00    +0.000 OA
ATOM     29  H   UNL     1      -5.969   4.307 123.225  0.00  0.00    +0.000 HD
ENDBRANCH  27  28
BRANCH  27  30
ATOM     30  C   UNL     1      -6.081   4.257 126.188  0.00  0.00    +0.000 C 
BRANCH  30  31
ATOM     31  O   UNL     1      -6.815   4.582 127.363  0.00  0.00    +0.000 OA
ATOM     32  H   UNL     1      -7.716   4.219 127.237  0.00  0.00    +0.000 HD
ENDBRANCH  30  31
ENDBRANCH  27  30
ENDBRANCH  24  27
ENDBRANCH  21  24
ENDBRANCH  20  21
ENDBRANCH   7  20
TORSDOF 9
ENDMDL
MODEL 6
REMARK VINA RESULT:      -6.8      3.952      7.179
REMARK  Name = Riboflavin
REMARK  11 active torsions:
REMARK  status: ('A' for Active; 'I' for Inactive)
REMARK    1  A    between atoms: C_1  and  C_2
REMARK    2  A    between atoms: C_3  and  C_4
REMARK    3  A    between atoms: N_7  and  C_8
REMARK    4  A    between atoms: C_8  and  C_9
REMARK    5  A    between atoms: C_9  and  O_10
REMARK    6  A    between atoms: C_9  and  C_11
REMARK    7  A    between atoms: C_11  and  O_12
REMARK    8  A    between atoms: C_11  and  C_13
REMARK    9  A    between atoms: C_13  and  O_14
REMARK   10  A    between atoms: C_13  and  C_15
REMARK   11  A    between atoms: C_15  and  O_16
REMARK                            x       y       z     vdW  Elec       q    Type
REMARK                         _______ _______ _______ _____ _____    ______ ____
ROOT
ATOM      1  C   UNL     1      -7.519  -3.447 129.546  0.00  0.00    +0.000 C 
ATOM      2  C   UNL     1      -7.641  -1.979 129.343  0.00  0.00    +0.000 A 
ATOM      3  C   UNL     1      -7.770  -1.157 130.427  0.00  0.00    +0.000 A 
ATOM      4  C   UNL     1      -7.846  -1.512 131.894  0.00  0.00    +0.000 C 
ATOM      5  C   UNL     1      -7.898   0.189 130.144  0.00  0.00    +0.000 A 
ATOM      6  C   UNL     1      -7.914   0.852 128.909  0.00  0.00    +0.000 A 
ATOM      7  N   UNL     1      -8.092   2.239 128.717  0.00  0.00    +0.000 N 
ATOM      8  C   UNL     1      -8.083   2.730 127.408  0.00  0.00    +0.000 A 
ATOM      9  N   UNL     1      -8.217   3.992 127.132  0.00  0.00    +0.000 NA
ATOM     10  C   UNL     1      -8.192   4.492 125.859  0.00  0.00    +0.000 A 
ATOM     11  O   UNL     1      -8.310   5.681 125.625  0.00  0.00    +0.000 OA
ATOM     12  N   UNL     1      -8.022   3.633 124.807  0.00  0.00    +0.000 N 
ATOM     13  C   UNL     1      -7.870   2.284 124.879  0.00  0.00    +0.000 A 
ATOM     14  O   UNL     1      -7.717   1.568 123.899  0.00  0.00    +0.000 OA
ATOM     15  C   UNL     1      -7.897   1.740 126.281  0.00  0.00    +0.000 A 
ATOM     16  N   UNL     1      -7.753   0.463 126.488  0.00  0.00    +0.000 NA
ATOM     17  C   UNL     1      -7.766  -0.006 127.817  0.00  0.00    +0.000 A 
ATOM     18  C   UNL     1      -7.633  -1.400 128.047  0.00  0.00    +0.000 A 
ATOM     19  H   UNL     1      -8.007   4.059 123.892  0.00  0.00    +0.000 HD
ENDROOT
BRANCH   7  20
ATOM     20  C   UNL     1      -8.276   3.264 129.786  0.00  0.00    +0.000 C 
BRANCH  20  21
ATOM     21  C   UNL     1      -9.695   3.505 130.270  0.00  0.00    +0.000 C 
BRANCH  21  22
ATOM     22  O   UNL     1      -9.993   3.013 131.579  0.00  0.00    +0.000 OA
ATOM     23  H   UNL     1     -10.384   3.735 132.094  0.00  0.00    +0.000 HD
ENDBRANCH  21  22
BRANCH  21  24
ATOM     24  C   UNL     1     -10.055   5.043 130.091  0.00  0.00    +0.000 C 
BRANCH  24  25
ATOM     25  O   UNL     1      -9.671   5.706 128.870  0.00  0.00    +0.000 OA
ATOM     26  H   UNL     1      -9.369   6.617 129.064  0.00  0.00    +0.000 HD
ENDBRANCH  24  25
BRANCH  24  27
ATOM     27  C   UNL     1     -11.536   5.323 130.407  0.00  0.00    +0.000 C 
BRANCH  27  28
ATOM     28  O   UNL     1     -12.234   5.861 129.277  0.00  0.00    +0.000 OA
ATOM     29  H   UNL     1     -12.645   5.118 128.799  0.00  0.00    +0.000 HD
ENDBRANCH  27  28
BRANCH  27  30
ATOM     30  C   UNL     1     -11.597   6.301 131.577  0.00  0.00    +0.000 C 
BRANCH  30  31
ATOM     31  O   UNL     1     -10.835   5.834 132.685  0.00  0.00    +0.000 OA
ATOM     32  H   UNL     1     -10.264   6.579 132.963  0.00  0.00    +0.000 HD
ENDBRANCH  30  31
ENDBRANCH  27  30
ENDBRANCH  24  27
ENDBRANCH  21  24
ENDBRANCH  20  21
ENDBRANCH   7  20
TORSDOF 9
ENDMDL
MODEL 7
REMARK VINA RESULT:      -6.8      2.643      5.539
REMARK  Name = Riboflavin
REMARK  11 active torsions:
REMARK  status: ('A' for Active; 'I' for Inactive)
REMARK    1  A    between atoms: C_1  and  C_2
REMARK    2  A    between atoms: C_3  and  C_4
REMARK    3  A    between atoms: N_7  and  C_8
REMARK    4  A    between atoms: C_8  and  C_9
REMARK    5  A    between atoms: C_9  and  O_10
REMARK    6  A    between atoms: C_9  and  C_11
REMARK    7  A    between atoms: C_11  and  O_12
REMARK    8  A    between atoms: C_11  and  C_13
REMARK    9  A    between atoms: C_13  and  O_14
REMARK   10  A    between atoms: C_13  and  C_15
REMARK   11  A    between atoms: C_15  and  O_16
REMARK                            x       y       z     vdW  Elec       q    Type
REMARK                         _______ _______ _______ _____ _____    ______ ____
ROOT
ATOM      1  C   UNL     1      -9.422  -3.352 123.834  0.00  0.00    +0.000 C 
ATOM      2  C   UNL     1      -8.797  -2.197 124.533  0.00  0.00    +0.000 A 
ATOM      3  C   UNL     1      -8.532  -2.282 125.870  0.00  0.00    +0.000 A 
ATOM      4  C   UNL     1      -8.812  -3.413 126.832  0.00  0.00    +0.000 C 
ATOM      5  C   UNL     1      -7.971  -1.156 126.440  0.00  0.00    +0.000 A 
ATOM      6  C   UNL     1      -7.625   0.071 125.858  0.00  0.00    +0.000 A 
ATOM      7  N   UNL     1      -7.089   1.188 126.536  0.00  0.00    +0.000 N 
ATOM      8  C   UNL     1      -6.804   2.336 125.792  0.00  0.00    +0.000 A 
ATOM      9  N   UNL     1      -6.289   3.404 126.322  0.00  0.00    +0.000 NA
ATOM     10  C   UNL     1      -5.987   4.530 125.606  0.00  0.00    +0.000 A 
ATOM     11  O   UNL     1      -5.496   5.518 126.124  0.00  0.00    +0.000 OA
ATOM     12  N   UNL     1      -6.235   4.554 124.261  0.00  0.00    +0.000 N 
ATOM     13  C   UNL     1      -6.772   3.549 123.519  0.00  0.00    +0.000 A 
ATOM     14  O   UNL     1      -6.967   3.629 122.314  0.00  0.00    +0.000 OA
ATOM     15  C   UNL     1      -7.101   2.313 124.310  0.00  0.00    +0.000 A 
ATOM     16  N   UNL     1      -7.612   1.274 123.715  0.00  0.00    +0.000 NA
ATOM     17  C   UNL     1      -7.891   0.129 124.488  0.00  0.00    +0.000 A 
ATOM     18  C   UNL     1      -8.470  -0.997 123.848  0.00  0.00    +0.000 A 
ATOM     19  H   UNL     1      -5.987   5.409 123.785  0.00  0.00    +0.000 HD
ENDROOT
BRANCH   7  20
ATOM     20  C   UNL     1      -6.771   1.269 127.991  0.00  0.00    +0.000 C 
BRANCH  20  21
ATOM     21  C   UNL     1      -7.916   1.616 128.926  0.00  0.00    +0.000 C 
BRANCH  21  22
ATOM     22  O   UNL     1      -8.368   0.553 129.770  0.00  0.00    +0.000 OA
ATOM     23  H   UNL     1      -7.592   0.129 130.168  0.00  0.00    +0.000 HD
ENDBRANCH  21  22
BRANCH  21  24
ATOM     24  C   UNL     1      -7.550   2.935 129.735  0.00  0.00    +0.000 C 
BRANCH  24  25
ATOM     25  O   UNL     1      -6.478   3.767 129.253  0.00  0.00    +0.000 OA
ATOM     26  H   UNL     1      -6.378   4.553 129.829  0.00  0.00    +0.000 HD
ENDBRANCH  24  25
BRANCH  24  27
ATOM     27  C   UNL     1      -8.798   3.789 130.028  0.00  0.00    +0.000 C 
BRANCH  27  28
ATOM     28  O   UNL     1     -10.006   3.129 129.631  0.00  0.00    +0.000 OA
ATOM     29  H   UNL     1     -10.416   3.658 128.922  0.00  0.00    +0.000 HD
ENDBRANCH  27  28
BRANCH  27  30
ATOM     30  C   UNL     1      -8.654   5.114 129.282  0.00  0.00    +0.000 C 
BRANCH  30  31
ATOM     31  O   UNL     1      -8.624   4.916 127.873  0.00  0.00    +0.000 OA
ATOM     32  H   UNL     1      -9.391   4.347 127.656  0.00  0.00    +0.000 HD
ENDBRANCH  30  31
ENDBRANCH  27  30
ENDBRANCH  24  27
ENDBRANCH  21  24
ENDBRANCH  20  21
ENDBRANCH   7  20
TORSDOF 9
ENDMDL
MODEL 8
REMARK VINA RESULT:      -6.5      3.266      6.871
REMARK  Name = Riboflavin
REMARK  11 active torsions:
REMARK  status: ('A' for Active; 'I' for Inactive)
REMARK    1  A    between atoms: C_1  and  C_2
REMARK    2  A    between atoms: C_3  and  C_4
REMARK    3  A    between atoms: N_7  and  C_8
REMARK    4  A    between atoms: C_8  and  C_9
REMARK    5  A    between atoms: C_9  and  O_10
REMARK    6  A    between atoms: C_9  and  C_11
REMARK    7  A    between atoms: C_11  and  O_12
REMARK    8  A    between atoms: C_11  and  C_13
REMARK    9  A    between atoms: C_13  and  O_14
REMARK   10  A    between atoms: C_13  and  C_15
REMARK   11  A    between atoms: C_15  and  O_16
REMARK                            x       y       z     vdW  Elec       q    Type
REMARK                         _______ _______ _______ _____ _____    ______ ____
ROOT
ATOM      1  C   UNL     1      -6.832  -3.375 130.523  0.00  0.00    +0.000 C 
ATOM      2  C   UNL     1      -7.233  -2.400 129.474  0.00  0.00    +0.000 A 
ATOM      3  C   UNL     1      -7.264  -1.067 129.771  0.00  0.00    +0.000 A 
ATOM      4  C   UNL     1      -6.972  -0.370 131.079  0.00  0.00    +0.000 C 
ATOM      5  C   UNL     1      -7.667  -0.236 128.743  0.00  0.00    +0.000 A 
ATOM      6  C   UNL     1      -8.049  -0.547 127.431  0.00  0.00    +0.000 A 
ATOM      7  N   UNL     1      -8.488   0.376 126.456  0.00  0.00    +0.000 N 
ATOM      8  C   UNL     1      -8.833  -0.115 125.193  0.00  0.00    +0.000 A 
ATOM      9  N   UNL     1      -9.226   0.658 124.226  0.00  0.00    +0.000 NA
ATOM     10  C   UNL     1      -9.550   0.198 122.979  0.00  0.00    +0.000 A 
ATOM     11  O   UNL     1      -9.908   0.943 122.084  0.00  0.00    +0.000 OA
ATOM     12  N   UNL     1      -9.467  -1.143 122.718  0.00  0.00    +0.000 N 
ATOM     13  C   UNL     1      -9.085  -2.115 123.589  0.00  0.00    +0.000 A 
ATOM     14  O   UNL     1      -9.026  -3.301 123.294  0.00  0.00    +0.000 OA
ATOM     15  C   UNL     1      -8.728  -1.603 124.957  0.00  0.00    +0.000 A 
ATOM     16  N   UNL     1      -8.337  -2.433 125.882  0.00  0.00    +0.000 NA
ATOM     17  C   UNL     1      -7.995  -1.913 127.147  0.00  0.00    +0.000 A 
ATOM     18  C   UNL     1      -7.591  -2.815 128.165  0.00  0.00    +0.000 A 
ATOM     19  H   UNL     1      -9.713  -1.423 121.780  0.00  0.00    +0.000 HD
ENDROOT
BRANCH   7  20
ATOM     20  C   UNL     1      -8.608   1.853 126.627  0.00  0.00    +0.000 C 
BRANCH  20  21
ATOM     21  C   UNL     1      -7.381   2.685 126.301  0.00  0.00    +0.000 C 
BRANCH  21  22
ATOM     22  O   UNL     1      -6.136   1.980 126.316  0.00  0.00    +0.000 OA
ATOM     23  H   UNL     1      -5.417   2.631 126.321  0.00  0.00    +0.000 HD
ENDBRANCH  21  22
BRANCH  21  24
ATOM     24  C   UNL     1      -7.628   3.475 124.944  0.00  0.00    +0.000 C 
BRANCH  24  25
ATOM     25  O   UNL     1      -7.877   4.892 125.005  0.00  0.00    +0.000 OA
ATOM     26  H   UNL     1      -8.791   5.085 124.709  0.00  0.00    +0.000 HD
ENDBRANCH  24  25
BRANCH  24  27
ATOM     27  C   UNL     1      -6.539   3.169 123.900  0.00  0.00    +0.000 C 
BRANCH  27  28
ATOM     28  O   UNL     1      -5.370   3.974 124.091  0.00  0.00    +0.000 OA
ATOM     29  H   UNL     1      -4.625   3.528 123.647  0.00  0.00    +0.000 HD
ENDBRANCH  27  28
BRANCH  27  30
ATOM     30  C   UNL     1      -7.126   3.416 122.512  0.00  0.00    +0.000 C 
BRANCH  30  31
ATOM     31  O   UNL     1      -8.545   3.528 122.561  0.00  0.00    +0.000 OA
ATOM     32  H   UNL     1      -8.845   3.659 121.639  0.00  0.00    +0.000 HD
ENDBRANCH  30  31
ENDBRANCH  27  30
ENDBRANCH  24  27
ENDBRANCH  21  24
ENDBRANCH  20  21
ENDBRANCH   7  20
TORSDOF 9
ENDMDL
MODEL 9
REMARK VINA RESULT:      -6.3      3.714      5.084
REMARK  Name = Riboflavin
REMARK  11 active torsions:
REMARK  status: ('A' for Active; 'I' for Inactive)
REMARK    1  A    between atoms: C_1  and  C_2
REMARK    2  A    between atoms: C_3  and  C_4
REMARK    3  A    between atoms: N_7  and  C_8
REMARK    4  A    between atoms: C_8  and  C_9
REMARK    5  A    between atoms: C_9  and  O_10
REMARK    6  A    between atoms: C_9  and  C_11
REMARK    7  A    between atoms: C_11  and  O_12
REMARK    8  A    between atoms: C_11  and  C_13
REMARK    9  A    between atoms: C_13  and  O_14
REMARK   10  A    between atoms: C_13  and  C_15
REMARK   11  A    between atoms: C_15  and  O_16
REMARK                            x       y       z     vdW  Elec       q    Type
REMARK                         _______ _______ _______ _____ _____    ______ ____
ROOT
ATOM      1  C   UNL     1      -6.424   3.584 121.780  0.00  0.00    +0.000 C 
ATOM      2  C   UNL     1      -6.667   2.720 122.965  0.00  0.00    +0.000 A 
ATOM      3  C   UNL     1      -6.267   3.142 124.201  0.00  0.00    +0.000 A 
ATOM      4  C   UNL     1      -5.543   4.410 124.592  0.00  0.00    +0.000 C 
ATOM      5  C   UNL     1      -6.514   2.267 125.241  0.00  0.00    +0.000 A 
ATOM      6  C   UNL     1      -7.120   1.003 125.229  0.00  0.00    +0.000 A 
ATOM      7  N   UNL     1      -7.294   0.158 126.347  0.00  0.00    +0.000 N 
ATOM      8  C   UNL     1      -7.920  -1.076 126.149  0.00  0.00    +0.000 A 
ATOM      9  N   UNL     1      -8.144  -1.911 127.118  0.00  0.00    +0.000 NA
ATOM     10  C   UNL     1      -8.772  -3.114 126.946  0.00  0.00    +0.000 A 
ATOM     11  O   UNL     1      -8.979  -3.878 127.872  0.00  0.00    +0.000 OA
ATOM     12  N   UNL     1      -9.189  -3.478 125.695  0.00  0.00    +0.000 N 
ATOM     13  C   UNL     1      -9.047  -2.755 124.552  0.00  0.00    +0.000 A 
ATOM     14  O   UNL     1      -9.447  -3.133 123.459  0.00  0.00    +0.000 OA
ATOM     15  C   UNL     1      -8.358  -1.432 124.747  0.00  0.00    +0.000 A 
ATOM     16  N   UNL     1      -8.168  -0.640 123.732  0.00  0.00    +0.000 NA
ATOM     17  C   UNL     1      -7.534   0.599 123.958  0.00  0.00    +0.000 A 
ATOM     18  C   UNL     1      -7.303   1.456 122.851  0.00  0.00    +0.000 A 
ATOM     19  H   UNL     1      -9.650  -4.373 125.629  0.00  0.00    +0.000 HD
ENDROOT
BRANCH   7  20
ATOM     20  C   UNL     1      -6.888   0.455 127.751  0.00  0.00    +0.000 C 
BRANCH  20  21
ATOM     21  C   UNL     1      -5.494   0.020 128.170  0.00  0.00    +0.000 C 
BRANCH  21  22
ATOM     22  O   UNL     1      -4.454   0.973 127.936  0.00  0.00    +0.000 OA
ATOM     23  H   UNL     1      -4.694   1.802 128.378  0.00  0.00    +0.000 HD
ENDBRANCH  21  22
BRANCH  21  24
ATOM     24  C   UNL     1      -5.536  -0.493 129.674  0.00  0.00    +0.000 C 
BRANCH  24  25
ATOM     25  O   UNL     1      -6.817  -0.731 130.289  0.00  0.00    +0.000 OA
ATOM     26  H   UNL     1      -6.882  -1.665 130.578  0.00  0.00    +0.000 HD
ENDBRANCH  24  25
BRANCH  24  27
ATOM     27  C   UNL     1      -4.608  -1.703 129.889  0.00  0.00    +0.000 C 
BRANCH  27  28
ATOM     28  O   UNL     1      -3.236  -1.380 129.633  0.00  0.00    +0.000 OA
ATOM     29  H   UNL     1      -2.684  -1.983 130.165  0.00  0.00    +0.000 HD
ENDBRANCH  27  28
BRANCH  27  30
ATOM     30  C   UNL     1      -5.066  -2.826 128.961  0.00  0.00    +0.000 C 
BRANCH  30  31
ATOM     31  O   UNL     1      -6.366  -3.290 129.309  0.00  0.00    +0.000 OA
ATOM     32  H   UNL     1      -6.621  -2.815 130.125  0.00  0.00    +0.000 HD
ENDBRANCH  30  31
ENDBRANCH  27  30
ENDBRANCH  24  27
ENDBRANCH  21  24
ENDBRANCH  20  21
ENDBRANCH   7  20
TORSDOF 9
ENDMDL
