MODEL 1
REMARK VINA RESULT:      -8.2      0.000      0.000
REMARK  Name = Ribociclib
REMARK  6 active torsions:
REMARK  status: ('A' for Active; 'I' for Inactive)
REMARK    1  A    between atoms: C_1  and  N_2
REMARK    2  A    between atoms: N_2  and  C_3
REMARK    3  A    between atoms: C_4  and  C_6
REMARK    4  A    between atoms: N_12  and  C_13
REMARK    5  A    between atoms: C_16  and  N_19
REMARK    6  A    between atoms: N_27  and  C_28
REMARK                            x       y       z     vdW  Elec       q    Type
REMARK                         _______ _______ _______ _____ _____    ______ ____
ROOT
ATOM      1  C   UNL     1      -6.736   1.157 124.536  0.00  0.00    +0.000 A 
ATOM      2  C   UNL     1      -6.359   0.862 125.844  0.00  0.00    +0.000 A 
ATOM      3  C   UNL     1      -5.821   2.020 126.453  0.00  0.00    +0.000 A 
ATOM      4  C   UNL     1      -5.255   2.311 127.683  0.00  0.00    +0.000 A 
ATOM      5  N   UNL     1      -4.808   3.552 127.942  0.00  0.00    +0.000 NA
ATOM      6  C   UNL     1      -4.894   4.513 127.007  0.00  0.00    +0.000 A 
ATOM      7  N   UNL     1      -4.431   5.789 127.374  0.00  0.00    +0.000 N 
ATOM      8  N   UNL     1      -5.470   4.335 125.781  0.00  0.00    +0.000 NA
ATOM      9  C   UNL     1      -5.915   3.065 125.552  0.00  0.00    +0.000 A 
ATOM     10  N   UNL     1      -6.529   2.544 124.407  0.00  0.00    +0.000 N 
ATOM     11  H   UNL     1      -4.596   6.504 126.691  0.00  0.00    +0.000 HD
ENDROOT
BRANCH   7  12
ATOM     12  C   UNL     1      -3.820   6.173 128.587  0.00  0.00    +0.000 A 
ATOM     13  C   UNL     1      -2.453   5.951 128.763  0.00  0.00    +0.000 A 
ATOM     14  C   UNL     1      -1.795   6.425 129.916  0.00  0.00    +0.000 A 
ATOM     15  C   UNL     1      -2.487   7.082 130.930  0.00  0.00    +0.000 A 
ATOM     16  C   UNL     1      -3.855   7.205 130.692  0.00  0.00    +0.000 A 
ATOM     17  N   UNL     1      -4.522   6.784 129.568  0.00  0.00    +0.000 NA
BRANCH  15  18
ATOM     18  N   UNL     1      -1.836   7.602 132.024  0.00  0.00    +0.000 N 
ATOM     19  C   UNL     1      -2.389   8.741 132.769  0.00  0.00    +0.000 C 
ATOM     20  C   UNL     1      -2.489   8.365 134.270  0.00  0.00    +0.000 C 
ATOM     21  N   UNL     1      -1.192   7.945 134.844  0.00  0.00    +0.000 NA
ATOM     22  C   UNL     1      -0.656   6.816 134.049  0.00  0.00    +0.000 C 
ATOM     23  C   UNL     1      -0.544   7.129 132.536  0.00  0.00    +0.000 C 
ATOM     24  H   UNL     1      -1.334   7.640 135.807  0.00  0.00    +0.000 HD
ENDBRANCH  15  18
ENDBRANCH   7  12
BRANCH   1  28
ATOM     25  C   UNL     1      -9.244  -1.151 122.755  0.00  0.00    +0.000 C 
ATOM     26  N   UNL     1      -8.711  -0.166 123.684  0.00  0.00    +0.000 N 
ATOM     27  C   UNL     1      -9.688   0.424 124.566  0.00  0.00    +0.000 C 
ATOM     28  C   UNL     1      -7.354   0.188 123.607  0.00  0.00    +0.000 C 
ATOM     29  O   UNL     1      -6.664  -0.299 122.692  0.00  0.00    +0.000 OA
ENDBRANCH   1  28
BRANCH  10  30
ATOM     30  C   UNL     1      -6.786   3.273 123.187  0.00  0.00    +0.000 C 
ATOM     31  C   UNL     1      -5.975   3.019 121.926  0.00  0.00    +0.000 C 
ATOM     32  C   UNL     1      -6.821   3.705 120.842  0.00  0.00    +0.000 C 
ATOM     33  C   UNL     1      -8.276   3.640 121.308  0.00  0.00    +0.000 C 
ATOM     34  C   UNL     1      -8.233   3.077 122.713  0.00  0.00    +0.000 C 
ENDBRANCH  10  30
TORSDOF 4
ENDMDL
MODEL 2
REMARK VINA RESULT:      -8.1      1.213      1.440
REMARK  Name = Ribociclib
REMARK  6 active torsions:
REMARK  status: ('A' for Active; 'I' for Inactive)
REMARK    1  A    between atoms: C_1  and  N_2
REMARK    2  A    between atoms: N_2  and  C_3
REMARK    3  A    between atoms: C_4  and  C_6
REMARK    4  A    between atoms: N_12  and  C_13
REMARK    5  A    between atoms: C_16  and  N_19
REMARK    6  A    between atoms: N_27  and  C_28
REMARK                            x       y       z     vdW  Elec       q    Type
REMARK                         _______ _______ _______ _____ _____    ______ ____
ROOT
ATOM      1  C   UNL     1      -6.812  -0.269 124.524  0.00  0.00    +0.000 A 
ATOM      2  C   UNL     1      -6.233  -0.466 125.775  0.00  0.00    +0.000 A 
ATOM      3  C   UNL     1      -5.819   0.779 126.305  0.00  0.00    +0.000 A 
ATOM      4  C   UNL     1      -5.160   1.190 127.452  0.00  0.00    +0.000 A 
ATOM      5  N   UNL     1      -4.893   2.492 127.646  0.00  0.00    +0.000 NA
ATOM      6  C   UNL     1      -5.250   3.403 126.725  0.00  0.00    +0.000 A 
ATOM      7  N   UNL     1      -4.960   4.745 127.023  0.00  0.00    +0.000 N 
ATOM      8  N   UNL     1      -5.937   3.103 125.582  0.00  0.00    +0.000 NA
ATOM      9  C   UNL     1      -6.194   1.772 125.418  0.00  0.00    +0.000 A 
ATOM     10  N   UNL     1      -6.851   1.129 124.362  0.00  0.00    +0.000 N 
ATOM     11  H   UNL     1      -5.323   5.407 126.362  0.00  0.00    +0.000 HD
ENDROOT
BRANCH   7  12
ATOM     12  C   UNL     1      -4.273   5.254 128.147  0.00  0.00    +0.000 A 
ATOM     13  C   UNL     1      -2.886   5.397 128.092  0.00  0.00    +0.000 A 
ATOM     14  C   UNL     1      -2.188   6.006 129.155  0.00  0.00    +0.000 A 
ATOM     15  C   UNL     1      -2.846   6.438 130.304  0.00  0.00    +0.000 A 
ATOM     16  C   UNL     1      -4.219   6.200 130.291  0.00  0.00    +0.000 A 
ATOM     17  N   UNL     1      -4.935   5.640 129.262  0.00  0.00    +0.000 NA
BRANCH  15  18
ATOM     18  N   UNL     1      -2.177   7.091 131.312  0.00  0.00    +0.000 N 
ATOM     19  C   UNL     1      -2.778   8.236 132.009  0.00  0.00    +0.000 C 
ATOM     20  C   UNL     1      -2.756   7.969 133.536  0.00  0.00    +0.000 C 
ATOM     21  N   UNL     1      -1.396   7.699 134.052  0.00  0.00    +0.000 NA
ATOM     22  C   UNL     1      -0.815   6.558 133.306  0.00  0.00    +0.000 C 
ATOM     23  C   UNL     1      -0.821   6.763 131.770  0.00  0.00    +0.000 C 
ATOM     24  H   UNL     1      -1.454   7.459 135.041  0.00  0.00    +0.000 HD
ENDBRANCH  15  18
ENDBRANCH   7  12
BRANCH   1  28
ATOM     25  C   UNL     1      -9.008  -3.132 123.192  0.00  0.00    +0.000 C 
ATOM     26  N   UNL     1      -8.528  -2.061 124.052  0.00  0.00    +0.000 N 
ATOM     27  C   UNL     1      -9.367  -1.778 125.192  0.00  0.00    +0.000 C 
ATOM     28  C   UNL     1      -7.374  -1.349 123.686  0.00  0.00    +0.000 C 
ATOM     29  O   UNL     1      -6.838  -1.609 122.592  0.00  0.00    +0.000 OA
ENDBRANCH   1  28
BRANCH  10  30
ATOM     30  C   UNL     1      -7.374   1.776 123.181  0.00  0.00    +0.000 C 
ATOM     31  C   UNL     1      -8.560   2.725 123.257  0.00  0.00    +0.000 C 
ATOM     32  C   UNL     1      -8.508   3.431 121.894  0.00  0.00    +0.000 C 
ATOM     33  C   UNL     1      -7.043   3.453 121.460  0.00  0.00    +0.000 C 
ATOM     34  C   UNL     1      -6.299   2.620 122.483  0.00  0.00    +0.000 C 
ENDBRANCH  10  30
TORSDOF 4
ENDMDL
MODEL 3
REMARK VINA RESULT:      -8.0      5.729      7.645
REMARK  Name = Ribociclib
REMARK  6 active torsions:
REMARK  status: ('A' for Active; 'I' for Inactive)
REMARK    1  A    between atoms: C_1  and  N_2
REMARK    2  A    between atoms: N_2  and  C_3
REMARK    3  A    between atoms: C_4  and  C_6
REMARK    4  A    between atoms: N_12  and  C_13
REMARK    5  A    between atoms: C_16  and  N_19
REMARK    6  A    between atoms: N_27  and  C_28
REMARK                            x       y       z     vdW  Elec       q    Type
REMARK                         _______ _______ _______ _____ _____    ______ ____
ROOT
ATOM      1  C   UNL     1      -7.347  -2.093 125.639  0.00  0.00    +0.000 A 
ATOM      2  C   UNL     1      -7.982  -0.972 125.111  0.00  0.00    +0.000 A 
ATOM      3  C   UNL     1      -8.221  -0.035 126.144  0.00  0.00    +0.000 A 
ATOM      4  C   UNL     1      -8.842   1.200 126.227  0.00  0.00    +0.000 A 
ATOM      5  N   UNL     1      -8.919   1.838 127.407  0.00  0.00    +0.000 NA
ATOM      6  C   UNL     1      -8.407   1.277 128.516  0.00  0.00    +0.000 A 
ATOM      7  N   UNL     1      -8.504   2.027 129.701  0.00  0.00    +0.000 N 
ATOM      8  N   UNL     1      -7.743   0.083 128.530  0.00  0.00    +0.000 NA
ATOM      9  C   UNL     1      -7.681  -0.536 127.315  0.00  0.00    +0.000 A 
ATOM     10  N   UNL     1      -7.098  -1.765 126.985  0.00  0.00    +0.000 N 
ATOM     11  H   UNL     1      -8.030   1.625 130.489  0.00  0.00    +0.000 HD
ENDROOT
BRANCH   7  12
ATOM     12  C   UNL     1      -9.137   3.276 129.887  0.00  0.00    +0.000 A 
ATOM     13  C   UNL     1      -8.389   4.447 129.754  0.00  0.00    +0.000 A 
ATOM     14  C   UNL     1      -9.018   5.707 129.823  0.00  0.00    +0.000 A 
ATOM     15  C   UNL     1     -10.382   5.826 130.072  0.00  0.00    +0.000 A 
ATOM     16  C   UNL     1     -11.033   4.606 130.250  0.00  0.00    +0.000 A 
ATOM     17  N   UNL     1     -10.460   3.362 130.157  0.00  0.00    +0.000 NA
BRANCH  15  18
ATOM     18  N   UNL     1     -11.007   7.051 130.075  0.00  0.00    +0.000 N 
ATOM     19  C   UNL     1     -10.578   8.127 129.172  0.00  0.00    +0.000 C 
ATOM     20  C   UNL     1     -11.803   8.632 128.366  0.00  0.00    +0.000 C 
ATOM     21  N   UNL     1     -12.912   9.087 129.233  0.00  0.00    +0.000 NA
ATOM     22  C   UNL     1     -13.295   7.986 130.146  0.00  0.00    +0.000 C 
ATOM     23  C   UNL     1     -12.107   7.431 130.971  0.00  0.00    +0.000 C 
ATOM     24  H   UNL     1     -13.712   9.336 128.651  0.00  0.00    +0.000 HD
ENDBRANCH  15  18
ENDBRANCH   7  12
BRANCH   1  28
ATOM     25  C   UNL     1      -5.310  -4.552 123.496  0.00  0.00    +0.000 C 
ATOM     26  N   UNL     1      -5.642  -3.382 124.294  0.00  0.00    +0.000 N 
ATOM     27  C   UNL     1      -4.547  -2.468 124.513  0.00  0.00    +0.000 C 
ATOM     28  C   UNL     1      -6.929  -3.267 124.844  0.00  0.00    +0.000 C 
ATOM     29  O   UNL     1      -7.726  -4.212 124.692  0.00  0.00    +0.000 OA
ENDBRANCH   1  28
BRANCH  10  30
ATOM     30  C   UNL     1      -6.455  -2.665 127.915  0.00  0.00    +0.000 C 
ATOM     31  C   UNL     1      -5.255  -2.228 128.739  0.00  0.00    +0.000 C 
ATOM     32  C   UNL     1      -5.166  -3.328 129.807  0.00  0.00    +0.000 C 
ATOM     33  C   UNL     1      -6.586  -3.847 130.028  0.00  0.00    +0.000 C 
ATOM     34  C   UNL     1      -7.440  -3.169 128.978  0.00  0.00    +0.000 C 
ENDBRANCH  10  30
TORSDOF 4
ENDMDL
MODEL 4
REMARK VINA RESULT:      -7.9      7.119      9.927
REMARK  Name = Ribociclib
REMARK  6 active torsions:
REMARK  status: ('A' for Active; 'I' for Inactive)
REMARK    1  A    between atoms: C_1  and  N_2
REMARK    2  A    between atoms: N_2  and  C_3
REMARK    3  A    between atoms: C_4  and  C_6
REMARK    4  A    between atoms: N_12  and  C_13
REMARK    5  A    between atoms: C_16  and  N_19
REMARK    6  A    between atoms: N_27  and  C_28
REMARK                            x       y       z     vdW  Elec       q    Type
REMARK                         _______ _______ _______ _____ _____    ______ ____
ROOT
ATOM      1  C   UNL     1      -5.161  -1.239 134.176  0.00  0.00    +0.000 A 
ATOM      2  C   UNL     1      -5.513   0.030 134.628  0.00  0.00    +0.000 A 
ATOM      3  C   UNL     1      -6.307   0.676 133.652  0.00  0.00    +0.000 A 
ATOM      4  C   UNL     1      -6.888   1.927 133.526  0.00  0.00    +0.000 A 
ATOM      5  N   UNL     1      -7.585   2.238 132.421  0.00  0.00    +0.000 NA
ATOM      6  C   UNL     1      -7.712   1.346 131.424  0.00  0.00    +0.000 A 
ATOM      7  N   UNL     1      -8.483   1.744 130.319  0.00  0.00    +0.000 N 
ATOM      8  N   UNL     1      -7.210   0.075 131.470  0.00  0.00    +0.000 NA
ATOM      9  C   UNL     1      -6.510  -0.208 132.607  0.00  0.00    +0.000 A 
ATOM     10  N   UNL     1      -5.857  -1.394 132.962  0.00  0.00    +0.000 N 
ATOM     11  H   UNL     1      -8.638   1.024 129.637  0.00  0.00    +0.000 HD
ENDROOT
BRANCH   7  12
ATOM     12  C   UNL     1      -9.090   2.999 130.092  0.00  0.00    +0.000 A 
ATOM     13  C   UNL     1     -10.393   3.218 130.540  0.00  0.00    +0.000 A 
ATOM     14  C   UNL     1     -10.982   4.494 130.428  0.00  0.00    +0.000 A 
ATOM     15  C   UNL     1     -10.308   5.555 129.829  0.00  0.00    +0.000 A 
ATOM     16  C   UNL     1      -9.038   5.226 129.360  0.00  0.00    +0.000 A 
ATOM     17  N   UNL     1      -8.422   4.004 129.482  0.00  0.00    +0.000 NA
BRANCH  15  18
ATOM     18  N   UNL     1     -10.856   6.816 129.778  0.00  0.00    +0.000 N 
ATOM     19  C   UNL     1     -10.127   7.939 129.173  0.00  0.00    +0.000 C 
ATOM     20  C   UNL     1     -11.021   8.602 128.093  0.00  0.00    +0.000 C 
ATOM     21  N   UNL     1     -12.326   9.051 128.626  0.00  0.00    +0.000 NA
ATOM     22  C   UNL     1     -13.015   7.899 129.252  0.00  0.00    +0.000 C 
ATOM     23  C   UNL     1     -12.163   7.187 130.332  0.00  0.00    +0.000 C 
ATOM     24  H   UNL     1     -12.896   9.409 127.861  0.00  0.00    +0.000 HD
ENDBRANCH  15  18
ENDBRANCH   7  12
BRANCH   1  28
ATOM     25  C   UNL     1      -2.247  -3.387 135.476  0.00  0.00    +0.000 C 
ATOM     26  N   UNL     1      -2.978  -2.398 134.698  0.00  0.00    +0.000 N 
ATOM     27  C   UNL     1      -2.172  -1.636 133.777  0.00  0.00    +0.000 C 
ATOM     28  C   UNL     1      -4.347  -2.203 134.946  0.00  0.00    +0.000 C 
ATOM     29  O   UNL     1      -4.877  -2.833 135.880  0.00  0.00    +0.000 OA
ENDBRANCH   1  28
BRANCH  10  30
ATOM     30  C   UNL     1      -5.766  -2.580 132.142  0.00  0.00    +0.000 C 
ATOM     31  C   UNL     1      -6.975  -3.121 131.395  0.00  0.00    +0.000 C 
ATOM     32  C   UNL     1      -6.339  -4.107 130.403  0.00  0.00    +0.000 C 
ATOM     33  C   UNL     1      -4.936  -3.584 130.096  0.00  0.00    +0.000 C 
ATOM     34  C   UNL     1      -4.719  -2.414 131.032  0.00  0.00    +0.000 C 
ENDBRANCH  10  30
TORSDOF 4
ENDMDL
MODEL 5
REMARK VINA RESULT:      -7.8      2.444      3.504
REMARK  Name = Ribociclib
REMARK  6 active torsions:
REMARK  status: ('A' for Active; 'I' for Inactive)
REMARK    1  A    between atoms: C_1  and  N_2
REMARK    2  A    between atoms: N_2  and  C_3
REMARK    3  A    between atoms: C_4  and  C_6
REMARK    4  A    between atoms: N_12  and  C_13
REMARK    5  A    between atoms: C_16  and  N_19
REMARK    6  A    between atoms: N_27  and  C_28
REMARK                            x       y       z     vdW  Elec       q    Type
REMARK                         _______ _______ _______ _____ _____    ______ ____
ROOT
ATOM      1  C   UNL     1      -7.928  -0.537 124.783  0.00  0.00    +0.000 A 
ATOM      2  C   UNL     1      -8.381   0.596 125.456  0.00  0.00    +0.000 A 
ATOM      3  C   UNL     1      -7.294   1.220 126.111  0.00  0.00    +0.000 A 
ATOM      4  C   UNL     1      -7.146   2.316 126.945  0.00  0.00    +0.000 A 
ATOM      5  N   UNL     1      -5.935   2.636 127.431  0.00  0.00    +0.000 NA
ATOM      6  C   UNL     1      -4.862   1.888 127.123  0.00  0.00    +0.000 A 
ATOM      7  N   UNL     1      -3.629   2.313 127.649  0.00  0.00    +0.000 N 
ATOM      8  N   UNL     1      -4.897   0.813 126.280  0.00  0.00    +0.000 NA
ATOM      9  C   UNL     1      -6.142   0.518 125.803  0.00  0.00    +0.000 A 
ATOM     10  N   UNL     1      -6.530  -0.517 124.945  0.00  0.00    +0.000 N 
ATOM     11  H   UNL     1      -2.836   1.791 127.325  0.00  0.00    +0.000 HD
ENDROOT
BRANCH   7  12
ATOM     12  C   UNL     1      -3.386   3.395 128.522  0.00  0.00    +0.000 A 
ATOM     13  C   UNL     1      -3.713   3.269 129.873  0.00  0.00    +0.000 A 
ATOM     14  C   UNL     1      -3.378   4.289 130.787  0.00  0.00    +0.000 A 
ATOM     15  C   UNL     1      -2.761   5.465 130.370  0.00  0.00    +0.000 A 
ATOM     16  C   UNL     1      -2.528   5.525 128.997  0.00  0.00    +0.000 A 
ATOM     17  N   UNL     1      -2.811   4.538 128.084  0.00  0.00    +0.000 NA
BRANCH  15  18
ATOM     18  N   UNL     1      -2.376   6.432 131.269  0.00  0.00    +0.000 N 
ATOM     19  C   UNL     1      -3.349   7.373 131.838  0.00  0.00    +0.000 C 
ATOM     20  C   UNL     1      -3.255   7.326 133.385  0.00  0.00    +0.000 C 
ATOM     21  N   UNL     1      -1.893   7.614 133.887  0.00  0.00    +0.000 NA
ATOM     22  C   UNL     1      -0.940   6.664 133.268  0.00  0.00    +0.000 C 
ATOM     23  C   UNL     1      -0.997   6.659 131.720  0.00  0.00    +0.000 C 
ATOM     24  H   UNL     1      -1.876   7.496 134.899  0.00  0.00    +0.000 HD
ENDBRANCH  15  18
ENDBRANCH   7  12
BRANCH   1  28
ATOM     25  C   UNL     1      -9.953  -3.555 123.525  0.00  0.00    +0.000 C 
ATOM     26  N   UNL     1      -9.126  -2.725 124.387  0.00  0.00    +0.000 N 
ATOM     27  C   UNL     1      -8.795  -3.317 125.661  0.00  0.00    +0.000 C 
ATOM     28  C   UNL     1      -8.789  -1.426 123.974  0.00  0.00    +0.000 C 
ATOM     29  O   UNL     1      -9.274  -0.996 122.911  0.00  0.00    +0.000 OA
ENDBRANCH   1  28
BRANCH  10  30
ATOM     30  C   UNL     1      -5.655  -1.533 124.406  0.00  0.00    +0.000 C 
ATOM     31  C   UNL     1      -5.559  -2.912 125.039  0.00  0.00    +0.000 C 
ATOM     32  C   UNL     1      -4.844  -3.728 123.951  0.00  0.00    +0.000 C 
ATOM     33  C   UNL     1      -5.219  -3.101 122.608  0.00  0.00    +0.000 C 
ATOM     34  C   UNL     1      -5.997  -1.846 122.943  0.00  0.00    +0.000 C 
ENDBRANCH  10  30
TORSDOF 4
ENDMDL
MODEL 6
REMARK VINA RESULT:      -7.6      7.552     10.499
REMARK  Name = Ribociclib
REMARK  6 active torsions:
REMARK  status: ('A' for Active; 'I' for Inactive)
REMARK    1  A    between atoms: C_1  and  N_2
REMARK    2  A    between atoms: N_2  and  C_3
REMARK    3  A    between atoms: C_4  and  C_6
REMARK    4  A    between atoms: N_12  and  C_13
REMARK    5  A    between atoms: C_16  and  N_19
REMARK    6  A    between atoms: N_27  and  C_28
REMARK                            x       y       z     vdW  Elec       q    Type
REMARK                         _______ _______ _______ _____ _____    ______ ____
ROOT
ATOM      1  C   UNL     1      -4.175  -1.608 133.165  0.00  0.00    +0.000 A 
ATOM      2  C   UNL     1      -3.905  -0.421 132.490  0.00  0.00    +0.000 A 
ATOM      3  C   UNL     1      -5.084   0.357 132.410  0.00  0.00    +0.000 A 
ATOM      4  C   UNL     1      -5.427   1.567 131.832  0.00  0.00    +0.000 A 
ATOM      5  N   UNL     1      -6.686   2.027 131.926  0.00  0.00    +0.000 NA
ATOM      6  C   UNL     1      -7.624   1.310 132.569  0.00  0.00    +0.000 A 
ATOM      7  N   UNL     1      -8.906   1.880 132.646  0.00  0.00    +0.000 N 
ATOM      8  N   UNL     1      -7.376   0.126 133.204  0.00  0.00    +0.000 NA
ATOM      9  C   UNL     1      -6.088  -0.310 133.090  0.00  0.00    +0.000 A 
ATOM     10  N   UNL     1      -5.509  -1.479 133.598  0.00  0.00    +0.000 N 
ATOM     11  H   UNL     1      -9.557   1.367 133.211  0.00  0.00    +0.000 HD
ENDROOT
BRANCH   7  12
ATOM     12  C   UNL     1      -9.354   3.089 132.069  0.00  0.00    +0.000 A 
ATOM     13  C   UNL     1     -10.083   3.049 130.880  0.00  0.00    +0.000 A 
ATOM     14  C   UNL     1     -10.638   4.229 130.343  0.00  0.00    +0.000 A 
ATOM     15  C   UNL     1     -10.438   5.467 130.948  0.00  0.00    +0.000 A 
ATOM     16  C   UNL     1      -9.649   5.415 132.096  0.00  0.00    +0.000 A 
ATOM     17  N   UNL     1      -9.121   4.281 132.664  0.00  0.00    +0.000 NA
BRANCH  15  18
ATOM     18  N   UNL     1     -11.032   6.608 130.462  0.00  0.00    +0.000 N 
ATOM     19  C   UNL     1     -10.256   7.620 129.733  0.00  0.00    +0.000 C 
ATOM     20  C   UNL     1     -10.935   7.894 128.367  0.00  0.00    +0.000 C 
ATOM     21  N   UNL     1     -12.347   8.315 128.502  0.00  0.00    +0.000 NA
ATOM     22  C   UNL     1     -13.087   7.284 129.265  0.00  0.00    +0.000 C 
ATOM     23  C   UNL     1     -12.447   6.959 130.638  0.00  0.00    +0.000 C 
ATOM     24  H   UNL     1     -12.760   8.408 127.574  0.00  0.00    +0.000 HD
ENDBRANCH  15  18
ENDBRANCH   7  12
BRANCH   1  28
ATOM     25  C   UNL     1      -1.424  -3.715 134.834  0.00  0.00    +0.000 C 
ATOM     26  N   UNL     1      -2.418  -2.671 134.636  0.00  0.00    +0.000 N 
ATOM     27  C   UNL     1      -2.590  -1.777 135.755  0.00  0.00    +0.000 C 
ATOM     28  C   UNL     1      -3.171  -2.654 133.449  0.00  0.00    +0.000 C 
ATOM     29  O   UNL     1      -3.015  -3.582 132.634  0.00  0.00    +0.000 OA
ENDBRANCH   1  28
BRANCH  10  30
ATOM     30  C   UNL     1      -6.204  -2.506 134.340  0.00  0.00    +0.000 C 
ATOM     31  C   UNL     1      -6.824  -2.219 135.699  0.00  0.00    +0.000 C 
ATOM     32  C   UNL     1      -7.740  -3.433 135.910  0.00  0.00    +0.000 C 
ATOM     33  C   UNL     1      -8.176  -3.907 134.523  0.00  0.00    +0.000 C 
ATOM     34  C   UNL     1      -7.381  -3.077 133.537  0.00  0.00    +0.000 C 
ENDBRANCH  10  30
TORSDOF 4
ENDMDL
MODEL 7
REMARK VINA RESULT:      -7.6      7.140      9.240
REMARK  Name = Ribociclib
REMARK  6 active torsions:
REMARK  status: ('A' for Active; 'I' for Inactive)
REMARK    1  A    between atoms: C_1  and  N_2
REMARK    2  A    between atoms: N_2  and  C_3
REMARK    3  A    between atoms: C_4  and  C_6
REMARK    4  A    between atoms: N_12  and  C_13
REMARK    5  A    between atoms: C_16  and  N_19
REMARK    6  A    between atoms: N_27  and  C_28
REMARK                            x       y       z     vdW  Elec       q    Type
REMARK                         _______ _______ _______ _____ _____    ______ ____
ROOT
ATOM      1  C   UNL     1      -8.465  -1.342 125.292  0.00  0.00    +0.000 A 
ATOM      2  C   UNL     1      -9.014  -2.470 125.896  0.00  0.00    +0.000 A 
ATOM      3  C   UNL     1      -8.451  -2.637 127.183  0.00  0.00    +0.000 A 
ATOM      4  C   UNL     1      -8.570  -3.576 128.194  0.00  0.00    +0.000 A 
ATOM      5  N   UNL     1      -7.852  -3.446 129.322  0.00  0.00    +0.000 NA
ATOM      6  C   UNL     1      -7.004  -2.414 129.472  0.00  0.00    +0.000 A 
ATOM      7  N   UNL     1      -6.316  -2.340 130.696  0.00  0.00    +0.000 N 
ATOM      8  N   UNL     1      -6.846  -1.417 128.551  0.00  0.00    +0.000 NA
ATOM      9  C   UNL     1      -7.592  -1.579 127.420  0.00  0.00    +0.000 A 
ATOM     10  N   UNL     1      -7.651  -0.762 126.284  0.00  0.00    +0.000 N 
ATOM     11  H   UNL     1      -5.766  -1.509 130.815  0.00  0.00    +0.000 HD
ENDROOT
BRANCH   7  12
ATOM     12  C   UNL     1      -6.353  -3.257 131.769  0.00  0.00    +0.000 A 
ATOM     13  C   UNL     1      -5.510  -4.369 131.745  0.00  0.00    +0.000 A 
ATOM     14  C   UNL     1      -5.444  -5.239 132.853  0.00  0.00    +0.000 A 
ATOM     15  C   UNL     1      -6.246  -5.049 133.975  0.00  0.00    +0.000 A 
ATOM     16  C   UNL     1      -7.096  -3.948 133.882  0.00  0.00    +0.000 A 
ATOM     17  N   UNL     1      -7.163  -3.063 132.835  0.00  0.00    +0.000 NA
BRANCH  15  18
ATOM     18  N   UNL     1      -6.136  -5.858 135.081  0.00  0.00    +0.000 N 
ATOM     19  C   UNL     1      -4.841  -6.418 135.490  0.00  0.00    +0.000 C 
ATOM     20  C   UNL     1      -4.579  -6.059 136.975  0.00  0.00    +0.000 C 
ATOM     21  N   UNL     1      -5.657  -6.522 137.876  0.00  0.00    +0.000 NA
ATOM     22  C   UNL     1      -6.947  -5.961 137.414  0.00  0.00    +0.000 C 
ATOM     23  C   UNL     1      -7.258  -6.278 135.930  0.00  0.00    +0.000 C 
ATOM     24  H   UNL     1      -5.467  -6.195 138.823  0.00  0.00    +0.000 HD
ENDBRANCH  15  18
ENDBRANCH   7  12
BRANCH   1  28
ATOM     25  C   UNL     1      -9.985   0.691 122.403  0.00  0.00    +0.000 C 
ATOM     26  N   UNL     1      -9.636   0.285 123.755  0.00  0.00    +0.000 N 
ATOM     27  C   UNL     1     -10.099   1.174 124.793  0.00  0.00    +0.000 C 
ATOM     28  C   UNL     1      -8.834  -0.852 123.947  0.00  0.00    +0.000 C 
ATOM     29  O   UNL     1      -8.383  -1.437 122.944  0.00  0.00    +0.000 OA
ENDBRANCH   1  28
BRANCH  10  30
ATOM     30  C   UNL     1      -6.876   0.438 126.072  0.00  0.00    +0.000 C 
ATOM     31  C   UNL     1      -7.023   1.647 126.983  0.00  0.00    +0.000 C 
ATOM     32  C   UNL     1      -5.785   2.484 126.627  0.00  0.00    +0.000 C 
ATOM     33  C   UNL     1      -4.700   1.504 126.181  0.00  0.00    +0.000 C 
ATOM     34  C   UNL     1      -5.369   0.148 126.123  0.00  0.00    +0.000 C 
ENDBRANCH  10  30
TORSDOF 4
ENDMDL
MODEL 8
REMARK VINA RESULT:      -7.5      7.014      8.869
REMARK  Name = Ribociclib
REMARK  6 active torsions:
REMARK  status: ('A' for Active; 'I' for Inactive)
REMARK    1  A    between atoms: C_1  and  N_2
REMARK    2  A    between atoms: N_2  and  C_3
REMARK    3  A    between atoms: C_4  and  C_6
REMARK    4  A    between atoms: N_12  and  C_13
REMARK    5  A    between atoms: C_16  and  N_19
REMARK    6  A    between atoms: N_27  and  C_28
REMARK                            x       y       z     vdW  Elec       q    Type
REMARK                         _______ _______ _______ _____ _____    ______ ____
ROOT
ATOM      1  C   UNL     1      -8.232  -0.073 126.692  0.00  0.00    +0.000 A 
ATOM      2  C   UNL     1      -7.759   0.481 127.879  0.00  0.00    +0.000 A 
ATOM      3  C   UNL     1      -7.089  -0.514 128.630  0.00  0.00    +0.000 A 
ATOM      4  C   UNL     1      -6.477  -0.564 129.871  0.00  0.00    +0.000 A 
ATOM      5  N   UNL     1      -5.939  -1.714 130.311  0.00  0.00    +0.000 NA
ATOM      6  C   UNL     1      -6.002  -2.825 129.558  0.00  0.00    +0.000 A 
ATOM      7  N   UNL     1      -5.386  -3.974 130.082  0.00  0.00    +0.000 N 
ATOM      8  N   UNL     1      -6.549  -2.868 128.306  0.00  0.00    +0.000 NA
ATOM      9  C   UNL     1      -7.084  -1.683 127.890  0.00  0.00    +0.000 A 
ATOM     10  N   UNL     1      -7.731  -1.389 126.684  0.00  0.00    +0.000 N 
ATOM     11  H   UNL     1      -5.367  -4.759 129.457  0.00  0.00    +0.000 HD
ENDROOT
BRANCH   7  12
ATOM     12  C   UNL     1      -4.763  -4.127 131.340  0.00  0.00    +0.000 A 
ATOM     13  C   UNL     1      -5.274  -5.058 132.246  0.00  0.00    +0.000 A 
ATOM     14  C   UNL     1      -4.607  -5.312 133.462  0.00  0.00    +0.000 A 
ATOM     15  C   UNL     1      -3.455  -4.615 133.818  0.00  0.00    +0.000 A 
ATOM     16  C   UNL     1      -3.056  -3.665 132.879  0.00  0.00    +0.000 A 
ATOM     17  N   UNL     1      -3.662  -3.416 131.672  0.00  0.00    +0.000 NA
BRANCH  15  18
ATOM     18  N   UNL     1      -2.768  -4.906 134.973  0.00  0.00    +0.000 N 
ATOM     19  C   UNL     1      -2.695  -6.280 135.490  0.00  0.00    +0.000 C 
ATOM     20  C   UNL     1      -1.208  -6.662 135.704  0.00  0.00    +0.000 C 
ATOM     21  N   UNL     1      -0.498  -5.727 136.603  0.00  0.00    +0.000 NA
ATOM     22  C   UNL     1      -0.620  -4.353 136.064  0.00  0.00    +0.000 C 
ATOM     23  C   UNL     1      -2.086  -3.918 135.818  0.00  0.00    +0.000 C 
ATOM     24  H   UNL     1       0.488  -5.985 136.647  0.00  0.00    +0.000 HD
ENDBRANCH  15  18
ENDBRANCH   7  12
BRANCH   1  28
ATOM     25  C   UNL     1      -9.111   2.299 123.795  0.00  0.00    +0.000 C 
ATOM     26  N   UNL     1      -8.321   1.567 124.773  0.00  0.00    +0.000 N 
ATOM     27  C   UNL     1      -6.896   1.774 124.677  0.00  0.00    +0.000 C 
ATOM     28  C   UNL     1      -8.965   0.682 125.653  0.00  0.00    +0.000 C 
ATOM     29  O   UNL     1     -10.188   0.494 125.518  0.00  0.00    +0.000 OA
ENDBRANCH   1  28
BRANCH  10  30
ATOM     30  C   UNL     1      -7.997  -2.332 125.622  0.00  0.00    +0.000 C 
ATOM     31  C   UNL     1      -9.413  -2.778 125.295  0.00  0.00    +0.000 C 
ATOM     32  C   UNL     1      -9.244  -3.439 123.919  0.00  0.00    +0.000 C 
ATOM     33  C   UNL     1      -8.070  -2.742 123.233  0.00  0.00    +0.000 C 
ATOM     34  C   UNL     1      -7.476  -1.816 124.273  0.00  0.00    +0.000 C 
ENDBRANCH  10  30
TORSDOF 4
ENDMDL
MODEL 9
REMARK VINA RESULT:      -7.3      6.486      8.090
REMARK  Name = Ribociclib
REMARK  6 active torsions:
REMARK  status: ('A' for Active; 'I' for Inactive)
REMARK    1  A    between atoms: C_1  and  N_2
REMARK    2  A    between atoms: N_2  and  C_3
REMARK    3  A    between atoms: C_4  and  C_6
REMARK    4  A    between atoms: N_12  and  C_13
REMARK    5  A    between atoms: C_16  and  N_19
REMARK    6  A    between atoms: N_27  and  C_28
REMARK                            x       y       z     vdW  Elec       q    Type
REMARK                         _______ _______ _______ _____ _____    ______ ____
ROOT
ATOM      1  C   UNL     1      -8.750   0.797 125.936  0.00  0.00    +0.000 A 
ATOM      2  C   UNL     1      -8.739   1.520 127.127  0.00  0.00    +0.000 A 
ATOM      3  C   UNL     1      -8.240   0.704 128.170  0.00  0.00    +0.000 A 
ATOM      4  C   UNL     1      -8.051   0.856 129.533  0.00  0.00    +0.000 A 
ATOM      5  N   UNL     1      -7.561  -0.159 130.263  0.00  0.00    +0.000 NA
ATOM      6  C   UNL     1      -7.264  -1.333 129.680  0.00  0.00    +0.000 A 
ATOM      7  N   UNL     1      -6.727  -2.330 130.513  0.00  0.00    +0.000 N 
ATOM      8  N   UNL     1      -7.379  -1.569 128.339  0.00  0.00    +0.000 NA
ATOM      9  C   UNL     1      -7.877  -0.516 127.627  0.00  0.00    +0.000 A 
ATOM     10  N   UNL     1      -8.136  -0.429 126.254  0.00  0.00    +0.000 N 
ATOM     11  H   UNL     1      -6.428  -3.158 130.032  0.00  0.00    +0.000 HD
ENDROOT
BRANCH   7  12
ATOM     12  C   UNL     1      -6.522  -2.276 131.909  0.00  0.00    +0.000 A 
ATOM     13  C   UNL     1      -7.538  -2.704 132.765  0.00  0.00    +0.000 A 
ATOM     14  C   UNL     1      -7.320  -2.767 134.156  0.00  0.00    +0.000 A 
ATOM     15  C   UNL     1      -6.114  -2.362 134.722  0.00  0.00    +0.000 A 
ATOM     16  C   UNL     1      -5.184  -1.896 133.796  0.00  0.00    +0.000 A 
ATOM     17  N   UNL     1      -5.350  -1.851 132.433  0.00  0.00    +0.000 NA
BRANCH  15  18
ATOM     18  N   UNL     1      -5.878  -2.484 136.071  0.00  0.00    +0.000 N 
ATOM     19  C   UNL     1      -6.091  -1.356 136.987  0.00  0.00    +0.000 C 
ATOM     20  C   UNL     1      -7.032  -1.804 138.135  0.00  0.00    +0.000 C 
ATOM     21  N   UNL     1      -6.521  -2.983 138.868  0.00  0.00    +0.000 NA
ATOM     22  C   UNL     1      -6.292  -4.087 137.908  0.00  0.00    +0.000 C 
ATOM     23  C   UNL     1      -5.367  -3.693 136.729  0.00  0.00    +0.000 C 
ATOM     24  H   UNL     1      -7.212  -3.276 139.558  0.00  0.00    +0.000 HD
ENDBRANCH  15  18
ENDBRANCH   7  12
BRANCH   1  28
ATOM     25  C   UNL     1      -8.841   2.582 122.531  0.00  0.00    +0.000 C 
ATOM     26  N   UNL     1      -8.328   2.049 123.784  0.00  0.00    +0.000 N 
ATOM     27  C   UNL     1      -6.913   2.242 123.990  0.00  0.00    +0.000 C 
ATOM     28  C   UNL     1      -9.193   1.341 124.635  0.00  0.00    +0.000 C 
ATOM     29  O   UNL     1     -10.358   1.125 124.252  0.00  0.00    +0.000 OA
ENDBRANCH   1  28
BRANCH  10  30
ATOM     30  C   UNL     1      -7.950  -1.494 125.296  0.00  0.00    +0.000 C 
ATOM     31  C   UNL     1      -6.656  -2.290 125.237  0.00  0.00    +0.000 C 
ATOM     32  C   UNL     1      -7.048  -3.502 124.379  0.00  0.00    +0.000 C 
ATOM     33  C   UNL     1      -8.539  -3.745 124.612  0.00  0.00    +0.000 C 
ATOM     34  C   UNL     1      -9.019  -2.585 125.457  0.00  0.00    +0.000 C 
ENDBRANCH  10  30
TORSDOF 4
ENDMDL
