MODEL 1
REMARK VINA RESULT:      -9.9      0.000      0.000
REMARK  Name = Rifamycin
REMARK  17 active torsions:
REMARK  status: ('A' for Active; 'I' for Inactive)
REMARK    1  A    between atoms: C_1  and  O_2
REMARK    2  A    between atoms: O_2  and  C_3
REMARK    3  A    between atoms: C_7  and  C_8
REMARK    4  A    between atoms: C_11  and  C_12
REMARK    5  A    between atoms: C_13  and  O_14
REMARK    6  A    between atoms: C_16  and  O_17
REMARK    7  A    between atoms: C_22  and  C_23
REMARK    8  A    between atoms: C_27  and  C_28
REMARK    9  A    between atoms: C_29  and  O_30
REMARK   10  A    between atoms: C_31  and  C_32
REMARK   11  A    between atoms: C_33  and  O_34
REMARK   12  A    between atoms: C_35  and  C_36
REMARK   13  A    between atoms: C_37  and  O_38
REMARK   14  A    between atoms: O_38  and  C_39
REMARK   15  A    between atoms: C_39  and  C_40
REMARK   16  A    between atoms: C_42  and  C_43
REMARK   17  A    between atoms: C_45  and  O_46
REMARK                            x       y       z     vdW  Elec       q    Type
REMARK                         _______ _______ _______ _____ _____    ______ ____
ROOT
ATOM      1  C   UNL     1      -4.692   3.785 126.389  0.00  0.00    +0.000 C 
ATOM      2  C   UNL     1      -5.735   3.885 125.351  0.00  0.00    +0.000 C 
ATOM      3  C   UNL     1      -5.741   3.185 124.227  0.00  0.00    +0.000 C 
ATOM      4  O   UNL     1      -6.819   3.229 123.404  0.00  0.00    +0.000 OA
ATOM      5  C   UNL     1      -7.730   2.202 123.804  0.00  0.00    +0.000 C 
ATOM      6  C   UNL     1      -8.895   2.315 122.849  0.00  0.00    +0.000 C 
ATOM      7  O   UNL     1      -7.144   0.890 123.659  0.00  0.00    +0.000 OA
ATOM      8  C   UNL     1      -7.100   0.345 124.920  0.00  0.00    +0.000 A 
ATOM      9  C   UNL     1      -6.385  -0.814 125.170  0.00  0.00    +0.000 A 
ATOM     10  C   UNL     1      -5.638  -1.519 124.080  0.00  0.00    +0.000 C 
ATOM     11  C   UNL     1      -6.360  -1.257 126.494  0.00  0.00    +0.000 A 
ATOM     12  C   UNL     1      -7.020  -0.568 127.561  0.00  0.00    +0.000 A 
ATOM     13  C   UNL     1      -6.866  -0.954 128.922  0.00  0.00    +0.000 A 
ATOM     14  C   UNL     1      -7.492  -0.275 129.974  0.00  0.00    +0.000 A 
ATOM     15  N   UNL     1      -7.382  -0.630 131.334  0.00  0.00    +0.000 N 
ATOM     16  C   UNL     1      -7.166  -1.898 131.835  0.00  0.00    +0.000 C 
ATOM     17  O   UNL     1      -7.160  -2.951 131.206  0.00  0.00    +0.000 OA
ATOM     18  C   UNL     1      -7.177  -1.966 133.335  0.00  0.00    +0.000 C 
ATOM     19  C   UNL     1      -7.876  -3.184 133.876  0.00  0.00    +0.000 C 
ATOM     20  C   UNL     1      -6.628  -1.080 134.187  0.00  0.00    +0.000 C 
ATOM     21  C   UNL     1      -5.897   0.126 133.877  0.00  0.00    +0.000 C 
ATOM     22  C   UNL     1      -5.637   1.051 134.814  0.00  0.00    +0.000 C 
ATOM     23  C   UNL     1      -5.097   2.453 134.593  0.00  0.00    +0.000 C 
ATOM     24  C   UNL     1      -6.208   3.409 135.063  0.00  0.00    +0.000 C 
ATOM     25  C   UNL     1      -4.639   2.773 133.141  0.00  0.00    +0.000 C 
ATOM     26  C   UNL     1      -4.339   4.272 132.866  0.00  0.00    +0.000 C 
ATOM     27  C   UNL     1      -3.326   4.846 133.863  0.00  0.00    +0.000 C 
ATOM     28  C   UNL     1      -3.859   4.559 131.416  0.00  0.00    +0.000 C 
ATOM     29  C   UNL     1      -4.799   4.037 130.319  0.00  0.00    +0.000 C 
ATOM     30  C   UNL     1      -6.266   4.445 130.539  0.00  0.00    +0.000 C 
ATOM     31  C   UNL     1      -4.289   4.395 128.869  0.00  0.00    +0.000 C 
ATOM     32  C   UNL     1      -5.080   3.509 127.850  0.00  0.00    +0.000 C 
ATOM     33  C   UNL     1      -5.026   2.036 128.234  0.00  0.00    +0.000 C 
ATOM     34  C   UNL     1      -8.234   0.867 129.685  0.00  0.00    +0.000 A 
ATOM     35  C   UNL     1      -8.379   1.293 128.363  0.00  0.00    +0.000 A 
ATOM     36  C   UNL     1      -7.779   0.609 127.271  0.00  0.00    +0.000 A 
ATOM     37  C   UNL     1      -7.774   1.043 125.922  0.00  0.00    +0.000 A 
ATOM     38  C   UNL     1      -8.249   2.250 125.250  0.00  0.00    +0.000 C 
ATOM     39  O   UNL     1      -8.882   3.192 125.737  0.00  0.00    +0.000 OA
ATOM     40  H   UNL     1      -7.630   0.081 132.006  0.00  0.00    +0.000 HD
ENDROOT
BRANCH   1  42
ATOM     41  C   UNL     1      -2.304   3.687 126.570  0.00  0.00    +0.000 C 
ATOM     42  O   UNL     1      -3.457   3.315 125.848  0.00  0.00    +0.000 OA
ENDBRANCH   1  42
BRANCH  11  43
ATOM     43  O   UNL     1      -5.642  -2.391 126.817  0.00  0.00    +0.000 OA
ATOM     44  H   UNL     1      -6.029  -3.177 126.396  0.00  0.00    +0.000 HD
ENDBRANCH  11  43
BRANCH  13  45
ATOM     45  O   UNL     1      -5.926  -1.903 129.256  0.00  0.00    +0.000 OA
ATOM     46  H   UNL     1      -5.240  -1.908 128.561  0.00  0.00    +0.000 HD
ENDBRANCH  13  45
BRANCH  25  47
ATOM     47  O   UNL     1      -3.491   1.989 132.791  0.00  0.00    +0.000 OA
ATOM     48  H   UNL     1      -3.713   1.475 131.993  0.00  0.00    +0.000 HD
ENDBRANCH  25  47
BRANCH  28  49
ATOM     49  O   UNL     1      -2.573   3.962 131.208  0.00  0.00    +0.000 OA
ATOM     50  H   UNL     1      -1.961   4.693 130.973  0.00  0.00    +0.000 HD
ENDBRANCH  28  49
BRANCH  35  51
ATOM     51  O   UNL     1      -9.101   2.427 128.137  0.00  0.00    +0.000 OA
ATOM     52  H   UNL     1      -8.980   3.090 128.833  0.00  0.00    +0.000 HD
ENDBRANCH  35  51
BRANCH  31  53
ATOM     53  O   UNL     1      -4.524   5.836 128.649  0.00  0.00    +0.000 OA
BRANCH  53  54
ATOM     54  C   UNL     1      -3.693   6.911 128.783  0.00  0.00    +0.000 C 
ATOM     55  C   UNL     1      -2.263   6.838 128.293  0.00  0.00    +0.000 C 
ATOM     56  O   UNL     1      -4.138   7.975 129.212  0.00  0.00    +0.000 OA
ENDBRANCH  53  54
ENDBRANCH  31  53
TORSDOF 8
ENDMDL
MODEL 2
REMARK VINA RESULT:      -9.5      2.588      8.436
REMARK  Name = Rifamycin
REMARK  17 active torsions:
REMARK  status: ('A' for Active; 'I' for Inactive)
REMARK    1  A    between atoms: C_1  and  O_2
REMARK    2  A    between atoms: O_2  and  C_3
REMARK    3  A    between atoms: C_7  and  C_8
REMARK    4  A    between atoms: C_11  and  C_12
REMARK    5  A    between atoms: C_13  and  O_14
REMARK    6  A    between atoms: C_16  and  O_17
REMARK    7  A    between atoms: C_22  and  C_23
REMARK    8  A    between atoms: C_27  and  C_28
REMARK    9  A    between atoms: C_29  and  O_30
REMARK   10  A    between atoms: C_31  and  C_32
REMARK   11  A    between atoms: C_33  and  O_34
REMARK   12  A    between atoms: C_35  and  C_36
REMARK   13  A    between atoms: C_37  and  O_38
REMARK   14  A    between atoms: O_38  and  C_39
REMARK   15  A    between atoms: C_39  and  C_40
REMARK   16  A    between atoms: C_42  and  C_43
REMARK   17  A    between atoms: C_45  and  O_46
REMARK                            x       y       z     vdW  Elec       q    Type
REMARK                         _______ _______ _______ _____ _____    ______ ____
ROOT
ATOM      1  C   UNL     1      -5.098   1.595 134.004  0.00  0.00    +0.000 C 
ATOM      2  C   UNL     1      -5.768   2.586 134.866  0.00  0.00    +0.000 C 
ATOM      3  C   UNL     1      -5.357   3.835 135.027  0.00  0.00    +0.000 C 
ATOM      4  O   UNL     1      -6.123   4.718 135.717  0.00  0.00    +0.000 OA
ATOM      5  C   UNL     1      -7.016   5.351 134.798  0.00  0.00    +0.000 C 
ATOM      6  C   UNL     1      -7.829   6.311 135.634  0.00  0.00    +0.000 C 
ATOM      7  O   UNL     1      -6.297   6.108 133.799  0.00  0.00    +0.000 OA
ATOM      8  C   UNL     1      -6.602   5.534 132.588  0.00  0.00    +0.000 A 
ATOM      9  C   UNL     1      -5.899   5.874 131.444  0.00  0.00    +0.000 A 
ATOM     10  C   UNL     1      -4.787   6.877 131.481  0.00  0.00    +0.000 C 
ATOM     11  C   UNL     1      -6.250   5.197 130.274  0.00  0.00    +0.000 A 
ATOM     12  C   UNL     1      -7.271   4.195 130.227  0.00  0.00    +0.000 A 
ATOM     13  C   UNL     1      -7.516   3.418 129.061  0.00  0.00    +0.000 A 
ATOM     14  C   UNL     1      -8.500   2.422 129.011  0.00  0.00    +0.000 A 
ATOM     15  N   UNL     1      -8.789   1.640 127.875  0.00  0.00    +0.000 N 
ATOM     16  C   UNL     1      -8.627   2.016 126.557  0.00  0.00    +0.000 C 
ATOM     17  O   UNL     1      -8.328   3.129 126.137  0.00  0.00    +0.000 OA
ATOM     18  C   UNL     1      -9.100   0.987 125.571  0.00  0.00    +0.000 C 
ATOM     19  C   UNL     1      -9.820   1.577 124.387  0.00  0.00    +0.000 C 
ATOM     20  C   UNL     1      -8.929  -0.346 125.650  0.00  0.00    +0.000 C 
ATOM     21  C   UNL     1      -8.251  -1.102 126.675  0.00  0.00    +0.000 C 
ATOM     22  C   UNL     1      -8.383  -2.434 126.770  0.00  0.00    +0.000 C 
ATOM     23  C   UNL     1      -7.930  -3.322 127.916  0.00  0.00    +0.000 C 
ATOM     24  C   UNL     1      -9.214  -3.930 128.507  0.00  0.00    +0.000 C 
ATOM     25  C   UNL     1      -7.072  -2.620 129.007  0.00  0.00    +0.000 C 
ATOM     26  C   UNL     1      -6.837  -3.457 130.294  0.00  0.00    +0.000 C 
ATOM     27  C   UNL     1      -6.245  -4.836 129.981  0.00  0.00    +0.000 C 
ATOM     28  C   UNL     1      -5.956  -2.743 131.356  0.00  0.00    +0.000 C 
ATOM     29  C   UNL     1      -6.454  -1.347 131.762  0.00  0.00    +0.000 C 
ATOM     30  C   UNL     1      -7.947  -1.326 132.133  0.00  0.00    +0.000 C 
ATOM     31  C   UNL     1      -5.550  -0.687 132.874  0.00  0.00    +0.000 C 
ATOM     32  C   UNL     1      -5.897   0.838 132.931  0.00  0.00    +0.000 C 
ATOM     33  C   UNL     1      -5.833   1.476 131.550  0.00  0.00    +0.000 C 
ATOM     34  C   UNL     1      -9.214   2.130 130.169  0.00  0.00    +0.000 A 
ATOM     35  C   UNL     1      -8.976   2.851 131.341  0.00  0.00    +0.000 A 
ATOM     36  C   UNL     1      -8.004   3.887 131.415  0.00  0.00    +0.000 A 
ATOM     37  C   UNL     1      -7.616   4.578 132.590  0.00  0.00    +0.000 A 
ATOM     38  C   UNL     1      -7.964   4.439 134.002  0.00  0.00    +0.000 C 
ATOM     39  O   UNL     1      -8.801   3.685 134.508  0.00  0.00    +0.000 OA
ATOM     40  H   UNL     1      -9.299   0.783 128.037  0.00  0.00    +0.000 HD
ENDROOT
BRANCH   1  42
ATOM     41  C   UNL     1      -2.856   0.800 133.707  0.00  0.00    +0.000 C 
ATOM     42  O   UNL     1      -3.718   1.911 133.815  0.00  0.00    +0.000 OA
ENDBRANCH   1  42
BRANCH  11  43
ATOM     43  O   UNL     1      -5.569   5.467 129.104  0.00  0.00    +0.000 OA
ATOM     44  H   UNL     1      -5.485   4.666 128.559  0.00  0.00    +0.000 HD
ENDBRANCH  11  43
BRANCH  13  45
ATOM     45  O   UNL     1      -6.646   3.497 127.997  0.00  0.00    +0.000 OA
ATOM     46  H   UNL     1      -5.801   3.087 128.264  0.00  0.00    +0.000 HD
ENDBRANCH  13  45
BRANCH  25  47
ATOM     47  O   UNL     1      -5.805  -2.216 128.469  0.00  0.00    +0.000 OA
ATOM     48  H   UNL     1      -5.610  -1.322 128.805  0.00  0.00    +0.000 HD
ENDBRANCH  25  47
BRANCH  28  49
ATOM     49  O   UNL     1      -4.621  -2.601 130.855  0.00  0.00    +0.000 OA
ATOM     50  H   UNL     1      -4.573  -1.712 130.439  0.00  0.00    +0.000 HD
ENDBRANCH  28  49
BRANCH  35  51
ATOM     51  O   UNL     1      -9.691   2.513 132.451  0.00  0.00    +0.000 OA
ATOM     52  H   UNL     1     -10.615   2.797 132.400  0.00  0.00    +0.000 HD
ENDBRANCH  35  51
BRANCH  31  53
ATOM     53  O   UNL     1      -5.834  -1.369 134.153  0.00  0.00    +0.000 OA
BRANCH  53  54
ATOM     54  C   UNL     1      -5.025  -2.089 134.984  0.00  0.00    +0.000 C 
ATOM     55  C   UNL     1      -4.775  -3.559 134.723  0.00  0.00    +0.000 C 
ATOM     56  O   UNL     1      -4.420  -1.517 135.889  0.00  0.00    +0.000 OA
ENDBRANCH  53  54
ENDBRANCH  31  53
TORSDOF 8
ENDMDL
MODEL 3
REMARK VINA RESULT:      -9.5      1.314      1.703
REMARK  Name = Rifamycin
REMARK  17 active torsions:
REMARK  status: ('A' for Active; 'I' for Inactive)
REMARK    1  A    between atoms: C_1  and  O_2
REMARK    2  A    between atoms: O_2  and  C_3
REMARK    3  A    between atoms: C_7  and  C_8
REMARK    4  A    between atoms: C_11  and  C_12
REMARK    5  A    between atoms: C_13  and  O_14
REMARK    6  A    between atoms: C_16  and  O_17
REMARK    7  A    between atoms: C_22  and  C_23
REMARK    8  A    between atoms: C_27  and  C_28
REMARK    9  A    between atoms: C_29  and  O_30
REMARK   10  A    between atoms: C_31  and  C_32
REMARK   11  A    between atoms: C_33  and  O_34
REMARK   12  A    between atoms: C_35  and  C_36
REMARK   13  A    between atoms: C_37  and  O_38
REMARK   14  A    between atoms: O_38  and  C_39
REMARK   15  A    between atoms: C_39  and  C_40
REMARK   16  A    between atoms: C_42  and  C_43
REMARK   17  A    between atoms: C_45  and  O_46
REMARK                            x       y       z     vdW  Elec       q    Type
REMARK                         _______ _______ _______ _____ _____    ______ ____
ROOT
ATOM      1  C   UNL     1      -4.757   3.144 127.377  0.00  0.00    +0.000 C 
ATOM      2  C   UNL     1      -5.900   3.021 126.455  0.00  0.00    +0.000 C 
ATOM      3  C   UNL     1      -5.971   2.143 125.465  0.00  0.00    +0.000 C 
ATOM      4  O   UNL     1      -7.125   2.000 124.766  0.00  0.00    +0.000 OA
ATOM      5  C   UNL     1      -7.926   1.013 125.421  0.00  0.00    +0.000 C 
ATOM      6  C   UNL     1      -9.184   0.911 124.590  0.00  0.00    +0.000 C 
ATOM      7  O   UNL     1      -7.276  -0.276 125.428  0.00  0.00    +0.000 OA
ATOM      8  C   UNL     1      -7.075  -0.600 126.749  0.00  0.00    +0.000 A 
ATOM      9  C   UNL     1      -6.268  -1.667 127.104  0.00  0.00    +0.000 A 
ATOM     10  C   UNL     1      -5.587  -2.509 126.069  0.00  0.00    +0.000 C 
ATOM     11  C   UNL     1      -6.086  -1.881 128.472  0.00  0.00    +0.000 A 
ATOM     12  C   UNL     1      -6.681  -1.054 129.478  0.00  0.00    +0.000 A 
ATOM     13  C   UNL     1      -6.371  -1.201 130.859  0.00  0.00    +0.000 A 
ATOM     14  C   UNL     1      -6.933  -0.385 131.849  0.00  0.00    +0.000 A 
ATOM     15  N   UNL     1      -6.668  -0.503 133.228  0.00  0.00    +0.000 N 
ATOM     16  C   UNL     1      -6.326  -1.658 133.902  0.00  0.00    +0.000 C 
ATOM     17  O   UNL     1      -6.315  -2.800 133.454  0.00  0.00    +0.000 OA
ATOM     18  C   UNL     1      -6.186  -1.475 135.385  0.00  0.00    +0.000 C 
ATOM     19  C   UNL     1      -6.751  -2.617 136.187  0.00  0.00    +0.000 C 
ATOM     20  C   UNL     1      -5.613  -0.435 136.020  0.00  0.00    +0.000 C 
ATOM     21  C   UNL     1      -4.994   0.735 135.444  0.00  0.00    +0.000 C 
ATOM     22  C   UNL     1      -4.702   1.814 136.186  0.00  0.00    +0.000 C 
ATOM     23  C   UNL     1      -4.275   3.183 135.686  0.00  0.00    +0.000 C 
ATOM     24  C   UNL     1      -5.393   4.152 136.111  0.00  0.00    +0.000 C 
ATOM     25  C   UNL     1      -3.982   3.277 134.160  0.00  0.00    +0.000 C 
ATOM     26  C   UNL     1      -3.805   4.721 133.616  0.00  0.00    +0.000 C 
ATOM     27  C   UNL     1      -2.738   5.500 134.394  0.00  0.00    +0.000 C 
ATOM     28  C   UNL     1      -3.488   4.784 132.097  0.00  0.00    +0.000 C 
ATOM     29  C   UNL     1      -4.496   4.043 131.204  0.00  0.00    +0.000 C 
ATOM     30  C   UNL     1      -5.957   4.414 131.511  0.00  0.00    +0.000 C 
ATOM     31  C   UNL     1      -4.153   4.177 129.670  0.00  0.00    +0.000 C 
ATOM     32  C   UNL     1      -4.982   3.098 128.897  0.00  0.00    +0.000 C 
ATOM     33  C   UNL     1      -4.799   1.714 129.506  0.00  0.00    +0.000 C 
ATOM     34  C   UNL     1      -7.770   0.657 131.460  0.00  0.00    +0.000 A 
ATOM     35  C   UNL     1      -8.070   0.850 130.110  0.00  0.00    +0.000 A 
ATOM     36  C   UNL     1      -7.537   0.021 129.084  0.00  0.00    +0.000 A 
ATOM     37  C   UNL     1      -7.691   0.224 127.690  0.00  0.00    +0.000 A 
ATOM     38  C   UNL     1      -8.304   1.278 126.887  0.00  0.00    +0.000 C 
ATOM     39  O   UNL     1      -8.945   2.258 127.280  0.00  0.00    +0.000 OA
ATOM     40  H   UNL     1      -6.894   0.298 133.800  0.00  0.00    +0.000 HD
ENDROOT
BRANCH   1  42
ATOM     41  C   UNL     1      -2.621   3.633 126.404  0.00  0.00    +0.000 C 
ATOM     42  O   UNL     1      -3.553   2.647 126.791  0.00  0.00    +0.000 OA
ENDBRANCH   1  42
BRANCH  11  43
ATOM     43  O   UNL     1      -5.270  -2.911 128.895  0.00  0.00    +0.000 OA
ATOM     44  H   UNL     1      -5.462  -3.728 128.405  0.00  0.00    +0.000 HD
ENDBRANCH  11  43
BRANCH  13  45
ATOM     45  O   UNL     1      -5.345  -2.036 131.240  0.00  0.00    +0.000 OA
ATOM     46  H   UNL     1      -5.656  -2.958 131.155  0.00  0.00    +0.000 HD
ENDBRANCH  13  45
BRANCH  25  47
ATOM     47  O   UNL     1      -2.826   2.499 133.821  0.00  0.00    +0.000 OA
ATOM     48  H   UNL     1      -2.551   2.011 134.619  0.00  0.00    +0.000 HD
ENDBRANCH  25  47
BRANCH  28  49
ATOM     49  O   UNL     1      -2.194   4.220 131.852  0.00  0.00    +0.000 OA
ATOM     50  H   UNL     1      -2.285   3.647 131.060  0.00  0.00    +0.000 HD
ENDBRANCH  28  49
BRANCH  35  51
ATOM     51  O   UNL     1      -8.880   1.895 129.782  0.00  0.00    +0.000 OA
ATOM     52  H   UNL     1      -8.691   2.252 128.902  0.00  0.00    +0.000 HD
ENDBRANCH  35  51
BRANCH  31  53
ATOM     53  O   UNL     1      -4.499   5.549 129.247  0.00  0.00    +0.000 OA
BRANCH  53  54
ATOM     54  C   UNL     1      -3.717   6.651 129.052  0.00  0.00    +0.000 C 
ATOM     55  C   UNL     1      -2.253   6.497 128.697  0.00  0.00    +0.000 C 
ATOM     56  O   UNL     1      -4.227   7.770 129.067  0.00  0.00    +0.000 OA
ENDBRANCH  53  54
ENDBRANCH  31  53
TORSDOF 8
ENDMDL
MODEL 4
REMARK VINA RESULT:      -9.1      2.163      8.895
REMARK  Name = Rifamycin
REMARK  17 active torsions:
REMARK  status: ('A' for Active; 'I' for Inactive)
REMARK    1  A    between atoms: C_1  and  O_2
REMARK    2  A    between atoms: O_2  and  C_3
REMARK    3  A    between atoms: C_7  and  C_8
REMARK    4  A    between atoms: C_11  and  C_12
REMARK    5  A    between atoms: C_13  and  O_14
REMARK    6  A    between atoms: C_16  and  O_17
REMARK    7  A    between atoms: C_22  and  C_23
REMARK    8  A    between atoms: C_27  and  C_28
REMARK    9  A    between atoms: C_29  and  O_30
REMARK   10  A    between atoms: C_31  and  C_32
REMARK   11  A    between atoms: C_33  and  O_34
REMARK   12  A    between atoms: C_35  and  C_36
REMARK   13  A    between atoms: C_37  and  O_38
REMARK   14  A    between atoms: O_38  and  C_39
REMARK   15  A    between atoms: C_39  and  C_40
REMARK   16  A    between atoms: C_42  and  C_43
REMARK   17  A    between atoms: C_45  and  O_46
REMARK                            x       y       z     vdW  Elec       q    Type
REMARK                         _______ _______ _______ _____ _____    ______ ____
ROOT
ATOM      1  C   UNL     1      -5.601   0.778 133.654  0.00  0.00    +0.000 C 
ATOM      2  C   UNL     1      -6.012   1.880 134.543  0.00  0.00    +0.000 C 
ATOM      3  C   UNL     1      -5.172   2.704 135.150  0.00  0.00    +0.000 C 
ATOM      4  O   UNL     1      -5.645   3.782 135.825  0.00  0.00    +0.000 OA
ATOM      5  C   UNL     1      -5.734   4.878 134.912  0.00  0.00    +0.000 C 
ATOM      6  C   UNL     1      -6.266   6.032 135.730  0.00  0.00    +0.000 C 
ATOM      7  O   UNL     1      -4.435   5.243 134.396  0.00  0.00    +0.000 OA
ATOM      8  C   UNL     1      -4.489   5.040 133.037  0.00  0.00    +0.000 A 
ATOM      9  C   UNL     1      -3.339   5.075 132.267  0.00  0.00    +0.000 A 
ATOM     10  C   UNL     1      -1.997   5.336 132.880  0.00  0.00    +0.000 C 
ATOM     11  C   UNL     1      -3.493   4.805 130.906  0.00  0.00    +0.000 A 
ATOM     12  C   UNL     1      -4.757   4.498 130.308  0.00  0.00    +0.000 A 
ATOM     13  C   UNL     1      -4.873   4.088 128.951  0.00  0.00    +0.000 A 
ATOM     14  C   UNL     1      -6.103   3.766 128.362  0.00  0.00    +0.000 A 
ATOM     15  N   UNL     1      -6.268   3.371 127.020  0.00  0.00    +0.000 N 
ATOM     16  C   UNL     1      -5.473   3.738 125.953  0.00  0.00    +0.000 C 
ATOM     17  O   UNL     1      -4.567   4.566 125.956  0.00  0.00    +0.000 OA
ATOM     18  C   UNL     1      -5.955   3.217 124.630  0.00  0.00    +0.000 C 
ATOM     19  C   UNL     1      -5.825   4.212 123.509  0.00  0.00    +0.000 C 
ATOM     20  C   UNL     1      -6.454   1.992 124.379  0.00  0.00    +0.000 C 
ATOM     21  C   UNL     1      -6.635   0.893 125.297  0.00  0.00    +0.000 C 
ATOM     22  C   UNL     1      -7.384  -0.174 124.978  0.00  0.00    +0.000 C 
ATOM     23  C   UNL     1      -7.852  -1.278 125.910  0.00  0.00    +0.000 C 
ATOM     24  C   UNL     1      -9.387  -1.179 125.939  0.00  0.00    +0.000 C 
ATOM     25  C   UNL     1      -7.247  -1.245 127.344  0.00  0.00    +0.000 C 
ATOM     26  C   UNL     1      -7.921  -2.206 128.360  0.00  0.00    +0.000 C 
ATOM     27  C   UNL     1      -7.954  -3.651 127.848  0.00  0.00    +0.000 C 
ATOM     28  C   UNL     1      -7.281  -2.172 129.775  0.00  0.00    +0.000 C 
ATOM     29  C   UNL     1      -7.198  -0.772 130.403  0.00  0.00    +0.000 C 
ATOM     30  C   UNL     1      -8.533  -0.009 130.348  0.00  0.00    +0.000 C 
ATOM     31  C   UNL     1      -6.583  -0.800 131.856  0.00  0.00    +0.000 C 
ATOM     32  C   UNL     1      -6.190   0.665 132.239  0.00  0.00    +0.000 C 
ATOM     33  C   UNL     1      -5.330   1.311 131.160  0.00  0.00    +0.000 C 
ATOM     34  C   UNL     1      -7.246   3.777 129.156  0.00  0.00    +0.000 A 
ATOM     35  C   UNL     1      -7.163   4.143 130.501  0.00  0.00    +0.000 A 
ATOM     36  C   UNL     1      -5.934   4.501 131.120  0.00  0.00    +0.000 A 
ATOM     37  C   UNL     1      -5.745   4.763 132.500  0.00  0.00    +0.000 A 
ATOM     38  C   UNL     1      -6.618   4.686 133.668  0.00  0.00    +0.000 C 
ATOM     39  O   UNL     1      -7.827   4.436 133.700  0.00  0.00    +0.000 OA
ATOM     40  H   UNL     1      -7.131   2.898 126.793  0.00  0.00    +0.000 HD
ENDROOT
BRANCH   1  42
ATOM     41  C   UNL     1      -4.177  -0.888 134.626  0.00  0.00    +0.000 C 
ATOM     42  O   UNL     1      -4.271   0.341 133.940  0.00  0.00    +0.000 OA
ENDBRANCH   1  42
BRANCH  11  43
ATOM     43  O   UNL     1      -2.382   4.795 130.086  0.00  0.00    +0.000 OA
ATOM     44  H   UNL     1      -2.547   5.301 129.273  0.00  0.00    +0.000 HD
ENDBRANCH  11  43
BRANCH  13  45
ATOM     45  O   UNL     1      -3.736   3.806 128.227  0.00  0.00    +0.000 OA
ATOM     46  H   UNL     1      -3.022   3.588 128.856  0.00  0.00    +0.000 HD
ENDBRANCH  13  45
BRANCH  25  47
ATOM     47  O   UNL     1      -5.839  -1.513 127.301  0.00  0.00    +0.000 OA
ATOM     48  H   UNL     1      -5.371  -0.671 127.451  0.00  0.00    +0.000 HD
ENDBRANCH  25  47
BRANCH  28  49
ATOM     49  O   UNL     1      -5.951  -2.701 129.713  0.00  0.00    +0.000 OA
ATOM     50  H   UNL     1      -5.372  -1.964 129.417  0.00  0.00    +0.000 HD
ENDBRANCH  28  49
BRANCH  35  51
ATOM     51  O   UNL     1      -8.310   4.119 131.238  0.00  0.00    +0.000 OA
ATOM     52  H   UNL     1      -9.045   4.572 130.797  0.00  0.00    +0.000 HD
ENDBRANCH  35  51
BRANCH  31  53
ATOM     53  O   UNL     1      -7.602  -1.357 132.769  0.00  0.00    +0.000 OA
BRANCH  53  54
ATOM     54  C   UNL     1      -7.605  -2.496 133.521  0.00  0.00    +0.000 C 
ATOM     55  C   UNL     1      -6.710  -3.660 133.151  0.00  0.00    +0.000 C 
ATOM     56  O   UNL     1      -8.262  -2.538 134.560  0.00  0.00    +0.000 OA
ENDBRANCH  53  54
ENDBRANCH  31  53
TORSDOF 8
ENDMDL
MODEL 5
REMARK VINA RESULT:      -8.9      2.261      8.800
REMARK  Name = Rifamycin
REMARK  17 active torsions:
REMARK  status: ('A' for Active; 'I' for Inactive)
REMARK    1  A    between atoms: C_1  and  O_2
REMARK    2  A    between atoms: O_2  and  C_3
REMARK    3  A    between atoms: C_7  and  C_8
REMARK    4  A    between atoms: C_11  and  C_12
REMARK    5  A    between atoms: C_13  and  O_14
REMARK    6  A    between atoms: C_16  and  O_17
REMARK    7  A    between atoms: C_22  and  C_23
REMARK    8  A    between atoms: C_27  and  C_28
REMARK    9  A    between atoms: C_29  and  O_30
REMARK   10  A    between atoms: C_31  and  C_32
REMARK   11  A    between atoms: C_33  and  O_34
REMARK   12  A    between atoms: C_35  and  C_36
REMARK   13  A    between atoms: C_37  and  O_38
REMARK   14  A    between atoms: O_38  and  C_39
REMARK   15  A    between atoms: C_39  and  C_40
REMARK   16  A    between atoms: C_42  and  C_43
REMARK   17  A    between atoms: C_45  and  O_46
REMARK                            x       y       z     vdW  Elec       q    Type
REMARK                         _______ _______ _______ _____ _____    ______ ____
ROOT
ATOM      1  C   UNL     1      -5.491   0.709 131.162  0.00  0.00    +0.000 C 
ATOM      2  C   UNL     1      -6.018   1.730 132.086  0.00  0.00    +0.000 C 
ATOM      3  C   UNL     1      -5.273   2.632 132.706  0.00  0.00    +0.000 C 
ATOM      4  O   UNL     1      -5.861   3.628 133.415  0.00  0.00    +0.000 OA
ATOM      5  C   UNL     1      -6.091   4.730 132.534  0.00  0.00    +0.000 C 
ATOM      6  C   UNL     1      -6.745   5.790 133.390  0.00  0.00    +0.000 C 
ATOM      7  O   UNL     1      -4.852   5.260 132.015  0.00  0.00    +0.000 OA
ATOM      8  C   UNL     1      -4.901   5.088 130.652  0.00  0.00    +0.000 A 
ATOM      9  C   UNL     1      -3.774   5.279 129.871  0.00  0.00    +0.000 A 
ATOM     10  C   UNL     1      -2.464   5.681 130.477  0.00  0.00    +0.000 C 
ATOM     11  C   UNL     1      -3.913   5.029 128.504  0.00  0.00    +0.000 A 
ATOM     12  C   UNL     1      -5.140   4.589 127.912  0.00  0.00    +0.000 A 
ATOM     13  C   UNL     1      -5.226   4.205 126.545  0.00  0.00    +0.000 A 
ATOM     14  C   UNL     1      -6.417   3.755 125.961  0.00  0.00    +0.000 A 
ATOM     15  N   UNL     1      -6.553   3.379 124.610  0.00  0.00    +0.000 N 
ATOM     16  C   UNL     1      -5.822   3.865 123.545  0.00  0.00    +0.000 C 
ATOM     17  O   UNL     1      -5.020   4.794 123.561  0.00  0.00    +0.000 OA
ATOM     18  C   UNL     1      -6.257   3.325 122.214  0.00  0.00    +0.000 C 
ATOM     19  C   UNL     1      -6.261   4.359 121.119  0.00  0.00    +0.000 C 
ATOM     20  C   UNL     1      -6.611   2.057 121.934  0.00  0.00    +0.000 C 
ATOM     21  C   UNL     1      -6.648   0.921 122.822  0.00  0.00    +0.000 C 
ATOM     22  C   UNL     1      -7.270  -0.219 122.482  0.00  0.00    +0.000 C 
ATOM     23  C   UNL     1      -7.590  -1.395 123.388  0.00  0.00    +0.000 C 
ATOM     24  C   UNL     1      -9.126  -1.479 123.436  0.00  0.00    +0.000 C 
ATOM     25  C   UNL     1      -6.974  -1.328 124.815  0.00  0.00    +0.000 C 
ATOM     26  C   UNL     1      -7.515  -2.389 125.812  0.00  0.00    +0.000 C 
ATOM     27  C   UNL     1      -7.384  -3.814 125.260  0.00  0.00    +0.000 C 
ATOM     28  C   UNL     1      -6.864  -2.316 127.221  0.00  0.00    +0.000 C 
ATOM     29  C   UNL     1      -6.939  -0.933 127.886  0.00  0.00    +0.000 C 
ATOM     30  C   UNL     1      -8.355  -0.333 127.867  0.00  0.00    +0.000 C 
ATOM     31  C   UNL     1      -6.305  -0.926 129.331  0.00  0.00    +0.000 C 
ATOM     32  C   UNL     1      -6.082   0.565 129.751  0.00  0.00    +0.000 C 
ATOM     33  C   UNL     1      -5.320   1.336 128.681  0.00  0.00    +0.000 C 
ATOM     34  C   UNL     1      -7.542   3.609 126.767  0.00  0.00    +0.000 A 
ATOM     35  C   UNL     1      -7.485   3.947 128.121  0.00  0.00    +0.000 A 
ATOM     36  C   UNL     1      -6.298   4.432 128.736  0.00  0.00    +0.000 A 
ATOM     37  C   UNL     1      -6.123   4.678 130.121  0.00  0.00    +0.000 A 
ATOM     38  C   UNL     1      -6.964   4.466 131.296  0.00  0.00    +0.000 C 
ATOM     39  O   UNL     1      -8.134   4.074 131.333  0.00  0.00    +0.000 OA
ATOM     40  H   UNL     1      -7.357   2.813 124.379  0.00  0.00    +0.000 HD
ENDROOT
BRANCH   1  42
ATOM     41  C   UNL     1      -3.866  -0.807 132.062  0.00  0.00    +0.000 C 
ATOM     42  O   UNL     1      -4.116   0.426 131.422  0.00  0.00    +0.000 OA
ENDBRANCH   1  42
BRANCH  11  43
ATOM     43  O   UNL     1      -2.821   5.173 127.673  0.00  0.00    +0.000 OA
ATOM     44  H   UNL     1      -3.035   5.742 126.915  0.00  0.00    +0.000 HD
ENDBRANCH  11  43
BRANCH  13  45
ATOM     45  O   UNL     1      -4.074   4.079 125.801  0.00  0.00    +0.000 OA
ATOM     46  H   UNL     1      -3.945   4.906 125.299  0.00  0.00    +0.000 HD
ENDBRANCH  13  45
BRANCH  25  47
ATOM     47  O   UNL     1      -5.544  -1.426 124.751  0.00  0.00    +0.000 OA
ATOM     48  H   UNL     1      -5.261  -1.074 123.887  0.00  0.00    +0.000 HD
ENDBRANCH  25  47
BRANCH  28  49
ATOM     49  O   UNL     1      -5.481  -2.681 127.130  0.00  0.00    +0.000 OA
ATOM     50  H   UNL     1      -4.972  -1.946 127.535  0.00  0.00    +0.000 HD
ENDBRANCH  28  49
BRANCH  35  51
ATOM     51  O   UNL     1      -8.610   3.767 128.868  0.00  0.00    +0.000 OA
ATOM     52  H   UNL     1      -9.130   4.580 128.960  0.00  0.00    +0.000 HD
ENDBRANCH  35  51
BRANCH  31  53
ATOM     53  O   UNL     1      -7.237  -1.625 130.239  0.00  0.00    +0.000 OA
BRANCH  53  54
ATOM     54  C   UNL     1      -7.077  -2.747 131.000  0.00  0.00    +0.000 C 
ATOM     55  C   UNL     1      -6.250  -3.907 130.488  0.00  0.00    +0.000 C 
ATOM     56  O   UNL     1      -7.524  -2.774 132.146  0.00  0.00    +0.000 OA
ENDBRANCH  53  54
ENDBRANCH  31  53
TORSDOF 8
ENDMDL
MODEL 6
REMARK VINA RESULT:      -8.8      2.418      3.922
REMARK  Name = Rifamycin
REMARK  17 active torsions:
REMARK  status: ('A' for Active; 'I' for Inactive)
REMARK    1  A    between atoms: C_1  and  O_2
REMARK    2  A    between atoms: O_2  and  C_3
REMARK    3  A    between atoms: C_7  and  C_8
REMARK    4  A    between atoms: C_11  and  C_12
REMARK    5  A    between atoms: C_13  and  O_14
REMARK    6  A    between atoms: C_16  and  O_17
REMARK    7  A    between atoms: C_22  and  C_23
REMARK    8  A    between atoms: C_27  and  C_28
REMARK    9  A    between atoms: C_29  and  O_30
REMARK   10  A    between atoms: C_31  and  C_32
REMARK   11  A    between atoms: C_33  and  O_34
REMARK   12  A    between atoms: C_35  and  C_36
REMARK   13  A    between atoms: C_37  and  O_38
REMARK   14  A    between atoms: O_38  and  C_39
REMARK   15  A    between atoms: C_39  and  C_40
REMARK   16  A    between atoms: C_42  and  C_43
REMARK   17  A    between atoms: C_45  and  O_46
REMARK                            x       y       z     vdW  Elec       q    Type
REMARK                         _______ _______ _______ _____ _____    ______ ____
ROOT
ATOM      1  C   UNL     1      -4.248   2.672 128.205  0.00  0.00    +0.000 C 
ATOM      2  C   UNL     1      -5.337   2.011 127.463  0.00  0.00    +0.000 C 
ATOM      3  C   UNL     1      -5.227   0.835 126.864  0.00  0.00    +0.000 C 
ATOM      4  O   UNL     1      -6.324   0.235 126.338  0.00  0.00    +0.000 OA
ATOM      5  C   UNL     1      -6.924  -0.573 127.353  0.00  0.00    +0.000 C 
ATOM      6  C   UNL     1      -8.130  -1.202 126.697  0.00  0.00    +0.000 C 
ATOM      7  O   UNL     1      -6.035  -1.627 127.785  0.00  0.00    +0.000 OA
ATOM      8  C   UNL     1      -5.787  -1.401 129.118  0.00  0.00    +0.000 A 
ATOM      9  C   UNL     1      -4.790  -2.095 129.783  0.00  0.00    +0.000 A 
ATOM     10  C   UNL     1      -3.949  -3.116 129.081  0.00  0.00    +0.000 C 
ATOM     11  C   UNL     1      -4.582  -1.755 131.121  0.00  0.00    +0.000 A 
ATOM     12  C   UNL     1      -5.336  -0.743 131.797  0.00  0.00    +0.000 A 
ATOM     13  C   UNL     1      -5.016  -0.314 133.115  0.00  0.00    +0.000 A 
ATOM     14  C   UNL     1      -5.735   0.690 133.777  0.00  0.00    +0.000 A 
ATOM     15  N   UNL     1      -5.465   1.136 135.086  0.00  0.00    +0.000 N 
ATOM     16  C   UNL     1      -4.910   0.393 136.108  0.00  0.00    +0.000 C 
ATOM     17  O   UNL     1      -4.672  -0.811 136.103  0.00  0.00    +0.000 OA
ATOM     18  C   UNL     1      -4.821   1.129 137.413  0.00  0.00    +0.000 C 
ATOM     19  C   UNL     1      -5.160   0.277 138.607  0.00  0.00    +0.000 C 
ATOM     20  C   UNL     1      -4.468   2.416 137.592  0.00  0.00    +0.000 C 
ATOM     21  C   UNL     1      -4.083   3.386 136.595  0.00  0.00    +0.000 C 
ATOM     22  C   UNL     1      -4.015   4.696 136.877  0.00  0.00    +0.000 C 
ATOM     23  C   UNL     1      -3.857   5.840 135.891  0.00  0.00    +0.000 C 
ATOM     24  C   UNL     1      -5.146   6.672 136.008  0.00  0.00    +0.000 C 
ATOM     25  C   UNL     1      -3.575   5.420 134.419  0.00  0.00    +0.000 C 
ATOM     26  C   UNL     1      -3.677   6.571 133.381  0.00  0.00    +0.000 C 
ATOM     27  C   UNL     1      -2.789   7.763 133.756  0.00  0.00    +0.000 C 
ATOM     28  C   UNL     1      -3.365   6.130 131.924  0.00  0.00    +0.000 C 
ATOM     29  C   UNL     1      -4.201   4.941 131.425  0.00  0.00    +0.000 C 
ATOM     30  C   UNL     1      -5.710   5.123 131.669  0.00  0.00    +0.000 C 
ATOM     31  C   UNL     1      -3.878   4.565 129.928  0.00  0.00    +0.000 C 
ATOM     32  C   UNL     1      -4.473   3.145 129.650  0.00  0.00    +0.000 C 
ATOM     33  C   UNL     1      -4.029   2.139 130.704  0.00  0.00    +0.000 C 
ATOM     34  C   UNL     1      -6.755   1.343 133.092  0.00  0.00    +0.000 A 
ATOM     35  C   UNL     1      -7.075   0.969 131.785  0.00  0.00    +0.000 A 
ATOM     36  C   UNL     1      -6.381  -0.064 131.096  0.00  0.00    +0.000 A 
ATOM     37  C   UNL     1      -6.560  -0.418 129.736  0.00  0.00    +0.000 A 
ATOM     38  C   UNL     1      -7.359   0.136 128.646  0.00  0.00    +0.000 C 
ATOM     39  O   UNL     1      -8.182   1.055 128.699  0.00  0.00    +0.000 OA
ATOM     40  H   UNL     1      -5.847   2.035 135.343  0.00  0.00    +0.000 HD
ENDROOT
BRANCH   1  42
ATOM     41  C   UNL     1      -2.226   3.167 127.016  0.00  0.00    +0.000 C 
ATOM     42  O   UNL     1      -2.965   2.226 127.763  0.00  0.00    +0.000 OA
ENDBRANCH   1  42
BRANCH  11  43
ATOM     43  O   UNL     1      -3.585  -2.389 131.835  0.00  0.00    +0.000 OA
ATOM     44  H   UNL     1      -2.771  -2.455 131.308  0.00  0.00    +0.000 HD
ENDBRANCH  11  43
BRANCH  13  45
ATOM     45  O   UNL     1      -3.850  -0.747 133.706  0.00  0.00    +0.000 OA
ATOM     46  H   UNL     1      -3.134  -0.135 133.449  0.00  0.00    +0.000 HD
ENDBRANCH  13  45
BRANCH  25  47
ATOM     47  O   UNL     1      -2.286   4.800 134.311  0.00  0.00    +0.000 OA
ATOM     48  H   UNL     1      -1.612   5.485 134.470  0.00  0.00    +0.000 HD
ENDBRANCH  25  47
BRANCH  28  49
ATOM     49  O   UNL     1      -1.984   5.765 131.818  0.00  0.00    +0.000 OA
ATOM     50  H   UNL     1      -1.479   6.436 132.329  0.00  0.00    +0.000 HD
ENDBRANCH  28  49
BRANCH  35  51
ATOM     51  O   UNL     1      -8.070   1.653 131.154  0.00  0.00    +0.000 OA
ATOM     52  H   UNL     1      -8.171   2.556 131.489  0.00  0.00    +0.000 HD
ENDBRANCH  35  51
BRANCH  31  53
ATOM     53  O   UNL     1      -4.480   5.598 129.060  0.00  0.00    +0.000 OA
BRANCH  53  54
ATOM     54  C   UNL     1      -3.961   6.303 128.013  0.00  0.00    +0.000 C 
ATOM     55  C   UNL     1      -2.593   6.943 128.124  0.00  0.00    +0.000 C 
ATOM     56  O   UNL     1      -4.565   6.335 126.942  0.00  0.00    +0.000 OA
ENDBRANCH  53  54
ENDBRANCH  31  53
TORSDOF 8
ENDMDL
MODEL 7
REMARK VINA RESULT:      -8.6      2.395      7.594
REMARK  Name = Rifamycin
REMARK  17 active torsions:
REMARK  status: ('A' for Active; 'I' for Inactive)
REMARK    1  A    between atoms: C_1  and  O_2
REMARK    2  A    between atoms: O_2  and  C_3
REMARK    3  A    between atoms: C_7  and  C_8
REMARK    4  A    between atoms: C_11  and  C_12
REMARK    5  A    between atoms: C_13  and  O_14
REMARK    6  A    between atoms: C_16  and  O_17
REMARK    7  A    between atoms: C_22  and  C_23
REMARK    8  A    between atoms: C_27  and  C_28
REMARK    9  A    between atoms: C_29  and  O_30
REMARK   10  A    between atoms: C_31  and  C_32
REMARK   11  A    between atoms: C_33  and  O_34
REMARK   12  A    between atoms: C_35  and  C_36
REMARK   13  A    between atoms: C_37  and  O_38
REMARK   14  A    between atoms: O_38  and  C_39
REMARK   15  A    between atoms: C_39  and  C_40
REMARK   16  A    between atoms: C_42  and  C_43
REMARK   17  A    between atoms: C_45  and  O_46
REMARK                            x       y       z     vdW  Elec       q    Type
REMARK                         _______ _______ _______ _____ _____    ______ ____
ROOT
ATOM      1  C   UNL     1      -4.826   1.661 132.472  0.00  0.00    +0.000 C 
ATOM      2  C   UNL     1      -3.789   0.822 133.101  0.00  0.00    +0.000 C 
ATOM      3  C   UNL     1      -3.989   0.061 134.166  0.00  0.00    +0.000 C 
ATOM      4  O   UNL     1      -3.020  -0.794 134.581  0.00  0.00    +0.000 OA
ATOM      5  C   UNL     1      -3.207  -2.043 133.912  0.00  0.00    +0.000 C 
ATOM      6  C   UNL     1      -2.099  -2.935 134.422  0.00  0.00    +0.000 C 
ATOM      7  O   UNL     1      -4.474  -2.644 134.259  0.00  0.00    +0.000 OA
ATOM      8  C   UNL     1      -5.193  -2.729 133.091  0.00  0.00    +0.000 A 
ATOM      9  C   UNL     1      -6.541  -3.047 133.108  0.00  0.00    +0.000 A 
ATOM     10  C   UNL     1      -7.264  -3.312 134.392  0.00  0.00    +0.000 C 
ATOM     11  C   UNL     1      -7.193  -3.057 131.873  0.00  0.00    +0.000 A 
ATOM     12  C   UNL     1      -6.535  -2.751 130.639  0.00  0.00    +0.000 A 
ATOM     13  C   UNL     1      -7.245  -2.628 129.412  0.00  0.00    +0.000 A 
ATOM     14  C   UNL     1      -6.613  -2.310 128.203  0.00  0.00    +0.000 A 
ATOM     15  N   UNL     1      -7.272  -2.193 126.963  0.00  0.00    +0.000 N 
ATOM     16  C   UNL     1      -8.417  -2.859 126.577  0.00  0.00    +0.000 C 
ATOM     17  O   UNL     1      -8.991  -3.759 127.184  0.00  0.00    +0.000 OA
ATOM     18  C   UNL     1      -8.831  -2.582 125.160  0.00  0.00    +0.000 C 
ATOM     19  C   UNL     1      -9.330  -3.801 124.431  0.00  0.00    +0.000 C 
ATOM     20  C   UNL     1      -8.806  -1.392 124.530  0.00  0.00    +0.000 C 
ATOM     21  C   UNL     1      -8.394  -0.111 125.052  0.00  0.00    +0.000 C 
ATOM     22  C   UNL     1      -8.167   0.937 124.246  0.00  0.00    +0.000 C 
ATOM     23  C   UNL     1      -7.514   2.256 124.618  0.00  0.00    +0.000 C 
ATOM     24  C   UNL     1      -6.216   2.328 123.794  0.00  0.00    +0.000 C 
ATOM     25  C   UNL     1      -7.242   2.464 126.136  0.00  0.00    +0.000 C 
ATOM     26  C   UNL     1      -6.345   3.684 126.479  0.00  0.00    +0.000 C 
ATOM     27  C   UNL     1      -6.887   4.983 125.871  0.00  0.00    +0.000 C 
ATOM     28  C   UNL     1      -6.112   3.883 128.002  0.00  0.00    +0.000 C 
ATOM     29  C   UNL     1      -5.559   2.647 128.729  0.00  0.00    +0.000 C 
ATOM     30  C   UNL     1      -4.335   2.034 128.027  0.00  0.00    +0.000 C 
ATOM     31  C   UNL     1      -5.298   2.917 130.261  0.00  0.00    +0.000 C 
ATOM     32  C   UNL     1      -5.117   1.533 130.969  0.00  0.00    +0.000 C 
ATOM     33  C   UNL     1      -6.265   0.586 130.641  0.00  0.00    +0.000 C 
ATOM     34  C   UNL     1      -5.250  -2.032 128.216  0.00  0.00    +0.000 A 
ATOM     35  C   UNL     1      -4.527  -2.112 129.408  0.00  0.00    +0.000 A 
ATOM     36  C   UNL     1      -5.136  -2.458 130.646  0.00  0.00    +0.000 A 
ATOM     37  C   UNL     1      -4.503  -2.441 131.914  0.00  0.00    +0.000 A 
ATOM     38  C   UNL     1      -3.181  -2.026 132.375  0.00  0.00    +0.000 C 
ATOM     39  O   UNL     1      -2.223  -1.649 131.695  0.00  0.00    +0.000 OA
ATOM     40  H   UNL     1      -6.781  -1.691 126.238  0.00  0.00    +0.000 HD
ENDROOT
BRANCH   1  42
ATOM     41  C   UNL     1      -5.801   3.325 133.895  0.00  0.00    +0.000 C 
ATOM     42  O   UNL     1      -5.856   2.005 133.400  0.00  0.00    +0.000 OA
ENDBRANCH   1  42
BRANCH  11  43
ATOM     43  O   UNL     1      -8.544  -3.338 131.821  0.00  0.00    +0.000 OA
ATOM     44  H   UNL     1      -8.760  -4.102 132.382  0.00  0.00    +0.000 HD
ENDBRANCH  11  43
BRANCH  13  45
ATOM     45  O   UNL     1      -8.622  -2.627 129.422  0.00  0.00    +0.000 OA
ATOM     46  H   UNL     1      -8.920  -2.472 130.339  0.00  0.00    +0.000 HD
ENDBRANCH  13  45
BRANCH  25  47
ATOM     47  O   UNL     1      -8.477   2.567 126.859  0.00  0.00    +0.000 OA
ATOM     48  H   UNL     1      -8.886   1.682 126.877  0.00  0.00    +0.000 HD
ENDBRANCH  25  47
BRANCH  28  49
ATOM     49  O   UNL     1      -7.347   4.243 128.634  0.00  0.00    +0.000 OA
ATOM     50  H   UNL     1      -7.539   5.167 128.363  0.00  0.00    +0.000 HD
ENDBRANCH  28  49
BRANCH  35  51
ATOM     51  O   UNL     1      -3.199  -1.812 129.367  0.00  0.00    +0.000 OA
ATOM     52  H   UNL     1      -3.033  -0.857 129.361  0.00  0.00    +0.000 HD
ENDBRANCH  35  51
BRANCH  31  53
ATOM     53  O   UNL     1      -4.090   3.759 130.374  0.00  0.00    +0.000 OA
BRANCH  53  54
ATOM     54  C   UNL     1      -3.847   4.885 131.106  0.00  0.00    +0.000 C 
ATOM     55  C   UNL     1      -2.693   4.926 132.086  0.00  0.00    +0.000 C 
ATOM     56  O   UNL     1      -4.506   5.902 130.897  0.00  0.00    +0.000 OA
ENDBRANCH  53  54
ENDBRANCH  31  53
TORSDOF 8
ENDMDL
MODEL 8
REMARK VINA RESULT:      -8.4      2.873      5.533
REMARK  Name = Rifamycin
REMARK  17 active torsions:
REMARK  status: ('A' for Active; 'I' for Inactive)
REMARK    1  A    between atoms: C_1  and  O_2
REMARK    2  A    between atoms: O_2  and  C_3
REMARK    3  A    between atoms: C_7  and  C_8
REMARK    4  A    between atoms: C_11  and  C_12
REMARK    5  A    between atoms: C_13  and  O_14
REMARK    6  A    between atoms: C_16  and  O_17
REMARK    7  A    between atoms: C_22  and  C_23
REMARK    8  A    between atoms: C_27  and  C_28
REMARK    9  A    between atoms: C_29  and  O_30
REMARK   10  A    between atoms: C_31  and  C_32
REMARK   11  A    between atoms: C_33  and  O_34
REMARK   12  A    between atoms: C_35  and  C_36
REMARK   13  A    between atoms: C_37  and  O_38
REMARK   14  A    between atoms: O_38  and  C_39
REMARK   15  A    between atoms: C_39  and  C_40
REMARK   16  A    between atoms: C_42  and  C_43
REMARK   17  A    between atoms: C_45  and  O_46
REMARK                            x       y       z     vdW  Elec       q    Type
REMARK                         _______ _______ _______ _____ _____    ______ ____
ROOT
ATOM      1  C   UNL     1      -5.845   5.191 132.111  0.00  0.00    +0.000 C 
ATOM      2  C   UNL     1      -7.087   5.983 132.062  0.00  0.00    +0.000 C 
ATOM      3  C   UNL     1      -7.434   6.766 131.051  0.00  0.00    +0.000 C 
ATOM      4  O   UNL     1      -8.666   7.336 131.025  0.00  0.00    +0.000 OA
ATOM      5  C   UNL     1      -9.560   6.439 130.364  0.00  0.00    +0.000 C 
ATOM      6  C   UNL     1     -10.900   7.137 130.376  0.00  0.00    +0.000 C 
ATOM      7  O   UNL     1      -9.170   6.218 128.991  0.00  0.00    +0.000 OA
ATOM      8  C   UNL     1      -8.887   4.878 128.881  0.00  0.00    +0.000 A 
ATOM      9  C   UNL     1      -8.262   4.373 127.753  0.00  0.00    +0.000 A 
ATOM     10  C   UNL     1      -7.875   5.263 126.612  0.00  0.00    +0.000 C 
ATOM     11  C   UNL     1      -7.972   3.007 127.761  0.00  0.00    +0.000 A 
ATOM     12  C   UNL     1      -8.282   2.149 128.863  0.00  0.00    +0.000 A 
ATOM     13  C   UNL     1      -7.853   0.793 128.911  0.00  0.00    +0.000 A 
ATOM     14  C   UNL     1      -8.134  -0.050 129.994  0.00  0.00    +0.000 A 
ATOM     15  N   UNL     1      -7.744  -1.401 130.078  0.00  0.00    +0.000 N 
ATOM     16  C   UNL     1      -7.553  -2.267 129.021  0.00  0.00    +0.000 C 
ATOM     17  O   UNL     1      -7.809  -2.060 127.839  0.00  0.00    +0.000 OA
ATOM     18  C   UNL     1      -7.215  -3.669 129.440  0.00  0.00    +0.000 C 
ATOM     19  C   UNL     1      -7.892  -4.724 128.607  0.00  0.00    +0.000 C 
ATOM     20  C   UNL     1      -6.388  -4.036 130.437  0.00  0.00    +0.000 C 
ATOM     21  C   UNL     1      -5.626  -3.192 131.326  0.00  0.00    +0.000 C 
ATOM     22  C   UNL     1      -5.054  -3.677 132.438  0.00  0.00    +0.000 C 
ATOM     23  C   UNL     1      -4.433  -2.880 133.572  0.00  0.00    +0.000 C 
ATOM     24  C   UNL     1      -5.292  -3.181 134.814  0.00  0.00    +0.000 C 
ATOM     25  C   UNL     1      -4.302  -1.350 133.322  0.00  0.00    +0.000 C 
ATOM     26  C   UNL     1      -3.916  -0.513 134.572  0.00  0.00    +0.000 C 
ATOM     27  C   UNL     1      -2.640  -1.037 135.241  0.00  0.00    +0.000 C 
ATOM     28  C   UNL     1      -3.766   1.007 134.288  0.00  0.00    +0.000 C 
ATOM     29  C   UNL     1      -4.990   1.654 133.622  0.00  0.00    +0.000 C 
ATOM     30  C   UNL     1      -6.310   1.323 134.340  0.00  0.00    +0.000 C 
ATOM     31  C   UNL     1      -4.802   3.205 133.398  0.00  0.00    +0.000 C 
ATOM     32  C   UNL     1      -5.902   3.681 132.392  0.00  0.00    +0.000 C 
ATOM     33  C   UNL     1      -5.918   2.820 131.136  0.00  0.00    +0.000 C 
ATOM     34  C   UNL     1      -8.797   0.480 131.097  0.00  0.00    +0.000 A 
ATOM     35  C   UNL     1      -9.205   1.816 131.097  0.00  0.00    +0.000 A 
ATOM     36  C   UNL     1      -8.957   2.688 130.002  0.00  0.00    +0.000 A 
ATOM     37  C   UNL     1      -9.226   4.079 129.973  0.00  0.00    +0.000 A 
ATOM     38  C   UNL     1      -9.714   5.032 130.967  0.00  0.00    +0.000 C 
ATOM     39  O   UNL     1     -10.109   4.800 132.113  0.00  0.00    +0.000 OA
ATOM     40  H   UNL     1      -7.748  -1.814 131.000  0.00  0.00    +0.000 HD
ENDROOT
BRANCH   1  42
ATOM     41  C   UNL     1      -3.854   6.516 131.946  0.00  0.00    +0.000 C 
ATOM     42  O   UNL     1      -4.831   5.751 131.275  0.00  0.00    +0.000 OA
ENDBRANCH   1  42
BRANCH  11  43
ATOM     43  O   UNL     1      -7.323   2.446 126.679  0.00  0.00    +0.000 OA
ATOM     44  H   UNL     1      -7.782   2.663 125.850  0.00  0.00    +0.000 HD
ENDBRANCH  11  43
BRANCH  13  45
ATOM     45  O   UNL     1      -6.967   0.327 127.965  0.00  0.00    +0.000 OA
ATOM     46  H   UNL     1      -6.926  -0.645 128.040  0.00  0.00    +0.000 HD
ENDBRANCH  13  45
BRANCH  25  47
ATOM     47  O   UNL     1      -3.360  -1.091 132.271  0.00  0.00    +0.000 OA
ATOM     48  H   UNL     1      -2.756  -0.390 132.579  0.00  0.00    +0.000 HD
ENDBRANCH  25  47
BRANCH  28  49
ATOM     49  O   UNL     1      -2.638   1.226 133.433  0.00  0.00    +0.000 OA
ATOM     50  H   UNL     1      -2.324   0.338 133.152  0.00  0.00    +0.000 HD
ENDBRANCH  28  49
BRANCH  35  51
ATOM     51  O   UNL     1      -9.833   2.288 132.210  0.00  0.00    +0.000 OA
ATOM     52  H   UNL     1      -9.526   3.170 132.466  0.00  0.00    +0.000 HD
ENDBRANCH  35  51
BRANCH  31  53
ATOM     53  O   UNL     1      -4.926   3.871 134.711  0.00  0.00    +0.000 OA
BRANCH  53  54
ATOM     54  C   UNL     1      -3.978   4.364 135.559  0.00  0.00    +0.000 C 
ATOM     55  C   UNL     1      -3.762   3.731 136.918  0.00  0.00    +0.000 C 
ATOM     56  O   UNL     1      -3.228   5.262 135.179  0.00  0.00    +0.000 OA
ENDBRANCH  53  54
ENDBRANCH  31  53
TORSDOF 8
ENDMDL
MODEL 9
REMARK VINA RESULT:      -8.2      2.680      8.569
REMARK  Name = Rifamycin
REMARK  17 active torsions:
REMARK  status: ('A' for Active; 'I' for Inactive)
REMARK    1  A    between atoms: C_1  and  O_2
REMARK    2  A    between atoms: O_2  and  C_3
REMARK    3  A    between atoms: C_7  and  C_8
REMARK    4  A    between atoms: C_11  and  C_12
REMARK    5  A    between atoms: C_13  and  O_14
REMARK    6  A    between atoms: C_16  and  O_17
REMARK    7  A    between atoms: C_22  and  C_23
REMARK    8  A    between atoms: C_27  and  C_28
REMARK    9  A    between atoms: C_29  and  O_30
REMARK   10  A    between atoms: C_31  and  C_32
REMARK   11  A    between atoms: C_33  and  O_34
REMARK   12  A    between atoms: C_35  and  C_36
REMARK   13  A    between atoms: C_37  and  O_38
REMARK   14  A    between atoms: O_38  and  C_39
REMARK   15  A    between atoms: C_39  and  C_40
REMARK   16  A    between atoms: C_42  and  C_43
REMARK   17  A    between atoms: C_45  and  O_46
REMARK                            x       y       z     vdW  Elec       q    Type
REMARK                         _______ _______ _______ _____ _____    ______ ____
ROOT
ATOM      1  C   UNL     1      -5.035  -3.615 130.368  0.00  0.00    +0.000 C 
ATOM      2  C   UNL     1      -5.593  -4.521 131.389  0.00  0.00    +0.000 C 
ATOM      3  C   UNL     1      -4.863  -5.262 132.209  0.00  0.00    +0.000 C 
ATOM      4  O   UNL     1      -5.459  -5.947 133.217  0.00  0.00    +0.000 OA
ATOM      5  C   UNL     1      -5.510  -5.099 134.366  0.00  0.00    +0.000 C 
ATOM      6  C   UNL     1      -6.182  -5.925 135.438  0.00  0.00    +0.000 C 
ATOM      7  O   UNL     1      -4.185  -4.746 134.823  0.00  0.00    +0.000 OA
ATOM      8  C   UNL     1      -4.089  -3.380 134.708  0.00  0.00    +0.000 A 
ATOM      9  C   UNL     1      -2.869  -2.739 134.845  0.00  0.00    +0.000 A 
ATOM     10  C   UNL     1      -1.613  -3.505 135.125  0.00  0.00    +0.000 C 
ATOM     11  C   UNL     1      -2.868  -1.355 134.659  0.00  0.00    +0.000 A 
ATOM     12  C   UNL     1      -4.047  -0.610 134.335  0.00  0.00    +0.000 A 
ATOM     13  C   UNL     1      -4.001   0.775 134.011  0.00  0.00    +0.000 A 
ATOM     14  C   UNL     1      -5.146   1.508 133.673  0.00  0.00    +0.000 A 
ATOM     15  N   UNL     1      -5.151   2.883 133.360  0.00  0.00    +0.000 N 
ATOM     16  C   UNL     1      -4.271   3.835 133.832  0.00  0.00    +0.000 C 
ATOM     17  O   UNL     1      -3.414   3.686 134.698  0.00  0.00    +0.000 OA
ATOM     18  C   UNL     1      -4.587   5.231 133.378  0.00  0.00    +0.000 C 
ATOM     19  C   UNL     1      -4.394   6.269 134.450  0.00  0.00    +0.000 C 
ATOM     20  C   UNL     1      -4.993   5.607 132.151  0.00  0.00    +0.000 C 
ATOM     21  C   UNL     1      -5.211   4.782 130.987  0.00  0.00    +0.000 C 
ATOM     22  C   UNL     1      -5.867   5.243 129.910  0.00  0.00    +0.000 C 
ATOM     23  C   UNL     1      -6.369   4.434 128.727  0.00  0.00    +0.000 C 
ATOM     24  C   UNL     1      -7.903   4.562 128.755  0.00  0.00    +0.000 C 
ATOM     25  C   UNL     1      -5.917   2.946 128.693  0.00  0.00    +0.000 C 
ATOM     26  C   UNL     1      -6.641   2.067 127.637  0.00  0.00    +0.000 C 
ATOM     27  C   UNL     1      -6.546   2.666 126.229  0.00  0.00    +0.000 C 
ATOM     28  C   UNL     1      -6.153   0.592 127.607  0.00  0.00    +0.000 C 
ATOM     29  C   UNL     1      -6.207  -0.125 128.965  0.00  0.00    +0.000 C 
ATOM     30  C   UNL     1      -7.568   0.024 129.669  0.00  0.00    +0.000 C 
ATOM     31  C   UNL     1      -5.745  -1.630 128.869  0.00  0.00    +0.000 C 
ATOM     32  C   UNL     1      -5.469  -2.142 130.322  0.00  0.00    +0.000 C 
ATOM     33  C   UNL     1      -4.538  -1.201 131.076  0.00  0.00    +0.000 C 
ATOM     34  C   UNL     1      -6.363   0.841 133.579  0.00  0.00    +0.000 A 
ATOM     35  C   UNL     1      -6.439  -0.525 133.859  0.00  0.00    +0.000 A 
ATOM     36  C   UNL     1      -5.299  -1.291 134.231  0.00  0.00    +0.000 A 
ATOM     37  C   UNL     1      -5.268  -2.696 134.410  0.00  0.00    +0.000 A 
ATOM     38  C   UNL     1      -6.250  -3.759 134.216  0.00  0.00    +0.000 C 
ATOM     39  O   UNL     1      -7.441  -3.647 133.910  0.00  0.00    +0.000 OA
ATOM     40  H   UNL     1      -5.961   3.228 132.865  0.00  0.00    +0.000 HD
ENDROOT
BRANCH   1  42
ATOM     41  C   UNL     1      -3.368  -3.690 128.647  0.00  0.00    +0.000 C 
ATOM     42  O   UNL     1      -3.722  -4.013 129.974  0.00  0.00    +0.000 OA
ENDBRANCH   1  42
BRANCH  11  43
ATOM     43  O   UNL     1      -1.680  -0.658 134.753  0.00  0.00    +0.000 OA
ATOM     44  H   UNL     1      -0.938  -1.196 134.430  0.00  0.00    +0.000 HD
ENDBRANCH  11  43
BRANCH  13  45
ATOM     45  O   UNL     1      -2.783   1.390 133.829  0.00  0.00    +0.000 OA
ATOM     46  H   UNL     1      -2.118   0.911 134.360  0.00  0.00    +0.000 HD
ENDBRANCH  13  45
BRANCH  25  47
ATOM     47  O   UNL     1      -4.500   2.855 128.492  0.00  0.00    +0.000 OA
ATOM     48  H   UNL     1      -4.341   2.761 127.535  0.00  0.00    +0.000 HD
ENDBRANCH  25  47
BRANCH  28  49
ATOM     49  O   UNL     1      -4.797   0.545 127.145  0.00  0.00    +0.000 OA
ATOM     50  H   UNL     1      -4.594   1.437 126.787  0.00  0.00    +0.000 HD
ENDBRANCH  28  49
BRANCH  35  51
ATOM     51  O   UNL     1      -7.652  -1.133 133.735  0.00  0.00    +0.000 OA
ATOM     52  H   UNL     1      -8.144  -0.827 132.959  0.00  0.00    +0.000 HD
ENDBRANCH  35  51
BRANCH  31  53
ATOM     53  O   UNL     1      -6.821  -2.394 128.207  0.00  0.00    +0.000 OA
BRANCH  53  54
ATOM     54  C   UNL     1      -7.127  -2.553 126.887  0.00  0.00    +0.000 C 
ATOM     55  C   UNL     1      -8.572  -2.613 126.438  0.00  0.00    +0.000 C 
ATOM     56  O   UNL     1      -6.227  -2.546 126.048  0.00  0.00    +0.000 OA
ENDBRANCH  53  54
ENDBRANCH  31  53
TORSDOF 8
ENDMDL
