MODEL 1
REMARK VINA RESULT:      -5.4      0.000      0.000
REMARK  Name = Rilmenidine
REMARK  3 active torsions:
REMARK  status: ('A' for Active; 'I' for Inactive)
REMARK    1  A    between atoms: C_3  and  C_4
REMARK    2  A    between atoms: C_4  and  N_5
REMARK    3  A    between atoms: C_4  and  C_11
REMARK                            x       y       z     vdW  Elec       q    Type
REMARK                         _______ _______ _______ _____ _____    ______ ____
ROOT
ATOM      1  C   UNL     1      -7.545  -2.697 124.389  0.00  0.00    +0.000 C 
ENDROOT
BRANCH   1   2
ATOM      2  N   UNL     1      -8.223  -2.254 123.160  0.00  0.00    +0.000 N 
ATOM      3  C   UNL     1      -8.846  -1.031 123.044  0.00  0.00    +0.000 C 
ATOM      4  N   UNL     1     -10.067  -0.785 122.726  0.00  0.00    +0.000 NA
ATOM      5  C   UNL     1     -10.116   0.697 122.648  0.00  0.00    +0.000 C 
ATOM      6  C   UNL     1      -8.862   1.158 123.332  0.00  0.00    +0.000 C 
ATOM      7  O   UNL     1      -8.020   0.029 123.197  0.00  0.00    +0.000 OA
ATOM      8  H   UNL     1      -8.794  -2.983 122.752  0.00  0.00    +0.000 HD
ENDBRANCH   1   2
BRANCH   1  11
ATOM      9  C   UNL     1      -4.968  -3.115 124.677  0.00  0.00    +0.000 C 
ATOM     10  C   UNL     1      -5.139  -3.005 123.203  0.00  0.00    +0.000 C 
ATOM     11  C   UNL     1      -6.297  -3.474 124.050  0.00  0.00    +0.000 C 
ENDBRANCH   1  11
BRANCH   1  12
ATOM     12  C   UNL     1      -8.517  -3.574 125.220  0.00  0.00    +0.000 C 
ATOM     13  C   UNL     1      -8.589  -3.532 126.744  0.00  0.00    +0.000 C 
ATOM     14  C   UNL     1      -9.722  -2.975 125.934  0.00  0.00    +0.000 C 
ENDBRANCH   1  12
TORSDOF 3
ENDMDL
MODEL 2
REMARK VINA RESULT:      -5.3      0.549      2.907
REMARK  Name = Rilmenidine
REMARK  3 active torsions:
REMARK  status: ('A' for Active; 'I' for Inactive)
REMARK    1  A    between atoms: C_3  and  C_4
REMARK    2  A    between atoms: C_4  and  N_5
REMARK    3  A    between atoms: C_4  and  C_11
REMARK                            x       y       z     vdW  Elec       q    Type
REMARK                         _______ _______ _______ _____ _____    ______ ____
ROOT
ATOM      1  C   UNL     1      -7.547  -3.187 124.305  0.00  0.00    +0.000 C 
ENDROOT
BRANCH   1   2
ATOM      2  N   UNL     1      -8.139  -2.569 123.108  0.00  0.00    +0.000 N 
ATOM      3  C   UNL     1      -8.678  -1.301 123.105  0.00  0.00    +0.000 C 
ATOM      4  N   UNL     1      -9.866  -0.941 122.771  0.00  0.00    +0.000 NA
ATOM      5  C   UNL     1      -9.820   0.541 122.857  0.00  0.00    +0.000 C 
ATOM      6  C   UNL     1      -8.571   0.840 123.635  0.00  0.00    +0.000 C 
ATOM      7  O   UNL     1      -7.796  -0.322 123.408  0.00  0.00    +0.000 OA
ATOM      8  H   UNL     1      -8.735  -3.209 122.600  0.00  0.00    +0.000 HD
ENDBRANCH   1   2
BRANCH   1  11
ATOM      9  C   UNL     1      -8.527  -3.588 126.709  0.00  0.00    +0.000 C 
ATOM     10  C   UNL     1      -9.638  -2.909 125.991  0.00  0.00    +0.000 C 
ATOM     11  C   UNL     1      -8.215  -2.664 125.552  0.00  0.00    +0.000 C 
ENDBRANCH   1  11
BRANCH   1  12
ATOM     12  C   UNL     1      -6.027  -2.881 124.339  0.00  0.00    +0.000 C 
ATOM     13  C   UNL     1      -4.957  -3.913 123.996  0.00  0.00    +0.000 C 
ATOM     14  C   UNL     1      -5.207  -2.768 123.060  0.00  0.00    +0.000 C 
ENDBRANCH   1  12
TORSDOF 3
ENDMDL
MODEL 3
REMARK VINA RESULT:      -5.0      2.439      3.459
REMARK  Name = Rilmenidine
REMARK  3 active torsions:
REMARK  status: ('A' for Active; 'I' for Inactive)
REMARK    1  A    between atoms: C_3  and  C_4
REMARK    2  A    between atoms: C_4  and  N_5
REMARK    3  A    between atoms: C_4  and  C_11
REMARK                            x       y       z     vdW  Elec       q    Type
REMARK                         _______ _______ _______ _____ _____    ______ ____
ROOT
ATOM      1  C   UNL     1      -8.879  -2.165 126.226  0.00  0.00    +0.000 C 
ENDROOT
BRANCH   1   2
ATOM      2  N   UNL     1      -8.554  -0.759 126.514  0.00  0.00    +0.000 N 
ATOM      3  C   UNL     1      -8.843   0.272 125.648  0.00  0.00    +0.000 C 
ATOM      4  N   UNL     1      -8.038   1.134 125.137  0.00  0.00    +0.000 NA
ATOM      5  C   UNL     1      -8.935   2.054 124.391  0.00  0.00    +0.000 C 
ATOM      6  C   UNL     1     -10.241   1.318 124.295  0.00  0.00    +0.000 C 
ATOM      7  O   UNL     1     -10.162   0.431 125.395  0.00  0.00    +0.000 OA
ATOM      8  H   UNL     1      -7.623  -0.650 126.896  0.00  0.00    +0.000 HD
ENDBRANCH   1   2
BRANCH   1  11
ATOM      9  C   UNL     1      -9.036  -4.060 128.040  0.00  0.00    +0.000 C 
ATOM     10  C   UNL     1      -8.299  -2.972 128.737  0.00  0.00    +0.000 C 
ATOM     11  C   UNL     1      -8.219  -3.074 127.233  0.00  0.00    +0.000 C 
ENDBRANCH   1  11
BRANCH   1  12
ATOM     12  C   UNL     1      -8.407  -2.516 124.792  0.00  0.00    +0.000 C 
ATOM     13  C   UNL     1      -8.162  -3.944 124.317  0.00  0.00    +0.000 C 
ATOM     14  C   UNL     1      -9.337  -3.180 123.785  0.00  0.00    +0.000 C 
ENDBRANCH   1  12
TORSDOF 3
ENDMDL
MODEL 4
REMARK VINA RESULT:      -4.9      8.774     10.898
REMARK  Name = Rilmenidine
REMARK  3 active torsions:
REMARK  status: ('A' for Active; 'I' for Inactive)
REMARK    1  A    between atoms: C_3  and  C_4
REMARK    2  A    between atoms: C_4  and  N_5
REMARK    3  A    between atoms: C_4  and  C_11
REMARK                            x       y       z     vdW  Elec       q    Type
REMARK                         _______ _______ _______ _____ _____    ______ ____
ROOT
ATOM      1  C   UNL     1     -11.243   6.699 129.067  0.00  0.00    +0.000 C 
ENDROOT
BRANCH   1   2
ATOM      2  N   UNL     1      -9.822   6.317 129.035  0.00  0.00    +0.000 N 
ATOM      3  C   UNL     1      -9.316   5.245 129.736  0.00  0.00    +0.000 C 
ATOM      4  N   UNL     1      -8.365   5.235 130.601  0.00  0.00    +0.000 NA
ATOM      5  C   UNL     1      -8.193   3.794 130.916  0.00  0.00    +0.000 C 
ATOM      6  C   UNL     1      -9.429   3.135 130.377  0.00  0.00    +0.000 C 
ATOM      7  O   UNL     1      -9.842   4.051 129.381  0.00  0.00    +0.000 OA
ATOM      8  H   UNL     1      -9.207   7.116 129.116  0.00  0.00    +0.000 HD
ENDBRANCH   1   2
BRANCH   1  11
ATOM      9  C   UNL     1     -12.443   7.146 126.773  0.00  0.00    +0.000 C 
ATOM     10  C   UNL     1     -11.031   7.527 126.505  0.00  0.00    +0.000 C 
ATOM     11  C   UNL     1     -11.566   7.616 127.913  0.00  0.00    +0.000 C 
ENDBRANCH   1  11
BRANCH   1  12
ATOM     12  C   UNL     1     -11.553   7.399 130.415  0.00  0.00    +0.000 C 
ATOM     13  C   UNL     1     -12.937   7.404 131.057  0.00  0.00    +0.000 C 
ATOM     14  C   UNL     1     -11.835   6.602 131.682  0.00  0.00    +0.000 C 
ENDBRANCH   1  12
TORSDOF 3
ENDMDL
MODEL 5
REMARK VINA RESULT:      -4.9      9.379     10.631
REMARK  Name = Rilmenidine
REMARK  3 active torsions:
REMARK  status: ('A' for Active; 'I' for Inactive)
REMARK    1  A    between atoms: C_3  and  C_4
REMARK    2  A    between atoms: C_4  and  N_5
REMARK    3  A    between atoms: C_4  and  C_11
REMARK                            x       y       z     vdW  Elec       q    Type
REMARK                         _______ _______ _______ _____ _____    ______ ____
ROOT
ATOM      1  C   UNL     1      -9.509   4.677 131.350  0.00  0.00    +0.000 C 
ENDROOT
BRANCH   1   2
ATOM      2  N   UNL     1     -10.966   4.824 131.494  0.00  0.00    +0.000 N 
ATOM      3  C   UNL     1     -11.702   5.751 130.789  0.00  0.00    +0.000 C 
ATOM      4  N   UNL     1     -12.475   6.671 131.248  0.00  0.00    +0.000 NA
ATOM      5  C   UNL     1     -13.075   7.265 130.026  0.00  0.00    +0.000 C 
ATOM      6  C   UNL     1     -12.216   6.769 128.899  0.00  0.00    +0.000 C 
ATOM      7  O   UNL     1     -11.660   5.590 129.448  0.00  0.00    +0.000 OA
ATOM      8  H   UNL     1     -11.261   4.798 132.461  0.00  0.00    +0.000 HD
ENDBRANCH   1   2
BRANCH   1  11
ATOM      9  C   UNL     1      -8.405   2.303 131.564  0.00  0.00    +0.000 C 
ATOM     10  C   UNL     1      -9.650   2.180 132.368  0.00  0.00    +0.000 C 
ATOM     11  C   UNL     1      -9.009   3.536 132.201  0.00  0.00    +0.000 C 
ENDBRANCH   1  11
BRANCH   1  12
ATOM     12  C   UNL     1      -8.819   6.002 131.765  0.00  0.00    +0.000 C 
ATOM     13  C   UNL     1      -7.378   6.347 131.399  0.00  0.00    +0.000 C 
ATOM     14  C   UNL     1      -8.506   7.092 130.748  0.00  0.00    +0.000 C 
ENDBRANCH   1  12
TORSDOF 3
ENDMDL
MODEL 6
REMARK VINA RESULT:      -4.9     10.557     12.281
REMARK  Name = Rilmenidine
REMARK  3 active torsions:
REMARK  status: ('A' for Active; 'I' for Inactive)
REMARK    1  A    between atoms: C_3  and  C_4
REMARK    2  A    between atoms: C_4  and  N_5
REMARK    3  A    between atoms: C_4  and  C_11
REMARK                            x       y       z     vdW  Elec       q    Type
REMARK                         _______ _______ _______ _____ _____    ______ ____
ROOT
ATOM      1  C   UNL     1     -13.089   7.754 128.902  0.00  0.00    +0.000 C 
ENDROOT
BRANCH   1   2
ATOM      2  N   UNL     1     -12.798   7.201 130.235  0.00  0.00    +0.000 N 
ATOM      3  C   UNL     1     -11.594   6.617 130.560  0.00  0.00    +0.000 C 
ATOM      4  N   UNL     1     -11.380   5.435 131.019  0.00  0.00    +0.000 NA
ATOM      5  C   UNL     1      -9.919   5.422 131.284  0.00  0.00    +0.000 C 
ATOM      6  C   UNL     1      -9.386   6.617 130.548  0.00  0.00    +0.000 C 
ATOM      7  O   UNL     1     -10.530   7.445 130.462  0.00  0.00    +0.000 OA
ATOM      8  H   UNL     1     -13.568   6.656 130.601  0.00  0.00    +0.000 HD
ENDBRANCH   1   2
BRANCH   1  11
ATOM      9  C   UNL     1     -11.267   7.828 127.011  0.00  0.00    +0.000 C 
ATOM     10  C   UNL     1     -12.421   7.158 126.354  0.00  0.00    +0.000 C 
ATOM     11  C   UNL     1     -12.261   7.056 127.852  0.00  0.00    +0.000 C 
ENDBRANCH   1  11
BRANCH   1  12
ATOM     12  C   UNL     1     -12.787   9.275 128.903  0.00  0.00    +0.000 C 
ATOM     13  C   UNL     1     -13.862  10.342 128.717  0.00  0.00    +0.000 C 
ATOM     14  C   UNL     1     -13.212  10.173 130.059  0.00  0.00    +0.000 C 
ENDBRANCH   1  12
TORSDOF 3
ENDMDL
MODEL 7
REMARK VINA RESULT:      -4.7      2.445      2.902
REMARK  Name = Rilmenidine
REMARK  3 active torsions:
REMARK  status: ('A' for Active; 'I' for Inactive)
REMARK    1  A    between atoms: C_3  and  C_4
REMARK    2  A    between atoms: C_4  and  N_5
REMARK    3  A    between atoms: C_4  and  C_11
REMARK                            x       y       z     vdW  Elec       q    Type
REMARK                         _______ _______ _______ _____ _____    ______ ____
ROOT
ATOM      1  C   UNL     1      -6.605  -2.885 124.382  0.00  0.00    +0.000 C 
ENDROOT
BRANCH   1   2
ATOM      2  N   UNL     1      -6.725  -1.447 124.095  0.00  0.00    +0.000 N 
ATOM      3  C   UNL     1      -6.549  -0.472 125.052  0.00  0.00    +0.000 C 
ATOM      4  N   UNL     1      -7.367   0.453 125.408  0.00  0.00    +0.000 NA
ATOM      5  C   UNL     1      -6.585   1.259 126.380  0.00  0.00    +0.000 C 
ATOM      6  C   UNL     1      -5.410   0.394 126.734  0.00  0.00    +0.000 C 
ATOM      7  O   UNL     1      -5.315  -0.453 125.604  0.00  0.00    +0.000 OA
ATOM      8  H   UNL     1      -7.529  -1.235 123.518  0.00  0.00    +0.000 HD
ENDBRANCH   1   2
BRANCH   1  11
ATOM      9  C   UNL     1      -4.629  -4.559 123.940  0.00  0.00    +0.000 C 
ATOM     10  C   UNL     1      -4.130  -3.277 123.375  0.00  0.00    +0.000 C 
ATOM     11  C   UNL     1      -5.617  -3.528 123.440  0.00  0.00    +0.000 C 
ENDBRANCH   1  11
BRANCH   1  12
ATOM     12  C   UNL     1      -7.997  -3.552 124.240  0.00  0.00    +0.000 C 
ATOM     13  C   UNL     1      -9.210  -3.147 125.073  0.00  0.00    +0.000 C 
ATOM     14  C   UNL     1      -9.174  -2.818 123.610  0.00  0.00    +0.000 C 
ENDBRANCH   1  12
TORSDOF 3
ENDMDL
MODEL 8
REMARK VINA RESULT:      -4.6      2.186      2.935
REMARK  Name = Rilmenidine
REMARK  3 active torsions:
REMARK  status: ('A' for Active; 'I' for Inactive)
REMARK    1  A    between atoms: C_3  and  C_4
REMARK    2  A    between atoms: C_4  and  N_5
REMARK    3  A    between atoms: C_4  and  C_11
REMARK                            x       y       z     vdW  Elec       q    Type
REMARK                         _______ _______ _______ _____ _____    ______ ____
ROOT
ATOM      1  C   UNL     1      -8.348  -1.822 126.003  0.00  0.00    +0.000 C 
ENDROOT
BRANCH   1   2
ATOM      2  N   UNL     1      -9.359  -0.762 125.867  0.00  0.00    +0.000 N 
ATOM      3  C   UNL     1      -9.124   0.421 125.202  0.00  0.00    +0.000 C 
ATOM      4  N   UNL     1      -9.237   1.622 125.646  0.00  0.00    +0.000 NA
ATOM      5  C   UNL     1      -8.971   2.464 124.452  0.00  0.00    +0.000 C 
ATOM      6  C   UNL     1      -8.347   1.529 123.457  0.00  0.00    +0.000 C 
ATOM      7  O   UNL     1      -8.829   0.271 123.891  0.00  0.00    +0.000 OA
ATOM      8  H   UNL     1      -9.854  -0.590 126.733  0.00  0.00    +0.000 HD
ENDBRANCH   1   2
BRANCH   1  11
ATOM      9  C   UNL     1      -7.975  -3.811 124.327  0.00  0.00    +0.000 C 
ATOM     10  C   UNL     1      -9.298  -3.262 123.925  0.00  0.00    +0.000 C 
ATOM     11  C   UNL     1      -8.830  -3.094 125.351  0.00  0.00    +0.000 C 
ENDBRANCH   1  11
BRANCH   1  12
ATOM     12  C   UNL     1      -8.060  -2.064 127.507  0.00  0.00    +0.000 C 
ATOM     13  C   UNL     1      -6.652  -2.173 128.084  0.00  0.00    +0.000 C 
ATOM     14  C   UNL     1      -7.488  -0.968 128.397  0.00  0.00    +0.000 C 
ENDBRANCH   1  12
TORSDOF 3
ENDMDL
MODEL 9
REMARK VINA RESULT:      -4.6      8.615      9.407
REMARK  Name = Rilmenidine
REMARK  3 active torsions:
REMARK  status: ('A' for Active; 'I' for Inactive)
REMARK    1  A    between atoms: C_3  and  C_4
REMARK    2  A    between atoms: C_4  and  N_5
REMARK    3  A    between atoms: C_4  and  C_11
REMARK                            x       y       z     vdW  Elec       q    Type
REMARK                         _______ _______ _______ _____ _____    ______ ____
ROOT
ATOM      1  C   UNL     1      -9.263   3.230 131.330  0.00  0.00    +0.000 C 
ENDROOT
BRANCH   1   2
ATOM      2  N   UNL     1     -10.614   3.728 131.024  0.00  0.00    +0.000 N 
ATOM      3  C   UNL     1     -10.859   5.006 130.572  0.00  0.00    +0.000 C 
ATOM      4  N   UNL     1     -11.628   5.900 131.085  0.00  0.00    +0.000 NA
ATOM      5  C   UNL     1     -11.577   7.012 130.101  0.00  0.00    +0.000 C 
ATOM      6  C   UNL     1     -10.395   6.697 129.230  0.00  0.00    +0.000 C 
ATOM      7  O   UNL     1     -10.277   5.296 129.386  0.00  0.00    +0.000 OA
ATOM      8  H   UNL     1     -11.289   3.467 131.731  0.00  0.00    +0.000 HD
ENDBRANCH   1   2
BRANCH   1  11
ATOM      9  C   UNL     1      -7.545   1.941 129.817  0.00  0.00    +0.000 C 
ATOM     10  C   UNL     1      -8.737   2.089 128.939  0.00  0.00    +0.000 C 
ATOM     11  C   UNL     1      -8.920   2.063 130.437  0.00  0.00    +0.000 C 
ENDBRANCH   1  11
BRANCH   1  12
ATOM     12  C   UNL     1      -9.200   2.806 132.819  0.00  0.00    +0.000 C 
ATOM     13  C   UNL     1      -7.974   3.022 133.701  0.00  0.00    +0.000 C 
ATOM     14  C   UNL     1      -9.212   3.834 133.944  0.00  0.00    +0.000 C 
ENDBRANCH   1  12
TORSDOF 3
ENDMDL
