MODEL 1
REMARK VINA RESULT:      -8.4      0.000      0.000
REMARK  Name = Rilpivirine
REMARK  8 active torsions:
REMARK  status: ('A' for Active; 'I' for Inactive)
REMARK    1  A    between atoms: C_1  and  C_2
REMARK    2  A    between atoms: C_4  and  C_5
REMARK    3  A    between atoms: C_6  and  C_7
REMARK    4  A    between atoms: C_10  and  C_11
REMARK    5  A    between atoms: C_12  and  N_13
REMARK    6  A    between atoms: N_13  and  C_14
REMARK    7  A    between atoms: N_19  and  C_20
REMARK    8  A    between atoms: C_23  and  C_26
REMARK                            x       y       z     vdW  Elec       q    Type
REMARK                         _______ _______ _______ _____ _____    ______ ____
ROOT
ATOM      1  C   UNL     1      -8.192  -1.129 125.254  0.00  0.00    +0.000 A 
ATOM      2  C   UNL     1      -7.483  -1.859 124.320  0.00  0.00    +0.000 A 
ATOM      3  C   UNL     1      -6.836  -1.142 123.355  0.00  0.00    +0.000 A 
ATOM      4  N   UNL     1      -7.013   0.166 123.201  0.00  0.00    +0.000 NA
ATOM      5  C   UNL     1      -7.865   0.789 124.032  0.00  0.00    +0.000 A 
ATOM      6  N   UNL     1      -8.099   2.142 123.787  0.00  0.00    +0.000 N 
ATOM      7  N   UNL     1      -8.453   0.186 125.085  0.00  0.00    +0.000 NA
ATOM      8  H   UNL     1      -8.678   2.596 124.475  0.00  0.00    +0.000 HD
ENDROOT
BRANCH   6   9
ATOM      9  C   UNL     1      -7.666   2.859 122.662  0.00  0.00    +0.000 A 
ATOM     10  C   UNL     1      -8.558   3.188 121.629  0.00  0.00    +0.000 A 
ATOM     11  C   UNL     1      -8.125   3.851 120.477  0.00  0.00    +0.000 A 
ATOM     12  C   UNL     1      -6.783   4.203 120.340  0.00  0.00    +0.000 A 
ATOM     13  C   UNL     1      -5.875   3.850 121.343  0.00  0.00    +0.000 A 
ATOM     14  C   UNL     1      -6.318   3.192 122.501  0.00  0.00    +0.000 A 
BRANCH  12  15
ATOM     15  C   UNL     1      -6.355   4.961 119.196  0.00  0.00    +0.000 C 
ATOM     16  N   UNL     1      -6.009   5.604 118.300  0.00  0.00    +0.000 NA
ENDBRANCH  12  15
ENDBRANCH   6   9
BRANCH   1  17
ATOM     17  N   UNL     1      -8.513  -1.770 126.469  0.00  0.00    +0.000 N 
ATOM     18  H   UNL     1      -9.509  -1.839 126.619  0.00  0.00    +0.000 HD
BRANCH  17  26
ATOM     19  C   UNL     1      -5.851  -0.435 127.125  0.00  0.00    +0.000 C 
ATOM     20  C   UNL     1      -6.404  -1.640 127.828  0.00  0.00    +0.000 A 
ATOM     21  C   UNL     1      -5.578  -2.176 128.840  0.00  0.00    +0.000 A 
ATOM     22  C   UNL     1      -5.980  -3.274 129.588  0.00  0.00    +0.000 A 
ATOM     23  C   UNL     1      -7.227  -3.829 129.297  0.00  0.00    +0.000 A 
ATOM     24  C   UNL     1      -8.062  -3.340 128.280  0.00  0.00    +0.000 A 
ATOM     25  C   UNL     1      -9.379  -4.043 128.095  0.00  0.00    +0.000 C 
ATOM     26  C   UNL     1      -7.662  -2.229 127.510  0.00  0.00    +0.000 A 
BRANCH  22  27
ATOM     27  C   UNL     1      -5.130  -3.809 130.659  0.00  0.00    +0.000 C 
ATOM     28  C   UNL     1      -5.605  -4.648 131.587  0.00  0.00    +0.000 C 
BRANCH  28  29
ATOM     29  C   UNL     1      -4.733  -5.198 132.705  0.00  0.00    +0.000 C 
ATOM     30  N   UNL     1      -4.011  -5.654 133.632  0.00  0.00    +0.000 NA
ENDBRANCH  28  29
ENDBRANCH  22  27
ENDBRANCH  17  26
ENDBRANCH   1  17
TORSDOF 6
ENDMDL
MODEL 2
REMARK VINA RESULT:      -8.2      1.878     10.381
REMARK  Name = Rilpivirine
REMARK  8 active torsions:
REMARK  status: ('A' for Active; 'I' for Inactive)
REMARK    1  A    between atoms: C_1  and  C_2
REMARK    2  A    between atoms: C_4  and  C_5
REMARK    3  A    between atoms: C_6  and  C_7
REMARK    4  A    between atoms: C_10  and  C_11
REMARK    5  A    between atoms: C_12  and  N_13
REMARK    6  A    between atoms: N_13  and  C_14
REMARK    7  A    between atoms: N_19  and  C_20
REMARK    8  A    between atoms: C_23  and  C_26
REMARK                            x       y       z     vdW  Elec       q    Type
REMARK                         _______ _______ _______ _____ _____    ______ ____
ROOT
ATOM      1  C   UNL     1      -8.532  -2.012 126.614  0.00  0.00    +0.000 A 
ATOM      2  C   UNL     1      -9.068  -3.283 126.534  0.00  0.00    +0.000 A 
ATOM      3  C   UNL     1      -9.005  -4.040 127.669  0.00  0.00    +0.000 A 
ATOM      4  N   UNL     1      -8.313  -3.662 128.739  0.00  0.00    +0.000 NA
ATOM      5  C   UNL     1      -7.658  -2.490 128.685  0.00  0.00    +0.000 A 
ATOM      6  N   UNL     1      -6.868  -2.165 129.788  0.00  0.00    +0.000 N 
ATOM      7  N   UNL     1      -7.761  -1.626 127.655  0.00  0.00    +0.000 NA
ATOM      8  H   UNL     1      -6.456  -1.247 129.748  0.00  0.00    +0.000 HD
ENDROOT
BRANCH   6   9
ATOM      9  C   UNL     1      -6.563  -3.018 130.859  0.00  0.00    +0.000 A 
ATOM     10  C   UNL     1      -7.150  -2.829 132.120  0.00  0.00    +0.000 A 
ATOM     11  C   UNL     1      -6.811  -3.636 133.210  0.00  0.00    +0.000 A 
ATOM     12  C   UNL     1      -5.874  -4.657 133.053  0.00  0.00    +0.000 A 
ATOM     13  C   UNL     1      -5.252  -4.835 131.813  0.00  0.00    +0.000 A 
ATOM     14  C   UNL     1      -5.604  -4.026 130.722  0.00  0.00    +0.000 A 
BRANCH  12  15
ATOM     15  C   UNL     1      -5.590  -5.542 134.151  0.00  0.00    +0.000 C 
ATOM     16  N   UNL     1      -5.395  -6.238 135.052  0.00  0.00    +0.000 NA
ENDBRANCH  12  15
ENDBRANCH   6   9
BRANCH   1  17
ATOM     17  N   UNL     1      -8.938  -1.076 125.641  0.00  0.00    +0.000 N 
ATOM     18  H   UNL     1      -9.836  -1.300 125.239  0.00  0.00    +0.000 HD
BRANCH  17  26
ATOM     19  C   UNL     1      -8.694   1.578 127.123  0.00  0.00    +0.000 C 
ATOM     20  C   UNL     1      -8.128   1.300 125.761  0.00  0.00    +0.000 A 
ATOM     21  C   UNL     1      -7.469   2.389 125.151  0.00  0.00    +0.000 A 
ATOM     22  C   UNL     1      -6.875   2.261 123.903  0.00  0.00    +0.000 A 
ATOM     23  C   UNL     1      -6.960   1.018 123.274  0.00  0.00    +0.000 A 
ATOM     24  C   UNL     1      -7.630  -0.078 123.839  0.00  0.00    +0.000 A 
ATOM     25  C   UNL     1      -7.626  -1.353 123.040  0.00  0.00    +0.000 C 
ATOM     26  C   UNL     1      -8.242   0.041 125.104  0.00  0.00    +0.000 A 
BRANCH  22  27
ATOM     27  C   UNL     1      -6.166   3.389 123.287  0.00  0.00    +0.000 C 
ATOM     28  C   UNL     1      -6.013   3.489 121.960  0.00  0.00    +0.000 C 
BRANCH  28  29
ATOM     29  C   UNL     1      -5.271   4.649 121.315  0.00  0.00    +0.000 C 
ATOM     30  N   UNL     1      -4.656   5.609 120.780  0.00  0.00    +0.000 NA
ENDBRANCH  28  29
ENDBRANCH  22  27
ENDBRANCH  17  26
ENDBRANCH   1  17
TORSDOF 6
ENDMDL
MODEL 3
REMARK VINA RESULT:      -8.1      0.599      1.751
REMARK  Name = Rilpivirine
REMARK  8 active torsions:
REMARK  status: ('A' for Active; 'I' for Inactive)
REMARK    1  A    between atoms: C_1  and  C_2
REMARK    2  A    between atoms: C_4  and  C_5
REMARK    3  A    between atoms: C_6  and  C_7
REMARK    4  A    between atoms: C_10  and  C_11
REMARK    5  A    between atoms: C_12  and  N_13
REMARK    6  A    between atoms: N_13  and  C_14
REMARK    7  A    between atoms: N_19  and  C_20
REMARK    8  A    between atoms: C_23  and  C_26
REMARK                            x       y       z     vdW  Elec       q    Type
REMARK                         _______ _______ _______ _____ _____    ______ ____
ROOT
ATOM      1  C   UNL     1      -8.294  -0.692 125.615  0.00  0.00    +0.000 A 
ATOM      2  C   UNL     1      -7.718  -1.528 124.679  0.00  0.00    +0.000 A 
ATOM      3  C   UNL     1      -7.080  -0.922 123.635  0.00  0.00    +0.000 A 
ATOM      4  N   UNL     1      -7.153   0.388 123.420  0.00  0.00    +0.000 NA
ATOM      5  C   UNL     1      -7.887   1.126 124.270  0.00  0.00    +0.000 A 
ATOM      6  N   UNL     1      -8.019   2.481 123.966  0.00  0.00    +0.000 N 
ATOM      7  N   UNL     1      -8.450   0.632 125.391  0.00  0.00    +0.000 NA
ATOM      8  H   UNL     1      -8.506   3.019 124.665  0.00  0.00    +0.000 HD
ENDROOT
BRANCH   6   9
ATOM      9  C   UNL     1      -7.605   3.100 122.777  0.00  0.00    +0.000 A 
ATOM     10  C   UNL     1      -8.501   3.287 121.712  0.00  0.00    +0.000 A 
ATOM     11  C   UNL     1      -8.085   3.849 120.501  0.00  0.00    +0.000 A 
ATOM     12  C   UNL     1      -6.757   4.240 120.336  0.00  0.00    +0.000 A 
ATOM     13  C   UNL     1      -5.844   4.026 121.373  0.00  0.00    +0.000 A 
ATOM     14  C   UNL     1      -6.270   3.468 122.589  0.00  0.00    +0.000 A 
BRANCH  12  15
ATOM     15  C   UNL     1      -6.350   4.897 119.124  0.00  0.00    +0.000 C 
ATOM     16  N   UNL     1      -6.028   5.460 118.168  0.00  0.00    +0.000 NA
ENDBRANCH  12  15
ENDBRANCH   6   9
BRANCH   1  17
ATOM     17  N   UNL     1      -8.582  -1.240 126.882  0.00  0.00    +0.000 N 
ATOM     18  H   UNL     1      -9.507  -0.998 127.207  0.00  0.00    +0.000 HD
BRANCH  17  26
ATOM     19  C   UNL     1      -9.316  -4.020 127.897  0.00  0.00    +0.000 C 
ATOM     20  C   UNL     1      -8.075  -3.268 128.276  0.00  0.00    +0.000 A 
ATOM     21  C   UNL     1      -7.231  -3.927 129.197  0.00  0.00    +0.000 A 
ATOM     22  C   UNL     1      -6.035  -3.356 129.610  0.00  0.00    +0.000 A 
ATOM     23  C   UNL     1      -5.704  -2.105 129.087  0.00  0.00    +0.000 A 
ATOM     24  C   UNL     1      -6.531  -1.409 128.192  0.00  0.00    +0.000 A 
ATOM     25  C   UNL     1      -6.029  -0.075 127.712  0.00  0.00    +0.000 C 
ATOM     26  C   UNL     1      -7.751  -1.977 127.768  0.00  0.00    +0.000 A 
BRANCH  22  27
ATOM     27  C   UNL     1      -5.149  -4.058 130.546  0.00  0.00    +0.000 C 
ATOM     28  C   UNL     1      -4.485  -3.413 131.513  0.00  0.00    +0.000 C 
BRANCH  28  29
ATOM     29  C   UNL     1      -3.557  -4.132 132.479  0.00  0.00    +0.000 C 
ATOM     30  N   UNL     1      -2.787  -4.729 133.278  0.00  0.00    +0.000 NA
ENDBRANCH  28  29
ENDBRANCH  22  27
ENDBRANCH  17  26
ENDBRANCH   1  17
TORSDOF 6
ENDMDL
MODEL 4
REMARK VINA RESULT:      -7.8      7.508      8.406
REMARK  Name = Rilpivirine
REMARK  8 active torsions:
REMARK  status: ('A' for Active; 'I' for Inactive)
REMARK    1  A    between atoms: C_1  and  C_2
REMARK    2  A    between atoms: C_4  and  C_5
REMARK    3  A    between atoms: C_6  and  C_7
REMARK    4  A    between atoms: C_10  and  C_11
REMARK    5  A    between atoms: C_12  and  N_13
REMARK    6  A    between atoms: N_13  and  C_14
REMARK    7  A    between atoms: N_19  and  C_20
REMARK    8  A    between atoms: C_23  and  C_26
REMARK                            x       y       z     vdW  Elec       q    Type
REMARK                         _______ _______ _______ _____ _____    ______ ____
ROOT
ATOM      1  C   UNL     1      -9.144   3.414 130.033  0.00  0.00    +0.000 A 
ATOM      2  C   UNL     1      -8.087   4.303 130.077  0.00  0.00    +0.000 A 
ATOM      3  C   UNL     1      -8.405   5.611 130.301  0.00  0.00    +0.000 A 
ATOM      4  N   UNL     1      -9.660   6.050 130.300  0.00  0.00    +0.000 NA
ATOM      5  C   UNL     1     -10.638   5.159 130.067  0.00  0.00    +0.000 A 
ATOM      6  N   UNL     1     -11.936   5.665 129.982  0.00  0.00    +0.000 N 
ATOM      7  N   UNL     1     -10.427   3.833 129.955  0.00  0.00    +0.000 NA
ATOM      8  H   UNL     1     -12.651   4.962 129.887  0.00  0.00    +0.000 HD
ENDROOT
BRANCH   6   9
ATOM      9  C   UNL     1     -12.286   7.023 129.946  0.00  0.00    +0.000 A 
ATOM     10  C   UNL     1     -12.668   7.700 131.115  0.00  0.00    +0.000 A 
ATOM     11  C   UNL     1     -13.075   9.037 131.082  0.00  0.00    +0.000 A 
ATOM     12  C   UNL     1     -13.103   9.725 129.870  0.00  0.00    +0.000 A 
ATOM     13  C   UNL     1     -12.762   9.055 128.691  0.00  0.00    +0.000 A 
ATOM     14  C   UNL     1     -12.347   7.715 128.733  0.00  0.00    +0.000 A 
BRANCH  12  15
ATOM     15  C   UNL     1     -13.438  11.123 129.849  0.00  0.00    +0.000 C 
ATOM     16  N   UNL     1     -13.734  12.240 129.862  0.00  0.00    +0.000 NA
ENDBRANCH  12  15
ENDBRANCH   6   9
BRANCH   1  17
ATOM     17  N   UNL     1      -8.849   2.048 130.223  0.00  0.00    +0.000 N 
ATOM     18  H   UNL     1      -9.672   1.465 130.181  0.00  0.00    +0.000 HD
BRANCH  17  26
ATOM     19  C   UNL     1      -7.022   0.833 128.105  0.00  0.00    +0.000 C 
ATOM     20  C   UNL     1      -6.752   0.822 129.581  0.00  0.00    +0.000 A 
ATOM     21  C   UNL     1      -5.565   0.162 129.969  0.00  0.00    +0.000 A 
ATOM     22  C   UNL     1      -5.181   0.102 131.301  0.00  0.00    +0.000 A 
ATOM     23  C   UNL     1      -6.013   0.713 132.240  0.00  0.00    +0.000 A 
ATOM     24  C   UNL     1      -7.212   1.354 131.893  0.00  0.00    +0.000 A 
ATOM     25  C   UNL     1      -7.994   1.972 133.020  0.00  0.00    +0.000 C 
ATOM     26  C   UNL     1      -7.617   1.417 130.544  0.00  0.00    +0.000 A 
BRANCH  22  27
ATOM     27  C   UNL     1      -3.932  -0.561 131.695  0.00  0.00    +0.000 C 
ATOM     28  C   UNL     1      -3.496  -0.555 132.961  0.00  0.00    +0.000 C 
BRANCH  28  29
ATOM     29  C   UNL     1      -2.198  -1.230 133.375  0.00  0.00    +0.000 C 
ATOM     30  N   UNL     1      -1.122  -1.789 133.719  0.00  0.00    +0.000 NA
ENDBRANCH  28  29
ENDBRANCH  22  27
ENDBRANCH  17  26
ENDBRANCH   1  17
TORSDOF 6
ENDMDL
MODEL 5
REMARK VINA RESULT:      -7.5      6.889      8.374
REMARK  Name = Rilpivirine
REMARK  8 active torsions:
REMARK  status: ('A' for Active; 'I' for Inactive)
REMARK    1  A    between atoms: C_1  and  C_2
REMARK    2  A    between atoms: C_4  and  C_5
REMARK    3  A    between atoms: C_6  and  C_7
REMARK    4  A    between atoms: C_10  and  C_11
REMARK    5  A    between atoms: C_12  and  N_13
REMARK    6  A    between atoms: N_13  and  C_14
REMARK    7  A    between atoms: N_19  and  C_20
REMARK    8  A    between atoms: C_23  and  C_26
REMARK                            x       y       z     vdW  Elec       q    Type
REMARK                         _______ _______ _______ _____ _____    ______ ____
ROOT
ATOM      1  C   UNL     1      -7.470   3.572 131.363  0.00  0.00    +0.000 A 
ATOM      2  C   UNL     1      -7.184   4.458 132.383  0.00  0.00    +0.000 A 
ATOM      3  C   UNL     1      -8.059   5.492 132.550  0.00  0.00    +0.000 A 
ATOM      4  N   UNL     1      -9.032   5.750 131.681  0.00  0.00    +0.000 NA
ATOM      5  C   UNL     1      -9.141   4.954 130.605  0.00  0.00    +0.000 A 
ATOM      6  N   UNL     1     -10.112   5.305 129.666  0.00  0.00    +0.000 N 
ATOM      7  N   UNL     1      -8.401   3.843 130.421  0.00  0.00    +0.000 NA
ATOM      8  H   UNL     1     -10.222   4.644 128.914  0.00  0.00    +0.000 HD
ENDROOT
BRANCH   6   9
ATOM      9  C   UNL     1     -10.855   6.494 129.659  0.00  0.00    +0.000 A 
ATOM     10  C   UNL     1     -11.925   6.680 130.549  0.00  0.00    +0.000 A 
ATOM     11  C   UNL     1     -12.710   7.837 130.513  0.00  0.00    +0.000 A 
ATOM     12  C   UNL     1     -12.432   8.837 129.581  0.00  0.00    +0.000 A 
ATOM     13  C   UNL     1     -11.393   8.651 128.664  0.00  0.00    +0.000 A 
ATOM     14  C   UNL     1     -10.605   7.491 128.711  0.00  0.00    +0.000 A 
BRANCH  12  15
ATOM     15  C   UNL     1     -13.183  10.062 129.602  0.00  0.00    +0.000 C 
ATOM     16  N   UNL     1     -13.794  11.043 129.578  0.00  0.00    +0.000 NA
ENDBRANCH  12  15
ENDBRANCH   6   9
BRANCH   1  17
ATOM     17  N   UNL     1      -6.860   2.301 131.418  0.00  0.00    +0.000 N 
ATOM     18  H   UNL     1      -6.215   2.215 132.190  0.00  0.00    +0.000 HD
BRANCH  17  26
ATOM     19  C   UNL     1      -4.996   1.969 129.028  0.00  0.00    +0.000 C 
ATOM     20  C   UNL     1      -6.112   1.031 129.383  0.00  0.00    +0.000 A 
ATOM     21  C   UNL     1      -6.291  -0.053 128.496  0.00  0.00    +0.000 A 
ATOM     22  C   UNL     1      -7.270  -1.011 128.723  0.00  0.00    +0.000 A 
ATOM     23  C   UNL     1      -8.072  -0.857 129.854  0.00  0.00    +0.000 A 
ATOM     24  C   UNL     1      -7.941   0.222 130.741  0.00  0.00    +0.000 A 
ATOM     25  C   UNL     1      -8.876   0.241 131.919  0.00  0.00    +0.000 C 
ATOM     26  C   UNL     1      -6.954   1.205 130.520  0.00  0.00    +0.000 A 
BRANCH  22  27
ATOM     27  C   UNL     1      -7.432  -2.152 127.813  0.00  0.00    +0.000 C 
ATOM     28  C   UNL     1      -7.890  -2.002 126.564  0.00  0.00    +0.000 C 
BRANCH  28  29
ATOM     29  C   UNL     1      -8.071  -3.180 125.620  0.00  0.00    +0.000 C 
ATOM     30  N   UNL     1      -8.222  -4.156 124.837  0.00  0.00    +0.000 NA
ENDBRANCH  28  29
ENDBRANCH  22  27
ENDBRANCH  17  26
ENDBRANCH   1  17
TORSDOF 6
ENDMDL
MODEL 6
REMARK VINA RESULT:      -7.5      2.278      3.164
REMARK  Name = Rilpivirine
REMARK  8 active torsions:
REMARK  status: ('A' for Active; 'I' for Inactive)
REMARK    1  A    between atoms: C_1  and  C_2
REMARK    2  A    between atoms: C_4  and  C_5
REMARK    3  A    between atoms: C_6  and  C_7
REMARK    4  A    between atoms: C_10  and  C_11
REMARK    5  A    between atoms: C_12  and  N_13
REMARK    6  A    between atoms: N_13  and  C_14
REMARK    7  A    between atoms: N_19  and  C_20
REMARK    8  A    between atoms: C_23  and  C_26
REMARK                            x       y       z     vdW  Elec       q    Type
REMARK                         _______ _______ _______ _____ _____    ______ ____
ROOT
ATOM      1  C   UNL     1      -6.048  -1.985 126.368  0.00  0.00    +0.000 A 
ATOM      2  C   UNL     1      -5.808  -2.682 125.200  0.00  0.00    +0.000 A 
ATOM      3  C   UNL     1      -5.909  -1.972 124.038  0.00  0.00    +0.000 A 
ATOM      4  N   UNL     1      -6.385  -0.731 124.001  0.00  0.00    +0.000 NA
ATOM      5  C   UNL     1      -6.776  -0.172 125.158  0.00  0.00    +0.000 A 
ATOM      6  N   UNL     1      -7.355   1.095 125.075  0.00  0.00    +0.000 N 
ATOM      7  N   UNL     1      -6.601  -0.751 126.363  0.00  0.00    +0.000 NA
ATOM      8  H   UNL     1      -7.562   1.518 125.966  0.00  0.00    +0.000 HD
ENDROOT
BRANCH   6   9
ATOM      9  C   UNL     1      -7.718   1.755 123.892  0.00  0.00    +0.000 A 
ATOM     10  C   UNL     1      -6.826   2.631 123.253  0.00  0.00    +0.000 A 
ATOM     11  C   UNL     1      -7.197   3.339 122.106  0.00  0.00    +0.000 A 
ATOM     12  C   UNL     1      -8.475   3.177 121.572  0.00  0.00    +0.000 A 
ATOM     13  C   UNL     1      -9.388   2.337 122.218  0.00  0.00    +0.000 A 
ATOM     14  C   UNL     1      -9.006   1.624 123.364  0.00  0.00    +0.000 A 
BRANCH  12  15
ATOM     15  C   UNL     1      -8.827   3.838 120.344  0.00  0.00    +0.000 C 
ATOM     16  N   UNL     1      -9.147   4.351 119.360  0.00  0.00    +0.000 NA
ENDBRANCH  12  15
ENDBRANCH   6   9
BRANCH   1  17
ATOM     17  N   UNL     1      -5.558  -2.542 127.567  0.00  0.00    +0.000 N 
ATOM     18  H   UNL     1      -4.708  -3.069 127.430  0.00  0.00    +0.000 HD
BRANCH  17  26
ATOM     19  C   UNL     1      -8.381  -3.546 128.134  0.00  0.00    +0.000 C 
ATOM     20  C   UNL     1      -7.446  -2.985 129.165  0.00  0.00    +0.000 A 
ATOM     21  C   UNL     1      -7.970  -2.910 130.474  0.00  0.00    +0.000 A 
ATOM     22  C   UNL     1      -7.202  -2.437 131.528  0.00  0.00    +0.000 A 
ATOM     23  C   UNL     1      -5.897  -2.034 131.244  0.00  0.00    +0.000 A 
ATOM     24  C   UNL     1      -5.352  -2.069 129.951  0.00  0.00    +0.000 A 
ATOM     25  C   UNL     1      -3.927  -1.608 129.809  0.00  0.00    +0.000 C 
ATOM     26  C   UNL     1      -6.124  -2.543 128.870  0.00  0.00    +0.000 A 
BRANCH  22  27
ATOM     27  C   UNL     1      -7.743  -2.388 132.892  0.00  0.00    +0.000 C 
ATOM     28  C   UNL     1      -7.203  -3.094 133.894  0.00  0.00    +0.000 C 
BRANCH  28  29
ATOM     29  C   UNL     1      -7.764  -3.056 135.307  0.00  0.00    +0.000 C 
ATOM     30  N   UNL     1      -8.230  -3.026 136.477  0.00  0.00    +0.000 NA
ENDBRANCH  28  29
ENDBRANCH  22  27
ENDBRANCH  17  26
ENDBRANCH   1  17
TORSDOF 6
ENDMDL
MODEL 7
REMARK VINA RESULT:      -7.4      6.185      7.680
REMARK  Name = Rilpivirine
REMARK  8 active torsions:
REMARK  status: ('A' for Active; 'I' for Inactive)
REMARK    1  A    between atoms: C_1  and  C_2
REMARK    2  A    between atoms: C_4  and  C_5
REMARK    3  A    between atoms: C_6  and  C_7
REMARK    4  A    between atoms: C_10  and  C_11
REMARK    5  A    between atoms: C_12  and  N_13
REMARK    6  A    between atoms: N_13  and  C_14
REMARK    7  A    between atoms: N_19  and  C_20
REMARK    8  A    between atoms: C_23  and  C_26
REMARK                            x       y       z     vdW  Elec       q    Type
REMARK                         _______ _______ _______ _____ _____    ______ ____
ROOT
ATOM      1  C   UNL     1      -7.633   3.027 128.177  0.00  0.00    +0.000 A 
ATOM      2  C   UNL     1      -7.693   3.505 126.882  0.00  0.00    +0.000 A 
ATOM      3  C   UNL     1      -8.299   4.715 126.710  0.00  0.00    +0.000 A 
ATOM      4  N   UNL     1      -8.957   5.329 127.690  0.00  0.00    +0.000 NA
ATOM      5  C   UNL     1      -9.018   4.719 128.885  0.00  0.00    +0.000 A 
ATOM      6  N   UNL     1      -9.791   5.342 129.865  0.00  0.00    +0.000 N 
ATOM      7  N   UNL     1      -8.351   3.584 129.178  0.00  0.00    +0.000 NA
ATOM      8  H   UNL     1      -9.750   4.902 130.770  0.00  0.00    +0.000 HD
ENDROOT
BRANCH   6   9
ATOM      9  C   UNL     1     -10.639   6.442 129.665  0.00  0.00    +0.000 A 
ATOM     10  C   UNL     1     -10.212   7.555 128.923  0.00  0.00    +0.000 A 
ATOM     11  C   UNL     1     -11.026   8.681 128.766  0.00  0.00    +0.000 A 
ATOM     12  C   UNL     1     -12.292   8.710 129.350  0.00  0.00    +0.000 A 
ATOM     13  C   UNL     1     -12.717   7.625 130.123  0.00  0.00    +0.000 A 
ATOM     14  C   UNL     1     -11.898   6.495 130.270  0.00  0.00    +0.000 A 
BRANCH  12  15
ATOM     15  C   UNL     1     -13.162   9.831 129.116  0.00  0.00    +0.000 C 
ATOM     16  N   UNL     1     -13.887  10.715 128.955  0.00  0.00    +0.000 NA
ENDBRANCH  12  15
ENDBRANCH   6   9
BRANCH   1  17
ATOM     17  N   UNL     1      -6.680   2.025 128.455  0.00  0.00    +0.000 N 
ATOM     18  H   UNL     1      -6.111   2.245 129.259  0.00  0.00    +0.000 HD
BRANCH  17  26
ATOM     19  C   UNL     1      -4.733   2.005 126.108  0.00  0.00    +0.000 C 
ATOM     20  C   UNL     1      -5.474   0.804 126.620  0.00  0.00    +0.000 A 
ATOM     21  C   UNL     1      -5.241  -0.393 125.909  0.00  0.00    +0.000 A 
ATOM     22  C   UNL     1      -5.841  -1.584 126.294  0.00  0.00    +0.000 A 
ATOM     23  C   UNL     1      -6.686  -1.551 127.403  0.00  0.00    +0.000 A 
ATOM     24  C   UNL     1      -6.962  -0.374 128.117  0.00  0.00    +0.000 A 
ATOM     25  C   UNL     1      -7.888  -0.504 129.295  0.00  0.00    +0.000 C 
ATOM     26  C   UNL     1      -6.363   0.844 127.733  0.00  0.00    +0.000 A 
BRANCH  22  27
ATOM     27  C   UNL     1      -5.572  -2.832 125.568  0.00  0.00    +0.000 C 
ATOM     28  C   UNL     1      -4.767  -2.870 124.498  0.00  0.00    +0.000 C 
BRANCH  28  29
ATOM     29  C   UNL     1      -4.493  -4.156 123.735  0.00  0.00    +0.000 C 
ATOM     30  N   UNL     1      -4.266  -5.222 123.103  0.00  0.00    +0.000 NA
ENDBRANCH  28  29
ENDBRANCH  22  27
ENDBRANCH  17  26
ENDBRANCH   1  17
TORSDOF 6
ENDMDL
MODEL 8
REMARK VINA RESULT:      -7.4      6.567      8.964
REMARK  Name = Rilpivirine
REMARK  8 active torsions:
REMARK  status: ('A' for Active; 'I' for Inactive)
REMARK    1  A    between atoms: C_1  and  C_2
REMARK    2  A    between atoms: C_4  and  C_5
REMARK    3  A    between atoms: C_6  and  C_7
REMARK    4  A    between atoms: C_10  and  C_11
REMARK    5  A    between atoms: C_12  and  N_13
REMARK    6  A    between atoms: N_13  and  C_14
REMARK    7  A    between atoms: N_19  and  C_20
REMARK    8  A    between atoms: C_23  and  C_26
REMARK                            x       y       z     vdW  Elec       q    Type
REMARK                         _______ _______ _______ _____ _____    ______ ____
ROOT
ATOM      1  C   UNL     1      -5.469   3.379 127.572  0.00  0.00    +0.000 A 
ATOM      2  C   UNL     1      -4.389   3.667 126.760  0.00  0.00    +0.000 A 
ATOM      3  C   UNL     1      -3.295   4.204 127.374  0.00  0.00    +0.000 A 
ATOM      4  N   UNL     1      -3.314   4.601 128.643  0.00  0.00    +0.000 NA
ATOM      5  C   UNL     1      -4.460   4.461 129.330  0.00  0.00    +0.000 A 
ATOM      6  N   UNL     1      -4.476   4.970 130.629  0.00  0.00    +0.000 N 
ATOM      7  N   UNL     1      -5.549   3.834 128.842  0.00  0.00    +0.000 NA
ATOM      8  H   UNL     1      -5.321   4.777 131.142  0.00  0.00    +0.000 HD
ENDROOT
BRANCH   6   9
ATOM      9  C   UNL     1      -3.473   5.757 131.214  0.00  0.00    +0.000 A 
ATOM     10  C   UNL     1      -2.312   5.169 131.742  0.00  0.00    +0.000 A 
ATOM     11  C   UNL     1      -1.333   5.937 132.379  0.00  0.00    +0.000 A 
ATOM     12  C   UNL     1      -1.498   7.317 132.496  0.00  0.00    +0.000 A 
ATOM     13  C   UNL     1      -2.666   7.913 132.009  0.00  0.00    +0.000 A 
ATOM     14  C   UNL     1      -3.641   7.137 131.363  0.00  0.00    +0.000 A 
BRANCH  12  15
ATOM     15  C   UNL     1      -0.452   8.117 133.073  0.00  0.00    +0.000 C 
ATOM     16  N   UNL     1       0.369   8.758 133.573  0.00  0.00    +0.000 NA
ENDBRANCH  12  15
ENDBRANCH   6   9
BRANCH   1  17
ATOM     17  N   UNL     1      -6.424   2.465 127.079  0.00  0.00    +0.000 N 
ATOM     18  H   UNL     1      -7.369   2.725 127.322  0.00  0.00    +0.000 HD
BRANCH  17  26
ATOM     19  C   UNL     1      -5.358  -0.036 128.459  0.00  0.00    +0.000 C 
ATOM     20  C   UNL     1      -5.725   0.053 127.007  0.00  0.00    +0.000 A 
ATOM     21  C   UNL     1      -5.514  -1.127 126.261  0.00  0.00    +0.000 A 
ATOM     22  C   UNL     1      -5.838  -1.191 124.913  0.00  0.00    +0.000 A 
ATOM     23  C   UNL     1      -6.372  -0.044 124.324  0.00  0.00    +0.000 A 
ATOM     24  C   UNL     1      -6.569   1.154 125.028  0.00  0.00    +0.000 A 
ATOM     25  C   UNL     1      -7.162   2.299 124.253  0.00  0.00    +0.000 C 
ATOM     26  C   UNL     1      -6.240   1.233 126.397  0.00  0.00    +0.000 A 
BRANCH  22  27
ATOM     27  C   UNL     1      -5.644  -2.430 124.149  0.00  0.00    +0.000 C 
ATOM     28  C   UNL     1      -4.610  -3.249 124.380  0.00  0.00    +0.000 C 
BRANCH  28  29
ATOM     29  C   UNL     1      -4.396  -4.527 123.586  0.00  0.00    +0.000 C 
ATOM     30  N   UNL     1      -4.219  -5.587 122.928  0.00  0.00    +0.000 NA
ENDBRANCH  28  29
ENDBRANCH  22  27
ENDBRANCH  17  26
ENDBRANCH   1  17
TORSDOF 6
ENDMDL
MODEL 9
REMARK VINA RESULT:      -7.3      4.904      6.256
REMARK  Name = Rilpivirine
REMARK  8 active torsions:
REMARK  status: ('A' for Active; 'I' for Inactive)
REMARK    1  A    between atoms: C_1  and  C_2
REMARK    2  A    between atoms: C_4  and  C_5
REMARK    3  A    between atoms: C_6  and  C_7
REMARK    4  A    between atoms: C_10  and  C_11
REMARK    5  A    between atoms: C_12  and  N_13
REMARK    6  A    between atoms: N_13  and  C_14
REMARK    7  A    between atoms: N_19  and  C_20
REMARK    8  A    between atoms: C_23  and  C_26
REMARK                            x       y       z     vdW  Elec       q    Type
REMARK                         _______ _______ _______ _____ _____    ______ ____
ROOT
ATOM      1  C   UNL     1      -7.363   0.095 128.204  0.00  0.00    +0.000 A 
ATOM      2  C   UNL     1      -7.987   0.369 127.002  0.00  0.00    +0.000 A 
ATOM      3  C   UNL     1      -8.571   1.597 126.888  0.00  0.00    +0.000 A 
ATOM      4  N   UNL     1      -8.699   2.423 127.922  0.00  0.00    +0.000 NA
ATOM      5  C   UNL     1      -8.232   2.017 129.115  0.00  0.00    +0.000 A 
ATOM      6  N   UNL     1      -8.463   2.866 130.197  0.00  0.00    +0.000 N 
ATOM      7  N   UNL     1      -7.537   0.876 129.293  0.00  0.00    +0.000 NA
ATOM      8  H   UNL     1      -8.031   2.571 131.058  0.00  0.00    +0.000 HD
ENDROOT
BRANCH   6   9
ATOM      9  C   UNL     1      -9.279   4.008 130.185  0.00  0.00    +0.000 A 
ATOM     10  C   UNL     1     -10.660   3.909 130.413  0.00  0.00    +0.000 A 
ATOM     11  C   UNL     1     -11.491   5.032 130.346  0.00  0.00    +0.000 A 
ATOM     12  C   UNL     1     -10.948   6.282 130.052  0.00  0.00    +0.000 A 
ATOM     13  C   UNL     1      -9.580   6.391 129.785  0.00  0.00    +0.000 A 
ATOM     14  C   UNL     1      -8.751   5.261 129.862  0.00  0.00    +0.000 A 
BRANCH  12  15
ATOM     15  C   UNL     1     -11.788   7.449 130.068  0.00  0.00    +0.000 C 
ATOM     16  N   UNL     1     -12.496   8.362 130.078  0.00  0.00    +0.000 NA
ENDBRANCH  12  15
ENDBRANCH   6   9
BRANCH   1  17
ATOM     17  N   UNL     1      -6.416  -0.950 128.219  0.00  0.00    +0.000 N 
ATOM     18  H   UNL     1      -5.924  -1.039 127.342  0.00  0.00    +0.000 HD
BRANCH  17  26
ATOM     19  C   UNL     1      -4.118  -0.641 130.199  0.00  0.00    +0.000 C 
ATOM     20  C   UNL     1      -5.059  -1.808 130.152  0.00  0.00    +0.000 A 
ATOM     21  C   UNL     1      -4.801  -2.827 131.095  0.00  0.00    +0.000 A 
ATOM     22  C   UNL     1      -5.612  -3.950 131.178  0.00  0.00    +0.000 A 
ATOM     23  C   UNL     1      -6.686  -4.036 130.292  0.00  0.00    +0.000 A 
ATOM     24  C   UNL     1      -6.956  -3.056 129.324  0.00  0.00    +0.000 A 
ATOM     25  C   UNL     1      -8.156  -3.291 128.447  0.00  0.00    +0.000 C 
ATOM     26  C   UNL     1      -6.137  -1.913 129.225  0.00  0.00    +0.000 A 
BRANCH  22  27
ATOM     27  C   UNL     1      -5.355  -4.992 132.180  0.00  0.00    +0.000 C 
ATOM     28  C   UNL     1      -5.186  -4.702 133.477  0.00  0.00    +0.000 C 
BRANCH  28  29
ATOM     29  C   UNL     1      -4.909  -5.774 134.518  0.00  0.00    +0.000 C 
ATOM     30  N   UNL     1      -4.679  -6.662 135.381  0.00  0.00    +0.000 NA
ENDBRANCH  28  29
ENDBRANCH  22  27
ENDBRANCH  17  26
ENDBRANCH   1  17
TORSDOF 6
ENDMDL
