MODEL 1
REMARK VINA RESULT:      -6.4      0.000      0.000
REMARK  Name = Riluzole
REMARK  2 active torsions:
REMARK  status: ('A' for Active; 'I' for Inactive)
REMARK    1  A    between atoms: C_8  and  O_9
REMARK    2  A    between atoms: O_9  and  C_10
REMARK                            x       y       z     vdW  Elec       q    Type
REMARK                         _______ _______ _______ _____ _____    ______ ____
ROOT
ATOM      1  N   UNL     1      -8.877   5.404 133.865  0.00  0.00    +0.000 N 
ATOM      2  C   UNL     1      -9.379   5.945 132.752  0.00  0.00    +0.000 A 
ATOM      3  N   UNL     1     -10.657   6.160 132.553  0.00  0.00    +0.000 NA
ATOM      4  C   UNL     1     -10.851   6.733 131.306  0.00  0.00    +0.000 A 
ATOM      5  C   UNL     1      -9.688   6.943 130.571  0.00  0.00    +0.000 A 
ATOM      6  S   UNL     1      -8.336   6.403 131.478  0.00  0.00    +0.000 S 
ATOM      7  C   UNL     1      -9.695   7.513 129.290  0.00  0.00    +0.000 A 
ATOM      8  C   UNL     1     -10.918   7.885 128.728  0.00  0.00    +0.000 A 
ATOM      9  C   UNL     1     -12.100   7.682 129.444  0.00  0.00    +0.000 A 
ATOM     10  C   UNL     1     -12.082   7.110 130.728  0.00  0.00    +0.000 A 
ATOM     11  H   UNL     1      -9.490   5.114 134.614  0.00  0.00    +0.000 HD
ATOM     12  H   UNL     1      -7.886   5.228 133.965  0.00  0.00    +0.000 HD
ENDROOT
BRANCH   8  13
ATOM     13  O   UNL     1     -11.066   8.454 127.491  0.00  0.00    +0.000 OA
BRANCH  13  14
ATOM     14  C   UNL     1     -11.108   7.567 126.379  0.00  0.00    +0.000 C 
ATOM     15  F   UNL     1     -10.134   6.633 126.466  0.00  0.00    +0.000 F 
ATOM     16  F   UNL     1     -12.310   6.954 126.292  0.00  0.00    +0.000 F 
ATOM     17  F   UNL     1     -10.914   8.269 125.242  0.00  0.00    +0.000 F 
ENDBRANCH  13  14
ENDBRANCH   8  13
TORSDOF 2
ENDMDL
MODEL 2
REMARK VINA RESULT:      -6.0     11.269     12.088
REMARK  Name = Riluzole
REMARK  2 active torsions:
REMARK  status: ('A' for Active; 'I' for Inactive)
REMARK    1  A    between atoms: C_8  and  O_9
REMARK    2  A    between atoms: O_9  and  C_10
REMARK                            x       y       z     vdW  Elec       q    Type
REMARK                         _______ _______ _______ _____ _____    ______ ____
ROOT
ATOM      1  N   UNL     1      -9.889   1.895 123.937  0.00  0.00    +0.000 N 
ATOM      2  C   UNL     1      -9.092   0.835 124.089  0.00  0.00    +0.000 A 
ATOM      3  N   UNL     1      -9.515  -0.406 124.105  0.00  0.00    +0.000 NA
ATOM      4  C   UNL     1      -8.444  -1.269 124.277  0.00  0.00    +0.000 A 
ATOM      5  C   UNL     1      -7.204  -0.646 124.390  0.00  0.00    +0.000 A 
ATOM      6  S   UNL     1      -7.407   1.053 124.279  0.00  0.00    +0.000 S 
ATOM      7  C   UNL     1      -6.011  -1.362 124.567  0.00  0.00    +0.000 A 
ATOM      8  C   UNL     1      -6.069  -2.756 124.633  0.00  0.00    +0.000 A 
ATOM      9  C   UNL     1      -7.302  -3.404 124.525  0.00  0.00    +0.000 A 
ATOM     10  C   UNL     1      -8.491  -2.677 124.347  0.00  0.00    +0.000 A 
ATOM     11  H   UNL     1     -10.888   1.774 123.842  0.00  0.00    +0.000 HD
ATOM     12  H   UNL     1      -9.525   2.838 123.960  0.00  0.00    +0.000 HD
ENDROOT
BRANCH   8  13
ATOM     13  O   UNL     1      -4.983  -3.574 124.798  0.00  0.00    +0.000 OA
BRANCH  13  14
ATOM     14  C   UNL     1      -4.501  -4.240 123.637  0.00  0.00    +0.000 C 
ATOM     15  F   UNL     1      -4.945  -3.636 122.512  0.00  0.00    +0.000 F 
ATOM     16  F   UNL     1      -3.150  -4.277 123.623  0.00  0.00    +0.000 F 
ATOM     17  F   UNL     1      -4.953  -5.512 123.635  0.00  0.00    +0.000 F 
ENDBRANCH  13  14
ENDBRANCH   8  13
TORSDOF 2
ENDMDL
MODEL 3
REMARK VINA RESULT:      -6.0     10.335     10.733
REMARK  Name = Riluzole
REMARK  2 active torsions:
REMARK  status: ('A' for Active; 'I' for Inactive)
REMARK    1  A    between atoms: C_8  and  O_9
REMARK    2  A    between atoms: O_9  and  C_10
REMARK                            x       y       z     vdW  Elec       q    Type
REMARK                         _______ _______ _______ _____ _____    ______ ____
ROOT
ATOM      1  N   UNL     1      -5.405  -2.852 130.891  0.00  0.00    +0.000 N 
ATOM      2  C   UNL     1      -6.193  -2.812 129.814  0.00  0.00    +0.000 A 
ATOM      3  N   UNL     1      -7.255  -3.564 129.653  0.00  0.00    +0.000 NA
ATOM      4  C   UNL     1      -7.854  -3.281 128.435  0.00  0.00    +0.000 A 
ATOM      5  C   UNL     1      -7.217  -2.297 127.684  0.00  0.00    +0.000 A 
ATOM      6  S   UNL     1      -5.841  -1.730 128.538  0.00  0.00    +0.000 S 
ATOM      7  C   UNL     1      -7.685  -1.882 126.429  0.00  0.00    +0.000 A 
ATOM      8  C   UNL     1      -8.835  -2.480 125.911  0.00  0.00    +0.000 A 
ATOM      9  C   UNL     1      -9.491  -3.472 126.644  0.00  0.00    +0.000 A 
ATOM     10  C   UNL     1      -9.014  -3.880 127.902  0.00  0.00    +0.000 A 
ATOM     11  H   UNL     1      -5.597  -3.501 131.641  0.00  0.00    +0.000 HD
ATOM     12  H   UNL     1      -4.578  -2.274 130.962  0.00  0.00    +0.000 HD
ENDROOT
BRANCH   8  13
ATOM     13  O   UNL     1      -9.399  -2.166 124.703  0.00  0.00    +0.000 OA
BRANCH  13  14
ATOM     14  C   UNL     1      -9.057  -3.000 123.602  0.00  0.00    +0.000 C 
ATOM     15  F   UNL     1      -8.742  -2.263 122.513  0.00  0.00    +0.000 F 
ATOM     16  F   UNL     1      -8.020  -3.811 123.910  0.00  0.00    +0.000 F 
ATOM     17  F   UNL     1     -10.116  -3.778 123.287  0.00  0.00    +0.000 F 
ENDBRANCH  13  14
ENDBRANCH   8  13
TORSDOF 2
ENDMDL
MODEL 4
REMARK VINA RESULT:      -5.9      4.683      6.161
REMARK  Name = Riluzole
REMARK  2 active torsions:
REMARK  status: ('A' for Active; 'I' for Inactive)
REMARK    1  A    between atoms: C_8  and  O_9
REMARK    2  A    between atoms: O_9  and  C_10
REMARK                            x       y       z     vdW  Elec       q    Type
REMARK                         _______ _______ _______ _____ _____    ______ ____
ROOT
ATOM      1  N   UNL     1     -11.683   8.687 128.041  0.00  0.00    +0.000 N 
ATOM      2  C   UNL     1     -11.036   8.049 129.018  0.00  0.00    +0.000 A 
ATOM      3  N   UNL     1      -9.731   8.019 129.138  0.00  0.00    +0.000 NA
ATOM      4  C   UNL     1      -9.375   7.278 130.254  0.00  0.00    +0.000 A 
ATOM      5  C   UNL     1     -10.445   6.751 130.972  0.00  0.00    +0.000 A 
ATOM      6  S   UNL     1     -11.917   7.202 130.215  0.00  0.00    +0.000 S 
ATOM      7  C   UNL     1     -10.272   5.978 132.129  0.00  0.00    +0.000 A 
ATOM      8  C   UNL     1      -8.975   5.725 132.579  0.00  0.00    +0.000 A 
ATOM      9  C   UNL     1      -7.884   6.241 131.875  0.00  0.00    +0.000 A 
ATOM     10  C   UNL     1      -8.068   7.016 130.717  0.00  0.00    +0.000 A 
ATOM     11  H   UNL     1     -11.168   9.174 127.320  0.00  0.00    +0.000 HD
ATOM     12  H   UNL     1     -12.692   8.660 127.969  0.00  0.00    +0.000 HD
ENDROOT
BRANCH   8  13
ATOM     13  O   UNL     1      -8.666   4.991 133.694  0.00  0.00    +0.000 OA
BRANCH  13  14
ATOM     14  C   UNL     1      -8.557   3.583 133.521  0.00  0.00    +0.000 C 
ATOM     15  F   UNL     1      -9.743   2.973 133.741  0.00  0.00    +0.000 F 
ATOM     16  F   UNL     1      -8.119   3.278 132.280  0.00  0.00    +0.000 F 
ATOM     17  F   UNL     1      -7.665   3.094 134.410  0.00  0.00    +0.000 F 
ENDBRANCH  13  14
ENDBRANCH   8  13
TORSDOF 2
ENDMDL
MODEL 5
REMARK VINA RESULT:      -5.9      9.063     10.057
REMARK  Name = Riluzole
REMARK  2 active torsions:
REMARK  status: ('A' for Active; 'I' for Inactive)
REMARK    1  A    between atoms: C_8  and  O_9
REMARK    2  A    between atoms: O_9  and  C_10
REMARK                            x       y       z     vdW  Elec       q    Type
REMARK                         _______ _______ _______ _____ _____    ______ ____
ROOT
ATOM      1  N   UNL     1      -7.248   4.849 125.035  0.00  0.00    +0.000 N 
ATOM      2  C   UNL     1      -7.556   3.620 124.615  0.00  0.00    +0.000 A 
ATOM      3  N   UNL     1      -8.700   3.298 124.062  0.00  0.00    +0.000 NA
ATOM      4  C   UNL     1      -8.705   1.951 123.736  0.00  0.00    +0.000 A 
ATOM      5  C   UNL     1      -7.536   1.267 124.057  0.00  0.00    +0.000 A 
ATOM      6  S   UNL     1      -6.422   2.351 124.783  0.00  0.00    +0.000 S 
ATOM      7  C   UNL     1      -7.364  -0.101 123.798  0.00  0.00    +0.000 A 
ATOM      8  C   UNL     1      -8.407  -0.805 123.195  0.00  0.00    +0.000 A 
ATOM      9  C   UNL     1      -9.592  -0.142 122.865  0.00  0.00    +0.000 A 
ATOM     10  C   UNL     1      -9.754   1.229 123.128  0.00  0.00    +0.000 A 
ATOM     11  H   UNL     1      -7.921   5.600 124.955  0.00  0.00    +0.000 HD
ATOM     12  H   UNL     1      -6.364   5.048 125.484  0.00  0.00    +0.000 HD
ENDROOT
BRANCH   8  13
ATOM     13  O   UNL     1      -8.369  -2.139 122.884  0.00  0.00    +0.000 OA
BRANCH  13  14
ATOM     14  C   UNL     1      -9.006  -3.026 123.795  0.00  0.00    +0.000 C 
ATOM     15  F   UNL     1      -9.422  -2.370 124.901  0.00  0.00    +0.000 F 
ATOM     16  F   UNL     1     -10.061  -3.642 123.216  0.00  0.00    +0.000 F 
ATOM     17  F   UNL     1      -8.127  -3.977 124.178  0.00  0.00    +0.000 F 
ENDBRANCH  13  14
ENDBRANCH   8  13
TORSDOF 2
ENDMDL
MODEL 6
REMARK VINA RESULT:      -5.6      4.202      5.272
REMARK  Name = Riluzole
REMARK  2 active torsions:
REMARK  status: ('A' for Active; 'I' for Inactive)
REMARK    1  A    between atoms: C_8  and  O_9
REMARK    2  A    between atoms: O_9  and  C_10
REMARK                            x       y       z     vdW  Elec       q    Type
REMARK                         _______ _______ _______ _____ _____    ______ ____
ROOT
ATOM      1  N   UNL     1     -13.411  10.311 128.853  0.00  0.00    +0.000 N 
ATOM      2  C   UNL     1     -12.701   9.236 129.202  0.00  0.00    +0.000 A 
ATOM      3  N   UNL     1     -11.728   8.732 128.483  0.00  0.00    +0.000 NA
ATOM      4  C   UNL     1     -11.193   7.623 129.120  0.00  0.00    +0.000 A 
ATOM      5  C   UNL     1     -11.788   7.305 130.338  0.00  0.00    +0.000 A 
ATOM      6  S   UNL     1     -13.041   8.428 130.671  0.00  0.00    +0.000 S 
ATOM      7  C   UNL     1     -11.374   6.218 131.120  0.00  0.00    +0.000 A 
ATOM      8  C   UNL     1     -10.324   5.421 130.659  0.00  0.00    +0.000 A 
ATOM      9  C   UNL     1      -9.713   5.718 129.438  0.00  0.00    +0.000 A 
ATOM     10  C   UNL     1     -10.135   6.811 128.663  0.00  0.00    +0.000 A 
ATOM     11  H   UNL     1     -13.227  10.782 127.978  0.00  0.00    +0.000 HD
ATOM     12  H   UNL     1     -14.173  10.649 129.425  0.00  0.00    +0.000 HD
ENDROOT
BRANCH   8  13
ATOM     13  O   UNL     1      -9.821   4.335 131.325  0.00  0.00    +0.000 OA
BRANCH  13  14
ATOM     14  C   UNL     1     -10.283   3.056 130.904  0.00  0.00    +0.000 C 
ATOM     15  F   UNL     1      -9.506   2.559 129.916  0.00  0.00    +0.000 F 
ATOM     16  F   UNL     1     -10.308   2.185 131.937  0.00  0.00    +0.000 F 
ATOM     17  F   UNL     1     -11.541   3.173 130.427  0.00  0.00    +0.000 F 
ENDBRANCH  13  14
ENDBRANCH   8  13
TORSDOF 2
ENDMDL
MODEL 7
REMARK VINA RESULT:      -5.6      9.715     10.161
REMARK  Name = Riluzole
REMARK  2 active torsions:
REMARK  status: ('A' for Active; 'I' for Inactive)
REMARK    1  A    between atoms: C_8  and  O_9
REMARK    2  A    between atoms: O_9  and  C_10
REMARK                            x       y       z     vdW  Elec       q    Type
REMARK                         _______ _______ _______ _____ _____    ______ ____
ROOT
ATOM      1  N   UNL     1      -4.584   0.841 128.938  0.00  0.00    +0.000 N 
ATOM      2  C   UNL     1      -5.515   0.121 128.308  0.00  0.00    +0.000 A 
ATOM      3  N   UNL     1      -5.951  -1.043 128.726  0.00  0.00    +0.000 NA
ATOM      4  C   UNL     1      -6.914  -1.527 127.855  0.00  0.00    +0.000 A 
ATOM      5  C   UNL     1      -7.194  -0.698 126.772  0.00  0.00    +0.000 A 
ATOM      6  S   UNL     1      -6.217   0.709 126.864  0.00  0.00    +0.000 S 
ATOM      7  C   UNL     1      -8.142  -1.027 125.792  0.00  0.00    +0.000 A 
ATOM      8  C   UNL     1      -8.833  -2.235 125.907  0.00  0.00    +0.000 A 
ATOM      9  C   UNL     1      -8.569  -3.086 126.983  0.00  0.00    +0.000 A 
ATOM     10  C   UNL     1      -7.617  -2.746 127.960  0.00  0.00    +0.000 A 
ATOM     11  H   UNL     1      -4.152   0.491 129.783  0.00  0.00    +0.000 HD
ATOM     12  H   UNL     1      -4.255   1.722 128.565  0.00  0.00    +0.000 HD
ENDROOT
BRANCH   8  13
ATOM     13  O   UNL     1      -9.785  -2.674 125.025  0.00  0.00    +0.000 OA
BRANCH  13  14
ATOM     14  C   UNL     1      -9.328  -3.074 123.738  0.00  0.00    +0.000 C 
ATOM     15  F   UNL     1      -9.198  -2.008 122.916  0.00  0.00    +0.000 F 
ATOM     16  F   UNL     1      -8.145  -3.722 123.822  0.00  0.00    +0.000 F 
ATOM     17  F   UNL     1     -10.228  -3.918 123.189  0.00  0.00    +0.000 F 
ENDBRANCH  13  14
ENDBRANCH   8  13
TORSDOF 2
ENDMDL
MODEL 8
REMARK VINA RESULT:      -5.4      2.833      3.505
REMARK  Name = Riluzole
REMARK  2 active torsions:
REMARK  status: ('A' for Active; 'I' for Inactive)
REMARK    1  A    between atoms: C_8  and  O_9
REMARK    2  A    between atoms: O_9  and  C_10
REMARK                            x       y       z     vdW  Elec       q    Type
REMARK                         _______ _______ _______ _____ _____    ______ ____
ROOT
ATOM      1  N   UNL     1      -6.585   2.936 131.202  0.00  0.00    +0.000 N 
ATOM      2  C   UNL     1      -7.695   3.675 131.153  0.00  0.00    +0.000 A 
ATOM      3  N   UNL     1      -8.137   4.404 132.149  0.00  0.00    +0.000 NA
ATOM      4  C   UNL     1      -9.306   5.050 131.781  0.00  0.00    +0.000 A 
ATOM      5  C   UNL     1      -9.734   4.791 130.482  0.00  0.00    +0.000 A 
ATOM      6  S   UNL     1      -8.636   3.711 129.726  0.00  0.00    +0.000 S 
ATOM      7  C   UNL     1     -10.895   5.360 129.939  0.00  0.00    +0.000 A 
ATOM      8  C   UNL     1     -11.654   6.221 130.734  0.00  0.00    +0.000 A 
ATOM      9  C   UNL     1     -11.247   6.496 132.043  0.00  0.00    +0.000 A 
ATOM     10  C   UNL     1     -10.081   5.920 132.576  0.00  0.00    +0.000 A 
ATOM     11  H   UNL     1      -6.034   2.896 132.048  0.00  0.00    +0.000 HD
ATOM     12  H   UNL     1      -6.296   2.365 130.419  0.00  0.00    +0.000 HD
ENDROOT
BRANCH   8  13
ATOM     13  O   UNL     1     -12.803   6.846 130.328  0.00  0.00    +0.000 OA
BRANCH  13  14
ATOM     14  C   UNL     1     -12.680   8.198 129.901  0.00  0.00    +0.000 C 
ATOM     15  F   UNL     1     -13.444   8.434 128.811  0.00  0.00    +0.000 F 
ATOM     16  F   UNL     1     -13.030   9.052 130.888  0.00  0.00    +0.000 F 
ATOM     17  F   UNL     1     -11.394   8.445 129.572  0.00  0.00    +0.000 F 
ENDBRANCH  13  14
ENDBRANCH   8  13
TORSDOF 2
ENDMDL
MODEL 9
REMARK VINA RESULT:      -5.3      2.435      2.683
REMARK  Name = Riluzole
REMARK  2 active torsions:
REMARK  status: ('A' for Active; 'I' for Inactive)
REMARK    1  A    between atoms: C_8  and  O_9
REMARK    2  A    between atoms: O_9  and  C_10
REMARK                            x       y       z     vdW  Elec       q    Type
REMARK                         _______ _______ _______ _____ _____    ______ ____
ROOT
ATOM      1  N   UNL     1      -6.707   3.339 130.997  0.00  0.00    +0.000 N 
ATOM      2  C   UNL     1      -7.763   4.134 130.807  0.00  0.00    +0.000 A 
ATOM      3  N   UNL     1      -8.995   3.703 130.687  0.00  0.00    +0.000 NA
ATOM      4  C   UNL     1      -9.856   4.774 130.504  0.00  0.00    +0.000 A 
ATOM      5  C   UNL     1      -9.241   6.022 130.489  0.00  0.00    +0.000 A 
ATOM      6  S   UNL     1      -7.551   5.828 130.709  0.00  0.00    +0.000 S 
ATOM      7  C   UNL     1      -9.957   7.216 130.317  0.00  0.00    +0.000 A 
ATOM      8  C   UNL     1     -11.342   7.150 130.152  0.00  0.00    +0.000 A 
ATOM      9  C   UNL     1     -11.982   5.908 130.160  0.00  0.00    +0.000 A 
ATOM     10  C   UNL     1     -11.255   4.718 130.335  0.00  0.00    +0.000 A 
ATOM     11  H   UNL     1      -6.824   2.336 131.037  0.00  0.00    +0.000 HD
ATOM     12  H   UNL     1      -5.769   3.713 131.054  0.00  0.00    +0.000 HD
ENDROOT
BRANCH   8  13
ATOM     13  O   UNL     1     -12.158   8.236 129.979  0.00  0.00    +0.000 OA
BRANCH  13  14
ATOM     14  C   UNL     1     -12.471   8.593 128.638  0.00  0.00    +0.000 C 
ATOM     15  F   UNL     1     -11.350   8.711 127.893  0.00  0.00    +0.000 F 
ATOM     16  F   UNL     1     -13.293   7.682 128.072  0.00  0.00    +0.000 F 
ATOM     17  F   UNL     1     -13.104   9.786 128.632  0.00  0.00    +0.000 F 
ENDBRANCH  13  14
ENDBRANCH   8  13
TORSDOF 2
ENDMDL
