MODEL 1
REMARK VINA RESULT:      -6.1      0.000      0.000
REMARK  Name = Rimantadine
REMARK  3 active torsions:
REMARK  status: ('A' for Active; 'I' for Inactive)
REMARK    1  A    between atoms: C_1  and  C_2
REMARK    2  A    between atoms: C_2  and  N_3
REMARK    3  A    between atoms: C_2  and  C_4
REMARK                            x       y       z     vdW  Elec       q    Type
REMARK                         _______ _______ _______ _____ _____    ______ ____
ROOT
ATOM      1  C   UNL     1     -11.803   6.509 129.605  0.00  0.00    +0.000 C 
ATOM      2  C   UNL     1     -13.079   6.216 128.759  0.00  0.00    +0.000 C 
ATOM      3  C   UNL     1     -13.232   7.258 127.626  0.00  0.00    +0.000 C 
ATOM      4  C   UNL     1     -13.342   8.666 128.235  0.00  0.00    +0.000 C 
ATOM      5  C   UNL     1     -12.086   8.982 129.059  0.00  0.00    +0.000 C 
ATOM      6  C   UNL     1     -10.841   8.910 128.164  0.00  0.00    +0.000 C 
ATOM      7  C   UNL     1     -10.736   7.521 127.518  0.00  0.00    +0.000 C 
ATOM      8  C   UNL     1     -11.999   7.213 126.708  0.00  0.00    +0.000 C 
ATOM      9  C   UNL     1     -10.591   6.478 128.627  0.00  0.00    +0.000 C 
ATOM     10  C   UNL     1     -11.953   7.947 130.180  0.00  0.00    +0.000 C 
ENDROOT
BRANCH   1  12
ATOM     11  C   UNL     1     -10.187   4.836 130.737  0.00  0.00    +0.000 C 
ATOM     12  C   UNL     1     -11.593   5.454 130.745  0.00  0.00    +0.000 C 
BRANCH  12  13
ATOM     13  N   UNL     1     -11.847   6.020 132.077  0.00  0.00    +0.000 NA
ATOM     14  H   UNL     1     -10.980   6.384 132.462  0.00  0.00    +0.000 HD
ATOM     15  H   UNL     1     -12.120   5.270 132.718  0.00  0.00    +0.000 HD
ENDBRANCH  12  13
ENDBRANCH   1  12
TORSDOF 2
ENDMDL
MODEL 2
REMARK VINA RESULT:      -6.1      0.148      2.090
REMARK  Name = Rimantadine
REMARK  3 active torsions:
REMARK  status: ('A' for Active; 'I' for Inactive)
REMARK    1  A    between atoms: C_1  and  C_2
REMARK    2  A    between atoms: C_2  and  N_3
REMARK    3  A    between atoms: C_2  and  C_4
REMARK                            x       y       z     vdW  Elec       q    Type
REMARK                         _______ _______ _______ _____ _____    ______ ____
ROOT
ATOM      1  C   UNL     1     -11.834   6.488 129.574  0.00  0.00    +0.000 C 
ATOM      2  C   UNL     1     -11.962   7.915 130.188  0.00  0.00    +0.000 C 
ATOM      3  C   UNL     1     -12.095   8.978 129.073  0.00  0.00    +0.000 C 
ATOM      4  C   UNL     1     -10.854   8.929 128.166  0.00  0.00    +0.000 C 
ATOM      5  C   UNL     1     -10.719   7.535 127.535  0.00  0.00    +0.000 C 
ATOM      6  C   UNL     1     -11.969   7.213 126.706  0.00  0.00    +0.000 C 
ATOM      7  C   UNL     1     -13.223   7.295 127.589  0.00  0.00    +0.000 C 
ATOM      8  C   UNL     1     -13.340   8.685 128.221  0.00  0.00    +0.000 C 
ATOM      9  C   UNL     1     -13.103   6.253 128.702  0.00  0.00    +0.000 C 
ATOM     10  C   UNL     1     -10.581   6.496 128.652  0.00  0.00    +0.000 C 
ENDROOT
BRANCH   1  12
ATOM     11  C   UNL     1     -10.468   4.514 130.537  0.00  0.00    +0.000 C 
ATOM     12  C   UNL     1     -11.731   5.376 130.673  0.00  0.00    +0.000 C 
BRANCH  12  13
ATOM     13  N   UNL     1     -11.771   5.936 132.032  0.00  0.00    +0.000 NA
ATOM     14  H   UNL     1     -11.285   6.829 132.045  0.00  0.00    +0.000 HD
ATOM     15  H   UNL     1     -11.229   5.337 132.661  0.00  0.00    +0.000 HD
ENDBRANCH  12  13
ENDBRANCH   1  12
TORSDOF 2
ENDMDL
MODEL 3
REMARK VINA RESULT:      -6.0      0.238      2.103
REMARK  Name = Rimantadine
REMARK  3 active torsions:
REMARK  status: ('A' for Active; 'I' for Inactive)
REMARK    1  A    between atoms: C_1  and  C_2
REMARK    2  A    between atoms: C_2  and  N_3
REMARK    3  A    between atoms: C_2  and  C_4
REMARK                            x       y       z     vdW  Elec       q    Type
REMARK                         _______ _______ _______ _____ _____    ______ ____
ROOT
ATOM      1  C   UNL     1     -11.800   6.471 129.608  0.00  0.00    +0.000 C 
ATOM      2  C   UNL     1     -10.557   6.434 128.667  0.00  0.00    +0.000 C 
ATOM      3  C   UNL     1     -10.687   7.497 127.552  0.00  0.00    +0.000 C 
ATOM      4  C   UNL     1     -11.954   7.221 126.725  0.00  0.00    +0.000 C 
ATOM      5  C   UNL     1     -13.193   7.270 127.629  0.00  0.00    +0.000 C 
ATOM      6  C   UNL     1     -13.306   8.651 128.288  0.00  0.00    +0.000 C 
ATOM      7  C   UNL     1     -12.032   8.960 129.088  0.00  0.00    +0.000 C 
ATOM      8  C   UNL     1     -10.803   8.896 128.177  0.00  0.00    +0.000 C 
ATOM      9  C   UNL     1     -11.886   7.912 130.192  0.00  0.00    +0.000 C 
ATOM     10  C   UNL     1     -13.052   6.208 128.723  0.00  0.00    +0.000 C 
ENDROOT
BRANCH   1  12
ATOM     11  C   UNL     1     -10.632   4.348 130.515  0.00  0.00    +0.000 C 
ATOM     12  C   UNL     1     -11.691   5.429 130.774  0.00  0.00    +0.000 C 
BRANCH  12  13
ATOM     13  N   UNL     1     -11.398   6.071 132.063  0.00  0.00    +0.000 NA
ATOM     14  H   UNL     1     -11.463   5.382 132.808  0.00  0.00    +0.000 HD
ATOM     15  H   UNL     1     -12.130   6.753 132.277  0.00  0.00    +0.000 HD
ENDBRANCH  12  13
ENDBRANCH   1  12
TORSDOF 2
ENDMDL
MODEL 4
REMARK VINA RESULT:      -5.6      9.099     10.529
REMARK  Name = Rimantadine
REMARK  3 active torsions:
REMARK  status: ('A' for Active; 'I' for Inactive)
REMARK    1  A    between atoms: C_1  and  C_2
REMARK    2  A    between atoms: C_2  and  N_3
REMARK    3  A    between atoms: C_2  and  C_4
REMARK                            x       y       z     vdW  Elec       q    Type
REMARK                         _______ _______ _______ _____ _____    ______ ____
ROOT
ATOM      1  C   UNL     1      -8.767  -0.014 124.111  0.00  0.00    +0.000 C 
ATOM      2  C   UNL     1      -9.032  -0.856 125.396  0.00  0.00    +0.000 C 
ATOM      3  C   UNL     1      -8.300  -2.217 125.316  0.00  0.00    +0.000 C 
ATOM      4  C   UNL     1      -8.801  -2.997 124.090  0.00  0.00    +0.000 C 
ATOM      5  C   UNL     1      -8.534  -2.193 122.809  0.00  0.00    +0.000 C 
ATOM      6  C   UNL     1      -7.030  -1.926 122.664  0.00  0.00    +0.000 C 
ATOM      7  C   UNL     1      -6.505  -1.179 123.899  0.00  0.00    +0.000 C 
ATOM      8  C   UNL     1      -6.787  -1.986 125.169  0.00  0.00    +0.000 C 
ATOM      9  C   UNL     1      -7.225   0.167 123.995  0.00  0.00    +0.000 C 
ATOM     10  C   UNL     1      -9.270  -0.853 122.901  0.00  0.00    +0.000 C 
ENDROOT
BRANCH   1  12
ATOM     11  C   UNL     1      -8.950   2.356 123.092  0.00  0.00    +0.000 C 
ATOM     12  C   UNL     1      -9.464   1.388 124.167  0.00  0.00    +0.000 C 
BRANCH  12  13
ATOM     13  N   UNL     1     -10.925   1.285 124.043  0.00  0.00    +0.000 NA
ATOM     14  H   UNL     1     -11.214   1.641 123.136  0.00  0.00    +0.000 HD
ATOM     15  H   UNL     1     -11.368   1.912 124.721  0.00  0.00    +0.000 HD
ENDBRANCH  12  13
ENDBRANCH   1  12
TORSDOF 2
ENDMDL
MODEL 5
REMARK VINA RESULT:      -5.6      9.068     10.525
REMARK  Name = Rimantadine
REMARK  3 active torsions:
REMARK  status: ('A' for Active; 'I' for Inactive)
REMARK    1  A    between atoms: C_1  and  C_2
REMARK    2  A    between atoms: C_2  and  N_3
REMARK    3  A    between atoms: C_2  and  C_4
REMARK                            x       y       z     vdW  Elec       q    Type
REMARK                         _______ _______ _______ _____ _____    ______ ____
ROOT
ATOM      1  C   UNL     1      -8.769   0.013 124.159  0.00  0.00    +0.000 C 
ATOM      2  C   UNL     1      -7.222   0.152 124.023  0.00  0.00    +0.000 C 
ATOM      3  C   UNL     1      -6.557  -1.241 123.920  0.00  0.00    +0.000 C 
ATOM      4  C   UNL     1      -6.881  -2.058 125.182  0.00  0.00    +0.000 C 
ATOM      5  C   UNL     1      -8.400  -2.223 125.326  0.00  0.00    +0.000 C 
ATOM      6  C   UNL     1      -8.968  -2.941 124.094  0.00  0.00    +0.000 C 
ATOM      7  C   UNL     1      -8.621  -2.157 122.820  0.00  0.00    +0.000 C 
ATOM      8  C   UNL     1      -7.104  -1.989 122.694  0.00  0.00    +0.000 C 
ATOM      9  C   UNL     1      -9.267  -0.773 122.909  0.00  0.00    +0.000 C 
ATOM     10  C   UNL     1      -9.043  -0.837 125.433  0.00  0.00    +0.000 C 
ENDROOT
BRANCH   1  12
ATOM     11  C   UNL     1      -8.949   2.408 123.200  0.00  0.00    +0.000 C 
ATOM     12  C   UNL     1      -9.485   1.405 124.231  0.00  0.00    +0.000 C 
BRANCH  12  13
ATOM     13  N   UNL     1     -10.940   1.288 124.056  0.00  0.00    +0.000 NA
ATOM     14  H   UNL     1     -11.264   2.009 123.417  0.00  0.00    +0.000 HD
ATOM     15  H   UNL     1     -11.406   1.500 124.943  0.00  0.00    +0.000 HD
ENDBRANCH  12  13
ENDBRANCH   1  12
TORSDOF 2
ENDMDL
MODEL 6
REMARK VINA RESULT:      -5.6      9.535     11.179
REMARK  Name = Rimantadine
REMARK  3 active torsions:
REMARK  status: ('A' for Active; 'I' for Inactive)
REMARK    1  A    between atoms: C_1  and  C_2
REMARK    2  A    between atoms: C_2  and  N_3
REMARK    3  A    between atoms: C_2  and  C_4
REMARK                            x       y       z     vdW  Elec       q    Type
REMARK                         _______ _______ _______ _____ _____    ______ ____
ROOT
ATOM      1  C   UNL     1      -8.609  -1.110 124.312  0.00  0.00    +0.000 C 
ATOM      2  C   UNL     1      -9.004  -2.475 123.670  0.00  0.00    +0.000 C 
ATOM      3  C   UNL     1      -8.270  -3.641 124.373  0.00  0.00    +0.000 C 
ATOM      4  C   UNL     1      -6.750  -3.442 124.242  0.00  0.00    +0.000 C 
ATOM      5  C   UNL     1      -6.336  -2.111 124.885  0.00  0.00    +0.000 C 
ATOM      6  C   UNL     1      -6.725  -2.103 126.369  0.00  0.00    +0.000 C 
ATOM      7  C   UNL     1      -8.235  -2.338 126.520  0.00  0.00    +0.000 C 
ATOM      8  C   UNL     1      -8.637  -3.663 125.865  0.00  0.00    +0.000 C 
ATOM      9  C   UNL     1      -8.976  -1.196 125.823  0.00  0.00    +0.000 C 
ATOM     10  C   UNL     1      -7.066  -0.968 124.173  0.00  0.00    +0.000 C 
ENDROOT
BRANCH   1  12
ATOM     11  C   UNL     1      -8.416   1.234 123.237  0.00  0.00    +0.000 C 
ATOM     12  C   UNL     1      -9.360   0.095 123.650  0.00  0.00    +0.000 C 
BRANCH  12  13
ATOM     13  N   UNL     1     -10.138  -0.316 122.473  0.00  0.00    +0.000 NA
ATOM     14  H   UNL     1     -11.047   0.137 122.493  0.00  0.00    +0.000 HD
ATOM     15  H   UNL     1     -10.345  -1.316 122.536  0.00  0.00    +0.000 HD
ENDBRANCH  12  13
ENDBRANCH   1  12
TORSDOF 2
ENDMDL
MODEL 7
REMARK VINA RESULT:      -5.5      9.384     10.820
REMARK  Name = Rimantadine
REMARK  3 active torsions:
REMARK  status: ('A' for Active; 'I' for Inactive)
REMARK    1  A    between atoms: C_1  and  C_2
REMARK    2  A    between atoms: C_2  and  N_3
REMARK    3  A    between atoms: C_2  and  C_4
REMARK                            x       y       z     vdW  Elec       q    Type
REMARK                         _______ _______ _______ _____ _____    ______ ____
ROOT
ATOM      1  C   UNL     1      -8.521  -0.983 125.099  0.00  0.00    +0.000 C 
ATOM      2  C   UNL     1      -6.973  -1.158 125.050  0.00  0.00    +0.000 C 
ATOM      3  C   UNL     1      -6.584  -2.301 124.083  0.00  0.00    +0.000 C 
ATOM      4  C   UNL     1      -7.226  -3.615 124.558  0.00  0.00    +0.000 C 
ATOM      5  C   UNL     1      -8.754  -3.471 124.596  0.00  0.00    +0.000 C 
ATOM      6  C   UNL     1      -9.281  -3.123 123.198  0.00  0.00    +0.000 C 
ATOM      7  C   UNL     1      -8.621  -1.831 122.692  0.00  0.00    +0.000 C 
ATOM      8  C   UNL     1      -7.098  -1.984 122.670  0.00  0.00    +0.000 C 
ATOM      9  C   UNL     1      -8.992  -0.692 123.643  0.00  0.00    +0.000 C 
ATOM     10  C   UNL     1      -9.122  -2.341 125.562  0.00  0.00    +0.000 C 
ENDROOT
BRANCH   1  12
ATOM     11  C   UNL     1      -7.915   1.316 126.116  0.00  0.00    +0.000 C 
ATOM     12  C   UNL     1      -8.956   0.190 126.043  0.00  0.00    +0.000 C 
BRANCH  12  13
ATOM     13  N   UNL     1     -10.246   0.771 125.646  0.00  0.00    +0.000 NA
ATOM     14  H   UNL     1     -10.420   1.612 126.188  0.00  0.00    +0.000 HD
ATOM     15  H   UNL     1     -11.001   0.132 125.910  0.00  0.00    +0.000 HD
ENDBRANCH  12  13
ENDBRANCH   1  12
TORSDOF 2
ENDMDL
MODEL 8
REMARK VINA RESULT:      -5.5      9.375     10.770
REMARK  Name = Rimantadine
REMARK  3 active torsions:
REMARK  status: ('A' for Active; 'I' for Inactive)
REMARK    1  A    between atoms: C_1  and  C_2
REMARK    2  A    between atoms: C_2  and  N_3
REMARK    3  A    between atoms: C_2  and  C_4
REMARK                            x       y       z     vdW  Elec       q    Type
REMARK                         _______ _______ _______ _____ _____    ______ ____
ROOT
ATOM      1  C   UNL     1      -8.343  -1.081 125.262  0.00  0.00    +0.000 C 
ATOM      2  C   UNL     1      -8.918  -0.618 123.889  0.00  0.00    +0.000 C 
ATOM      3  C   UNL     1      -8.702  -1.707 122.813  0.00  0.00    +0.000 C 
ATOM      4  C   UNL     1      -7.197  -1.988 122.662  0.00  0.00    +0.000 C 
ATOM      5  C   UNL     1      -6.614  -2.463 124.000  0.00  0.00    +0.000 C 
ATOM      6  C   UNL     1      -7.327  -3.743 124.456  0.00  0.00    +0.000 C 
ATOM      7  C   UNL     1      -8.837  -3.491 124.576  0.00  0.00    +0.000 C 
ATOM      8  C   UNL     1      -9.405  -3.006 123.239  0.00  0.00    +0.000 C 
ATOM      9  C   UNL     1      -9.067  -2.410 125.633  0.00  0.00    +0.000 C 
ATOM     10  C   UNL     1      -6.829  -1.371 125.052  0.00  0.00    +0.000 C 
ENDROOT
BRANCH   1  12
ATOM     11  C   UNL     1      -7.282   0.702 126.807  0.00  0.00    +0.000 C 
ATOM     12  C   UNL     1      -8.573  -0.018 126.390  0.00  0.00    +0.000 C 
BRANCH  12  13
ATOM     13  N   UNL     1      -9.567   0.993 126.003  0.00  0.00    +0.000 NA
ATOM     14  H   UNL     1      -9.208   1.542 125.227  0.00  0.00    +0.000 HD
ATOM     15  H   UNL     1      -9.681   1.666 126.766  0.00  0.00    +0.000 HD
ENDBRANCH  12  13
ENDBRANCH   1  12
TORSDOF 2
ENDMDL
MODEL 9
REMARK VINA RESULT:      -5.5      9.695     11.042
REMARK  Name = Rimantadine
REMARK  3 active torsions:
REMARK  status: ('A' for Active; 'I' for Inactive)
REMARK    1  A    between atoms: C_1  and  C_2
REMARK    2  A    between atoms: C_2  and  N_3
REMARK    3  A    between atoms: C_2  and  C_4
REMARK                            x       y       z     vdW  Elec       q    Type
REMARK                         _______ _______ _______ _____ _____    ______ ____
ROOT
ATOM      1  C   UNL     1      -7.908  -2.429 126.401  0.00  0.00    +0.000 C 
ATOM      2  C   UNL     1      -8.749  -1.217 125.894  0.00  0.00    +0.000 C 
ATOM      3  C   UNL     1      -8.470  -0.950 124.396  0.00  0.00    +0.000 C 
ATOM      4  C   UNL     1      -6.975  -0.644 124.200  0.00  0.00    +0.000 C 
ATOM      5  C   UNL     1      -6.128  -1.833 124.677  0.00  0.00    +0.000 C 
ATOM      6  C   UNL     1      -6.500  -3.092 123.882  0.00  0.00    +0.000 C 
ATOM      7  C   UNL     1      -7.999  -3.390 124.037  0.00  0.00    +0.000 C 
ATOM      8  C   UNL     1      -8.831  -2.193 123.569  0.00  0.00    +0.000 C 
ATOM      9  C   UNL     1      -8.292  -3.651 125.515  0.00  0.00    +0.000 C 
ATOM     10  C   UNL     1      -6.411  -2.080 126.162  0.00  0.00    +0.000 C 
ENDROOT
BRANCH   1  12
ATOM     11  C   UNL     1      -8.997  -4.046 128.101  0.00  0.00    +0.000 C 
ATOM     12  C   UNL     1      -8.188  -2.755 127.908  0.00  0.00    +0.000 C 
BRANCH  12  13
ATOM     13  N   UNL     1      -6.949  -2.859 128.691  0.00  0.00    +0.000 NA
ATOM     14  H   UNL     1      -6.444  -3.697 128.416  0.00  0.00    +0.000 HD
ATOM     15  H   UNL     1      -7.183  -3.009 129.677  0.00  0.00    +0.000 HD
ENDBRANCH  12  13
ENDBRANCH   1  12
TORSDOF 2
ENDMDL
