MODEL 1
REMARK VINA RESULT:      -9.1      0.000      0.000
REMARK  Name = Rimexolone
REMARK  8 active torsions:
REMARK  status: ('A' for Active; 'I' for Inactive)
REMARK    1  A    between atoms: C_4  and  C_5
REMARK    2  A    between atoms: C_6  and  C_7
REMARK    3  A    between atoms: C_6  and  C_8
REMARK    4  A    between atoms: C_8  and  C_10
REMARK    5  A    between atoms: C_10  and  C_11
REMARK    6  A    between atoms: C_12  and  C_13
REMARK    7  A    between atoms: C_15  and  O_16
REMARK    8  A    between atoms: C_29  and  C_30
REMARK                            x       y       z     vdW  Elec       q    Type
REMARK                         _______ _______ _______ _____ _____    ______ ____
ROOT
ATOM      1  C   UNL     1      -7.244  -2.907 130.542  0.00  0.00    +0.000 C 
ATOM      2  C   UNL     1      -6.387  -4.037 130.398  0.00  0.00    +0.000 C 
ATOM      3  C   UNL     1      -5.731  -2.797 129.813  0.00  0.00    +0.000 C 
ATOM      4  C   UNL     1      -4.482  -3.219 128.473  0.00  0.00    +0.000 C 
ATOM      5  C   UNL     1      -6.710  -1.038 130.441  0.00  0.00    +0.000 C 
ATOM      6  C   UNL     1      -8.164  -0.856 131.455  0.00  0.00    +0.000 C 
ATOM      7  C   UNL     1      -5.874  -1.798 131.159  0.00  0.00    +0.000 C 
ATOM      8  C   UNL     1      -5.599  -1.883 132.605  0.00  0.00    +0.000 C 
ATOM      9  C   UNL     1      -4.740  -1.002 129.910  0.00  0.00    +0.000 C 
ATOM     10  C   UNL     1      -5.638  -0.802 128.362  0.00  0.00    +0.000 C 
ATOM     11  C   UNL     1      -6.711  -2.051 127.816  0.00  0.00    +0.000 C 
ATOM     12  C   UNL     1      -7.859  -2.480 128.908  0.00  0.00    +0.000 C 
ATOM     13  C   UNL     1      -8.592  -3.712 128.401  0.00  0.00    +0.000 C 
ATOM     14  C   UNL     1      -9.060  -3.566 126.968  0.00  0.00    +0.000 C 
ATOM     15  C   UNL     1      -8.043  -3.117 125.954  0.00  0.00    +0.000 C 
ATOM     16  C   UNL     1      -7.920  -3.648 124.722  0.00  0.00    +0.000 C 
ATOM     17  C   UNL     1      -6.943  -2.928 123.857  0.00  0.00    +0.000 C 
ATOM     18  O   UNL     1      -7.172  -2.163 122.931  0.00  0.00    +0.000 OA
ATOM     19  C   UNL     1      -5.540  -3.108 124.356  0.00  0.00    +0.000 C 
ATOM     20  C   UNL     1      -5.784  -2.201 125.346  0.00  0.00    +0.000 C 
ATOM     21  C   UNL     1      -7.109  -1.961 126.311  0.00  0.00    +0.000 C 
ATOM     22  C   UNL     1      -7.964  -0.691 126.284  0.00  0.00    +0.000 C 
ENDROOT
BRANCH   5  23
ATOM     23  C   UNL     1      -6.194   0.635 131.155  0.00  0.00    +0.000 C 
ATOM     24  O   UNL     1      -6.786   1.684 130.845  0.00  0.00    +0.000 OA
BRANCH  23  25
ATOM     25  C   UNL     1      -4.862   0.976 132.042  0.00  0.00    +0.000 C 
ATOM     26  C   UNL     1      -4.161   2.286 131.492  0.00  0.00    +0.000 C 
ENDBRANCH  23  25
ENDBRANCH   5  23
BRANCH  10  27
ATOM     27  O   UNL     1      -6.388   0.425 128.477  0.00  0.00    +0.000 OA
ATOM     28  H   UNL     1      -6.127   0.885 129.295  0.00  0.00    +0.000 HD
ENDBRANCH  10  27
TORSDOF 3
ENDMDL
MODEL 2
REMARK VINA RESULT:      -7.9      6.465      9.436
REMARK  Name = Rimexolone
REMARK  8 active torsions:
REMARK  status: ('A' for Active; 'I' for Inactive)
REMARK    1  A    between atoms: C_4  and  C_5
REMARK    2  A    between atoms: C_6  and  C_7
REMARK    3  A    between atoms: C_6  and  C_8
REMARK    4  A    between atoms: C_8  and  C_10
REMARK    5  A    between atoms: C_10  and  C_11
REMARK    6  A    between atoms: C_12  and  C_13
REMARK    7  A    between atoms: C_15  and  O_16
REMARK    8  A    between atoms: C_29  and  C_30
REMARK                            x       y       z     vdW  Elec       q    Type
REMARK                         _______ _______ _______ _____ _____    ______ ____
ROOT
ATOM      1  C   UNL     1      -6.970   3.422 130.262  0.00  0.00    +0.000 C 
ATOM      2  C   UNL     1      -6.728   2.637 131.427  0.00  0.00    +0.000 C 
ATOM      3  C   UNL     1      -7.099   4.060 131.813  0.00  0.00    +0.000 C 
ATOM      4  C   UNL     1      -6.399   4.546 133.490  0.00  0.00    +0.000 C 
ATOM      5  C   UNL     1      -7.945   5.104 130.188  0.00  0.00    +0.000 C 
ATOM      6  C   UNL     1      -8.194   4.566 128.508  0.00  0.00    +0.000 C 
ATOM      7  C   UNL     1      -8.536   4.171 130.947  0.00  0.00    +0.000 C 
ATOM      8  C   UNL     1      -9.755   3.362 130.761  0.00  0.00    +0.000 C 
ATOM      9  C   UNL     1      -8.396   5.623 132.110  0.00  0.00    +0.000 C 
ATOM     10  C   UNL     1      -6.879   6.517 131.735  0.00  0.00    +0.000 C 
ATOM     11  C   UNL     1      -5.434   5.643 131.337  0.00  0.00    +0.000 C 
ATOM     12  C   UNL     1      -5.607   4.581 130.097  0.00  0.00    +0.000 C 
ATOM     13  C   UNL     1      -4.347   3.737 129.985  0.00  0.00    +0.000 C 
ATOM     14  C   UNL     1      -3.083   4.570 129.976  0.00  0.00    +0.000 C 
ATOM     15  C   UNL     1      -2.924   5.593 131.068  0.00  0.00    +0.000 C 
ATOM     16  C   UNL     1      -1.774   5.811 131.735  0.00  0.00    +0.000 C 
ATOM     17  C   UNL     1      -1.834   6.978 132.659  0.00  0.00    +0.000 C 
ATOM     18  O   UNL     1      -1.345   8.090 132.510  0.00  0.00    +0.000 OA
ATOM     19  C   UNL     1      -2.754   6.710 133.814  0.00  0.00    +0.000 C 
ATOM     20  C   UNL     1      -3.827   6.924 132.998  0.00  0.00    +0.000 C 
ATOM     21  C   UNL     1      -4.118   6.474 131.431  0.00  0.00    +0.000 C 
ATOM     22  C   UNL     1      -4.288   7.467 130.277  0.00  0.00    +0.000 C 
ENDROOT
BRANCH   5  23
ATOM     23  C   UNL     1      -9.468   6.187 129.903  0.00  0.00    +0.000 C 
ATOM     24  O   UNL     1      -9.427   7.180 129.153  0.00  0.00    +0.000 OA
BRANCH  23  25
ATOM     25  C   UNL     1     -10.898   6.133 130.695  0.00  0.00    +0.000 C 
ATOM     26  C   UNL     1     -12.097   6.181 129.661  0.00  0.00    +0.000 C 
ENDBRANCH  23  25
ENDBRANCH   5  23
BRANCH  10  27
ATOM     27  O   UNL     1      -7.186   7.410 130.644  0.00  0.00    +0.000 OA
ATOM     28  H   UNL     1      -7.826   8.078 130.948  0.00  0.00    +0.000 HD
ENDBRANCH  10  27
TORSDOF 3
ENDMDL
MODEL 3
REMARK VINA RESULT:      -7.8      4.185      6.510
REMARK  Name = Rimexolone
REMARK  8 active torsions:
REMARK  status: ('A' for Active; 'I' for Inactive)
REMARK    1  A    between atoms: C_4  and  C_5
REMARK    2  A    between atoms: C_6  and  C_7
REMARK    3  A    between atoms: C_6  and  C_8
REMARK    4  A    between atoms: C_8  and  C_10
REMARK    5  A    between atoms: C_10  and  C_11
REMARK    6  A    between atoms: C_12  and  C_13
REMARK    7  A    between atoms: C_15  and  O_16
REMARK    8  A    between atoms: C_29  and  C_30
REMARK                            x       y       z     vdW  Elec       q    Type
REMARK                         _______ _______ _______ _____ _____    ______ ____
ROOT
ATOM      1  C   UNL     1      -9.722   3.199 132.246  0.00  0.00    +0.000 C 
ATOM      2  C   UNL     1      -8.960   3.171 133.451  0.00  0.00    +0.000 C 
ATOM      3  C   UNL     1      -8.123   3.719 132.307  0.00  0.00    +0.000 C 
ATOM      4  C   UNL     1      -6.282   3.452 132.583  0.00  0.00    +0.000 C 
ATOM      5  C   UNL     1      -9.324   4.250 130.657  0.00  0.00    +0.000 C 
ATOM      6  C   UNL     1     -11.084   4.074 130.440  0.00  0.00    +0.000 C 
ATOM      7  C   UNL     1      -9.177   4.929 131.803  0.00  0.00    +0.000 C 
ATOM      8  C   UNL     1      -9.959   6.013 132.424  0.00  0.00    +0.000 C 
ATOM      9  C   UNL     1      -7.524   5.158 130.971  0.00  0.00    +0.000 C 
ATOM     10  C   UNL     1      -7.131   3.663 130.048  0.00  0.00    +0.000 C 
ATOM     11  C   UNL     1      -7.502   2.107 130.720  0.00  0.00    +0.000 C 
ATOM     12  C   UNL     1      -9.071   1.920 131.164  0.00  0.00    +0.000 C 
ATOM     13  C   UNL     1      -9.221   0.611 131.923  0.00  0.00    +0.000 C 
ATOM     14  C   UNL     1      -8.591  -0.560 131.200  0.00  0.00    +0.000 C 
ATOM     15  C   UNL     1      -7.171  -0.397 130.729  0.00  0.00    +0.000 C 
ATOM     16  C   UNL     1      -6.224  -1.348 130.842  0.00  0.00    +0.000 C 
ATOM     17  C   UNL     1      -4.944  -0.998 130.164  0.00  0.00    +0.000 C 
ATOM     18  O   UNL     1      -4.505  -1.428 129.106  0.00  0.00    +0.000 OA
ATOM     19  C   UNL     1      -4.253   0.137 130.860  0.00  0.00    +0.000 C 
ATOM     20  C   UNL     1      -5.135   1.011 130.295  0.00  0.00    +0.000 C 
ATOM     21  C   UNL     1      -6.769   0.909 130.043  0.00  0.00    +0.000 C 
ATOM     22  C   UNL     1      -7.418   0.884 128.655  0.00  0.00    +0.000 C 
ENDROOT
BRANCH   5  23
ATOM     23  C   UNL     1      -9.488   5.742 129.508  0.00  0.00    +0.000 C 
ATOM     24  O   UNL     1      -9.357   5.630 128.275  0.00  0.00    +0.000 OA
BRANCH  23  25
ATOM     25  C   UNL     1      -9.597   7.320 129.926  0.00  0.00    +0.000 C 
ATOM     26  C   UNL     1     -10.938   7.944 129.357  0.00  0.00    +0.000 C 
ENDBRANCH  23  25
ENDBRANCH   5  23
BRANCH  10  27
ATOM     27  O   UNL     1      -7.797   3.779 128.773  0.00  0.00    +0.000 OA
ATOM     28  H   UNL     1      -7.130   3.888 128.072  0.00  0.00    +0.000 HD
ENDBRANCH  10  27
TORSDOF 3
ENDMDL
MODEL 4
REMARK VINA RESULT:      -7.8      4.475      7.876
REMARK  Name = Rimexolone
REMARK  8 active torsions:
REMARK  status: ('A' for Active; 'I' for Inactive)
REMARK    1  A    between atoms: C_4  and  C_5
REMARK    2  A    between atoms: C_6  and  C_7
REMARK    3  A    between atoms: C_6  and  C_8
REMARK    4  A    between atoms: C_8  and  C_10
REMARK    5  A    between atoms: C_10  and  C_11
REMARK    6  A    between atoms: C_12  and  C_13
REMARK    7  A    between atoms: C_15  and  O_16
REMARK    8  A    between atoms: C_29  and  C_30
REMARK                            x       y       z     vdW  Elec       q    Type
REMARK                         _______ _______ _______ _____ _____    ______ ____
ROOT
ATOM      1  C   UNL     1      -5.967   3.860 133.588  0.00  0.00    +0.000 C 
ATOM      2  C   UNL     1      -6.908   4.205 134.601  0.00  0.00    +0.000 C 
ATOM      3  C   UNL     1      -7.514   3.199 133.636  0.00  0.00    +0.000 C 
ATOM      4  C   UNL     1      -9.389   3.316 133.572  0.00  0.00    +0.000 C 
ATOM      5  C   UNL     1      -6.032   2.287 132.443  0.00  0.00    +0.000 C 
ATOM      6  C   UNL     1      -4.277   2.593 132.393  0.00  0.00    +0.000 C 
ATOM      7  C   UNL     1      -6.308   2.030 133.729  0.00  0.00    +0.000 C 
ATOM      8  C   UNL     1      -5.557   1.329 134.786  0.00  0.00    +0.000 C 
ATOM      9  C   UNL     1      -7.789   1.327 132.839  0.00  0.00    +0.000 C 
ATOM     10  C   UNL     1      -8.139   2.354 131.402  0.00  0.00    +0.000 C 
ATOM     11  C   UNL     1      -7.993   4.079 131.515  0.00  0.00    +0.000 C 
ATOM     12  C   UNL     1      -6.530   4.600 132.050  0.00  0.00    +0.000 C 
ATOM     13  C   UNL     1      -6.597   6.097 132.303  0.00  0.00    +0.000 C 
ATOM     14  C   UNL     1      -7.189   6.863 131.140  0.00  0.00    +0.000 C 
ATOM     15  C   UNL     1      -8.501   6.374 130.589  0.00  0.00    +0.000 C 
ATOM     16  C   UNL     1      -9.520   7.181 130.239  0.00  0.00    +0.000 C 
ATOM     17  C   UNL     1     -10.649   6.466 129.580  0.00  0.00    +0.000 C 
ATOM     18  O   UNL     1     -10.947   6.449 128.393  0.00  0.00    +0.000 OA
ATOM     19  C   UNL     1     -11.357   5.562 130.546  0.00  0.00    +0.000 C 
ATOM     20  C   UNL     1     -10.336   4.663 130.442  0.00  0.00    +0.000 C 
ATOM     21  C   UNL     1      -8.694   4.873 130.371  0.00  0.00    +0.000 C 
ATOM     22  C   UNL     1      -7.839   4.501 129.156  0.00  0.00    +0.000 C 
ENDROOT
BRANCH   5  23
ATOM     23  C   UNL     1      -5.582   0.524 131.932  0.00  0.00    +0.000 C 
ATOM     24  O   UNL     1      -5.162   0.266 130.788  0.00  0.00    +0.000 OA
BRANCH  23  25
ATOM     25  C   UNL     1      -5.857  -0.860 132.760  0.00  0.00    +0.000 C 
ATOM     26  C   UNL     1      -6.423  -1.975 131.787  0.00  0.00    +0.000 C 
ENDBRANCH  23  25
ENDBRANCH   5  23
BRANCH  10  27
ATOM     27  O   UNL     1      -7.274   1.892 130.345  0.00  0.00    +0.000 OA
ATOM     28  H   UNL     1      -6.358   2.159 130.541  0.00  0.00    +0.000 HD
ENDBRANCH  10  27
TORSDOF 3
ENDMDL
MODEL 5
REMARK VINA RESULT:      -7.8      1.779      3.213
REMARK  Name = Rimexolone
REMARK  8 active torsions:
REMARK  status: ('A' for Active; 'I' for Inactive)
REMARK    1  A    between atoms: C_4  and  C_5
REMARK    2  A    between atoms: C_6  and  C_7
REMARK    3  A    between atoms: C_6  and  C_8
REMARK    4  A    between atoms: C_8  and  C_10
REMARK    5  A    between atoms: C_10  and  C_11
REMARK    6  A    between atoms: C_12  and  C_13
REMARK    7  A    between atoms: C_15  and  O_16
REMARK    8  A    between atoms: C_29  and  C_30
REMARK                            x       y       z     vdW  Elec       q    Type
REMARK                         _______ _______ _______ _____ _____    ______ ____
ROOT
ATOM      1  C   UNL     1      -7.117  -0.470 130.623  0.00  0.00    +0.000 C 
ATOM      2  C   UNL     1      -8.453  -0.927 130.816  0.00  0.00    +0.000 C 
ATOM      3  C   UNL     1      -7.593  -2.036 130.233  0.00  0.00    +0.000 C 
ATOM      4  C   UNL     1      -8.607  -3.287 129.262  0.00  0.00    +0.000 C 
ATOM      5  C   UNL     1      -5.539  -1.587 130.401  0.00  0.00    +0.000 C 
ATOM      6  C   UNL     1      -4.753  -0.122 131.042  0.00  0.00    +0.000 C 
ATOM      7  C   UNL     1      -6.359  -2.001 131.376  0.00  0.00    +0.000 C 
ATOM      8  C   UNL     1      -6.244  -1.989 132.846  0.00  0.00    +0.000 C 
ATOM      9  C   UNL     1      -6.179  -3.523 130.312  0.00  0.00    +0.000 C 
ATOM     10  C   UNL     1      -6.025  -3.010 128.594  0.00  0.00    +0.000 C 
ATOM     11  C   UNL     1      -6.987  -1.698 127.991  0.00  0.00    +0.000 C 
ATOM     12  C   UNL     1      -6.849  -0.307 128.854  0.00  0.00    +0.000 C 
ATOM     13  C   UNL     1      -7.886   0.689 128.361  0.00  0.00    +0.000 C 
ATOM     14  C   UNL     1      -7.886   0.839 126.855  0.00  0.00    +0.000 C 
ATOM     15  C   UNL     1      -7.953  -0.423 126.037  0.00  0.00    +0.000 C 
ATOM     16  C   UNL     1      -8.721  -0.571 124.940  0.00  0.00    +0.000 C 
ATOM     17  C   UNL     1      -8.495  -1.858 124.224  0.00  0.00    +0.000 C 
ATOM     18  O   UNL     1      -7.886  -2.047 123.179  0.00  0.00    +0.000 OA
ATOM     19  C   UNL     1      -8.977  -3.024 125.035  0.00  0.00    +0.000 C 
ATOM     20  C   UNL     1      -7.867  -2.925 125.823  0.00  0.00    +0.000 C 
ATOM     21  C   UNL     1      -7.073  -1.607 126.437  0.00  0.00    +0.000 C 
ATOM     22  C   UNL     1      -5.638  -1.225 126.062  0.00  0.00    +0.000 C 
ENDROOT
BRANCH   5  23
ATOM     23  C   UNL     1      -3.985  -2.489 130.990  0.00  0.00    +0.000 C 
ATOM     24  O   UNL     1      -2.888  -2.328 130.425  0.00  0.00    +0.000 OA
BRANCH  23  25
ATOM     25  C   UNL     1      -3.884  -3.692 132.095  0.00  0.00    +0.000 C 
ATOM     26  C   UNL     1      -3.014  -3.222 133.333  0.00  0.00    +0.000 C 
ENDBRANCH  23  25
ENDBRANCH   5  23
BRANCH  10  27
ATOM     27  O   UNL     1      -4.634  -2.688 128.383  0.00  0.00    +0.000 OA
ATOM     28  H   UNL     1      -4.532  -1.720 128.344  0.00  0.00    +0.000 HD
ENDBRANCH  10  27
TORSDOF 3
ENDMDL
MODEL 6
REMARK VINA RESULT:      -7.6      2.329      3.098
REMARK  Name = Rimexolone
REMARK  8 active torsions:
REMARK  status: ('A' for Active; 'I' for Inactive)
REMARK    1  A    between atoms: C_4  and  C_5
REMARK    2  A    between atoms: C_6  and  C_7
REMARK    3  A    between atoms: C_6  and  C_8
REMARK    4  A    between atoms: C_8  and  C_10
REMARK    5  A    between atoms: C_10  and  C_11
REMARK    6  A    between atoms: C_12  and  C_13
REMARK    7  A    between atoms: C_15  and  O_16
REMARK    8  A    between atoms: C_29  and  C_30
REMARK                            x       y       z     vdW  Elec       q    Type
REMARK                         _______ _______ _______ _____ _____    ______ ____
ROOT
ATOM      1  C   UNL     1      -6.585  -0.209 129.586  0.00  0.00    +0.000 C 
ATOM      2  C   UNL     1      -5.227  -0.434 129.216  0.00  0.00    +0.000 C 
ATOM      3  C   UNL     1      -5.839   0.654 128.350  0.00  0.00    +0.000 C 
ATOM      4  C   UNL     1      -4.989   0.793 126.678  0.00  0.00    +0.000 C 
ATOM      5  C   UNL     1      -7.645   1.370 129.171  0.00  0.00    +0.000 C 
ATOM      6  C   UNL     1      -8.513   0.830 130.631  0.00  0.00    +0.000 C 
ATOM      7  C   UNL     1      -6.402   1.649 129.584  0.00  0.00    +0.000 C 
ATOM      8  C   UNL     1      -5.875   2.230 130.832  0.00  0.00    +0.000 C 
ATOM      9  C   UNL     1      -6.510   2.554 127.957  0.00  0.00    +0.000 C 
ATOM     10  C   UNL     1      -7.543   1.599 126.834  0.00  0.00    +0.000 C 
ATOM     11  C   UNL     1      -7.418  -0.131 126.802  0.00  0.00    +0.000 C 
ATOM     12  C   UNL     1      -7.621  -0.850 128.264  0.00  0.00    +0.000 C 
ATOM     13  C   UNL     1      -7.283  -2.327 128.144  0.00  0.00    +0.000 C 
ATOM     14  C   UNL     1      -7.975  -2.993 126.974  0.00  0.00    +0.000 C 
ATOM     15  C   UNL     1      -7.856  -2.326 125.631  0.00  0.00    +0.000 C 
ATOM     16  C   UNL     1      -7.628  -2.984 124.478  0.00  0.00    +0.000 C 
ATOM     17  C   UNL     1      -7.705  -2.115 123.270  0.00  0.00    +0.000 C 
ATOM     18  O   UNL     1      -8.602  -2.047 122.441  0.00  0.00    +0.000 OA
ATOM     19  C   UNL     1      -6.570  -1.134 123.234  0.00  0.00    +0.000 C 
ATOM     20  C   UNL     1      -7.202  -0.381 124.180  0.00  0.00    +0.000 C 
ATOM     21  C   UNL     1      -8.039  -0.811 125.543  0.00  0.00    +0.000 C 
ATOM     22  C   UNL     1      -9.534  -0.544 125.745  0.00  0.00    +0.000 C 
ENDROOT
BRANCH   5  23
ATOM     23  C   UNL     1      -8.408   3.061 129.533  0.00  0.00    +0.000 C 
ATOM     24  O   UNL     1      -9.624   3.273 129.371  0.00  0.00    +0.000 OA
BRANCH  23  25
ATOM     25  C   UNL     1      -7.629   4.459 129.872  0.00  0.00    +0.000 C 
ATOM     26  C   UNL     1      -8.233   5.116 131.181  0.00  0.00    +0.000 C 
ENDBRANCH  23  25
ENDBRANCH   5  23
BRANCH  10  27
ATOM     27  O   UNL     1      -8.910   1.951 127.131  0.00  0.00    +0.000 OA
ATOM     28  H   UNL     1      -9.299   1.266 127.703  0.00  0.00    +0.000 HD
ENDBRANCH  10  27
TORSDOF 3
ENDMDL
MODEL 7
REMARK VINA RESULT:      -7.6      6.516      9.325
REMARK  Name = Rimexolone
REMARK  8 active torsions:
REMARK  status: ('A' for Active; 'I' for Inactive)
REMARK    1  A    between atoms: C_4  and  C_5
REMARK    2  A    between atoms: C_6  and  C_7
REMARK    3  A    between atoms: C_6  and  C_8
REMARK    4  A    between atoms: C_8  and  C_10
REMARK    5  A    between atoms: C_10  and  C_11
REMARK    6  A    between atoms: C_12  and  C_13
REMARK    7  A    between atoms: C_15  and  O_16
REMARK    8  A    between atoms: C_29  and  C_30
REMARK                            x       y       z     vdW  Elec       q    Type
REMARK                         _______ _______ _______ _____ _____    ______ ____
ROOT
ATOM      1  C   UNL     1      -7.983   3.513 130.306  0.00  0.00    +0.000 C 
ATOM      2  C   UNL     1      -8.010   2.683 131.465  0.00  0.00    +0.000 C 
ATOM      3  C   UNL     1      -8.066   4.150 131.861  0.00  0.00    +0.000 C 
ATOM      4  C   UNL     1      -7.389   4.447 133.590  0.00  0.00    +0.000 C 
ATOM      5  C   UNL     1      -8.537   5.376 130.210  0.00  0.00    +0.000 C 
ATOM      6  C   UNL     1      -8.788   4.925 128.505  0.00  0.00    +0.000 C 
ATOM      7  C   UNL     1      -9.377   4.600 130.907  0.00  0.00    +0.000 C 
ATOM      8  C   UNL     1     -10.734   4.097 130.624  0.00  0.00    +0.000 C 
ATOM      9  C   UNL     1      -8.985   5.969 132.111  0.00  0.00    +0.000 C 
ATOM     10  C   UNL     1      -7.280   6.490 131.856  0.00  0.00    +0.000 C 
ATOM     11  C   UNL     1      -6.053   5.308 131.530  0.00  0.00    +0.000 C 
ATOM     12  C   UNL     1      -6.382   4.326 130.256  0.00  0.00    +0.000 C 
ATOM     13  C   UNL     1      -5.347   3.213 130.205  0.00  0.00    +0.000 C 
ATOM     14  C   UNL     1      -3.927   3.729 130.297  0.00  0.00    +0.000 C 
ATOM     15  C   UNL     1      -3.610   4.678 131.421  0.00  0.00    +0.000 C 
ATOM     16  C   UNL     1      -2.488   4.618 132.165  0.00  0.00    +0.000 C 
ATOM     17  C   UNL     1      -2.340   5.759 133.112  0.00  0.00    +0.000 C 
ATOM     18  O   UNL     1      -1.598   6.728 133.021  0.00  0.00    +0.000 OA
ATOM     19  C   UNL     1      -3.373   5.702 134.198  0.00  0.00    +0.000 C 
ATOM     20  C   UNL     1      -4.309   6.166 133.321  0.00  0.00    +0.000 C 
ATOM     21  C   UNL     1      -4.590   5.810 131.728  0.00  0.00    +0.000 C 
ATOM     22  C   UNL     1      -4.446   6.825 130.590  0.00  0.00    +0.000 C 
ENDROOT
BRANCH   5  23
ATOM     23  C   UNL     1      -9.745   6.785 129.854  0.00  0.00    +0.000 C 
ATOM     24  O   UNL     1      -9.395   7.795 129.215  0.00  0.00    +0.000 OA
BRANCH  23  25
ATOM     25  C   UNL     1     -11.249   6.993 130.462  0.00  0.00    +0.000 C 
ATOM     26  C   UNL     1     -12.000   8.146 129.678  0.00  0.00    +0.000 C 
ENDBRANCH  23  25
ENDBRANCH   5  23
BRANCH  10  27
ATOM     27  O   UNL     1      -7.298   7.439 130.769  0.00  0.00    +0.000 OA
ATOM     28  H   UNL     1      -7.134   6.969 129.931  0.00  0.00    +0.000 HD
ENDBRANCH  10  27
TORSDOF 3
ENDMDL
MODEL 8
REMARK VINA RESULT:      -7.5      1.915      6.123
REMARK  Name = Rimexolone
REMARK  8 active torsions:
REMARK  status: ('A' for Active; 'I' for Inactive)
REMARK    1  A    between atoms: C_4  and  C_5
REMARK    2  A    between atoms: C_6  and  C_7
REMARK    3  A    between atoms: C_6  and  C_8
REMARK    4  A    between atoms: C_8  and  C_10
REMARK    5  A    between atoms: C_10  and  C_11
REMARK    6  A    between atoms: C_12  and  C_13
REMARK    7  A    between atoms: C_15  and  O_16
REMARK    8  A    between atoms: C_29  and  C_30
REMARK                            x       y       z     vdW  Elec       q    Type
REMARK                         _______ _______ _______ _____ _____    ______ ____
ROOT
ATOM      1  C   UNL     1      -7.337  -3.065 128.184  0.00  0.00    +0.000 C 
ATOM      2  C   UNL     1      -8.492  -3.112 129.018  0.00  0.00    +0.000 C 
ATOM      3  C   UNL     1      -7.841  -1.740 129.091  0.00  0.00    +0.000 C 
ATOM      4  C   UNL     1      -8.214  -0.862 130.711  0.00  0.00    +0.000 C 
ATOM      5  C   UNL     1      -6.459  -1.459 127.522  0.00  0.00    +0.000 C 
ATOM      6  C   UNL     1      -5.950  -2.597 126.249  0.00  0.00    +0.000 C 
ATOM      7  C   UNL     1      -7.796  -1.415 127.441  0.00  0.00    +0.000 C 
ATOM      8  C   UNL     1      -8.726  -1.476 126.298  0.00  0.00    +0.000 C 
ATOM      9  C   UNL     1      -7.388   0.136 128.393  0.00  0.00    +0.000 C 
ATOM     10  C   UNL     1      -5.954  -0.186 129.433  0.00  0.00    +0.000 C 
ATOM     11  C   UNL     1      -5.800  -1.711 130.246  0.00  0.00    +0.000 C 
ATOM     12  C   UNL     1      -5.895  -3.017 129.255  0.00  0.00    +0.000 C 
ATOM     13  C   UNL     1      -5.958  -4.280 130.100  0.00  0.00    +0.000 C 
ATOM     14  C   UNL     1      -4.879  -4.328 131.161  0.00  0.00    +0.000 C 
ATOM     15  C   UNL     1      -4.729  -3.121 132.047  0.00  0.00    +0.000 C 
ATOM     16  C   UNL     1      -4.529  -3.182 133.378  0.00  0.00    +0.000 C 
ATOM     17  C   UNL     1      -4.261  -1.856 134.001  0.00  0.00    +0.000 C 
ATOM     18  O   UNL     1      -3.193  -1.405 134.393  0.00  0.00    +0.000 OA
ATOM     19  C   UNL     1      -5.478  -0.980 133.963  0.00  0.00    +0.000 C 
ATOM     20  C   UNL     1      -5.252  -0.736 132.640  0.00  0.00    +0.000 C 
ATOM     21  C   UNL     1      -4.763  -1.732 131.410  0.00  0.00    +0.000 C 
ATOM     22  C   UNL     1      -3.438  -1.570 130.658  0.00  0.00    +0.000 C 
ENDROOT
BRANCH   5  23
ATOM     23  C   UNL     1      -6.092  -0.112 126.248  0.00  0.00    +0.000 C 
ATOM     24  O   UNL     1      -4.926   0.165 125.913  0.00  0.00    +0.000 OA
BRANCH  23  25
ATOM     25  C   UNL     1      -7.139   0.967 125.601  0.00  0.00    +0.000 C 
ATOM     26  C   UNL     1      -7.076   0.906 124.019  0.00  0.00    +0.000 C 
ENDBRANCH  23  25
ENDBRANCH   5  23
BRANCH  10  27
ATOM     27  O   UNL     1      -4.791   0.007 128.603  0.00  0.00    +0.000 OA
ATOM     28  H   UNL     1      -4.245   0.721 128.979  0.00  0.00    +0.000 HD
ENDBRANCH  10  27
TORSDOF 3
ENDMDL
MODEL 9
REMARK VINA RESULT:      -7.5      3.410      5.464
REMARK  Name = Rimexolone
REMARK  8 active torsions:
REMARK  status: ('A' for Active; 'I' for Inactive)
REMARK    1  A    between atoms: C_4  and  C_5
REMARK    2  A    between atoms: C_6  and  C_7
REMARK    3  A    between atoms: C_6  and  C_8
REMARK    4  A    between atoms: C_8  and  C_10
REMARK    5  A    between atoms: C_10  and  C_11
REMARK    6  A    between atoms: C_12  and  C_13
REMARK    7  A    between atoms: C_15  and  O_16
REMARK    8  A    between atoms: C_29  and  C_30
REMARK                            x       y       z     vdW  Elec       q    Type
REMARK                         _______ _______ _______ _____ _____    ______ ____
ROOT
ATOM      1  C   UNL     1      -7.145   1.410 130.008  0.00  0.00    +0.000 C 
ATOM      2  C   UNL     1      -8.481   1.814 129.715  0.00  0.00    +0.000 C 
ATOM      3  C   UNL     1      -7.971   0.854 128.652  0.00  0.00    +0.000 C 
ATOM      4  C   UNL     1      -8.839   1.096 127.001  0.00  0.00    +0.000 C 
ATOM      5  C   UNL     1      -6.230  -0.150 129.291  0.00  0.00    +0.000 C 
ATOM      6  C   UNL     1      -5.310   0.038 130.806  0.00  0.00    +0.000 C 
ATOM      7  C   UNL     1      -7.491  -0.393 129.673  0.00  0.00    +0.000 C 
ATOM      8  C   UNL     1      -8.060  -1.146 130.806  0.00  0.00    +0.000 C 
ATOM      9  C   UNL     1      -7.471  -0.992 127.907  0.00  0.00    +0.000 C 
ATOM     10  C   UNL     1      -6.365   0.061 126.953  0.00  0.00    +0.000 C 
ATOM     11  C   UNL     1      -6.338   1.772 127.239  0.00  0.00    +0.000 C 
ATOM     12  C   UNL     1      -6.065   2.192 128.803  0.00  0.00    +0.000 C 
ATOM     13  C   UNL     1      -6.273   3.690 128.960  0.00  0.00    +0.000 C 
ATOM     14  C   UNL     1      -5.532   4.497 127.917  0.00  0.00    +0.000 C 
ATOM     15  C   UNL     1      -5.717   4.099 126.478  0.00  0.00    +0.000 C 
ATOM     16  C   UNL     1      -5.892   4.974 125.469  0.00  0.00    +0.000 C 
ATOM     17  C   UNL     1      -5.898   4.338 124.122  0.00  0.00    +0.000 C 
ATOM     18  O   UNL     1      -5.015   4.346 123.275  0.00  0.00    +0.000 OA
ATOM     19  C   UNL     1      -7.114   3.480 123.932  0.00  0.00    +0.000 C 
ATOM     20  C   UNL     1      -6.546   2.515 124.712  0.00  0.00    +0.000 C 
ATOM     21  C   UNL     1      -5.667   2.616 126.112  0.00  0.00    +0.000 C 
ATOM     22  C   UNL     1      -4.200   2.191 126.230  0.00  0.00    +0.000 C 
ENDROOT
BRANCH   5  23
ATOM     23  C   UNL     1      -5.616  -1.938 129.322  0.00  0.00    +0.000 C 
ATOM     24  O   UNL     1      -4.425  -2.219 129.098  0.00  0.00    +0.000 OA
BRANCH  23  25
ATOM     25  C   UNL     1      -6.513  -3.303 129.420  0.00  0.00    +0.000 C 
ATOM     26  C   UNL     1      -5.872  -4.302 130.470  0.00  0.00    +0.000 C 
ENDBRANCH  23  25
ENDBRANCH   5  23
BRANCH  10  27
ATOM     27  O   UNL     1      -5.032  -0.454 127.152  0.00  0.00    +0.000 OA
ATOM     28  H   UNL     1      -4.397   0.284 127.127  0.00  0.00    +0.000 HD
ENDBRANCH  10  27
TORSDOF 3
ENDMDL
