MODEL 1
REMARK VINA RESULT:     -11.3      0.000      0.000
REMARK  Name = Rimegepant
REMARK  5 active torsions:
REMARK  status: ('A' for Active; 'I' for Inactive)
REMARK    1  A    between atoms: N_1  and  C_2
REMARK    2  A    between atoms: C_3  and  C_32
REMARK    3  A    between atoms: C_6  and  O_7
REMARK    4  A    between atoms: O_7  and  C_8
REMARK    5  A    between atoms: C_13  and  N_16
REMARK                            x       y       z     vdW  Elec       q    Type
REMARK                         _______ _______ _______ _____ _____    ______ ____
ROOT
ATOM      1  C   UNL     1      -9.900   4.893 130.484  0.00  0.00    +0.000 C 
ATOM      2  C   UNL     1      -9.947   6.461 130.630  0.00  0.00    +0.000 C 
ATOM      3  C   UNL     1      -8.631   7.213 130.344  0.00  0.00    +0.000 C 
ATOM      4  C   UNL     1      -7.339   6.661 130.957  0.00  0.00    +0.000 C 
ATOM      5  C   UNL     1      -7.034   5.201 130.569  0.00  0.00    +0.000 C 
ATOM      6  C   UNL     1      -7.676   4.360 131.666  0.00  0.00    +0.000 A 
ATOM      7  C   UNL     1      -9.090   4.235 131.616  0.00  0.00    +0.000 A 
ATOM      8  C   UNL     1      -9.700   3.539 132.665  0.00  0.00    +0.000 A 
ATOM      9  C   UNL     1      -8.932   3.062 133.723  0.00  0.00    +0.000 A 
ATOM     10  C   UNL     1      -7.565   3.284 133.701  0.00  0.00    +0.000 A 
ATOM     11  N   UNL     1      -6.919   3.921 132.700  0.00  0.00    +0.000 NA
ENDROOT
BRANCH   2  12
ATOM     12  C   UNL     1     -10.979   7.164 129.731  0.00  0.00    +0.000 A 
ATOM     13  C   UNL     1     -10.909   7.180 128.325  0.00  0.00    +0.000 A 
ATOM     14  F   UNL     1      -9.923   6.521 127.696  0.00  0.00    +0.000 F 
ATOM     15  C   UNL     1     -11.834   7.904 127.569  0.00  0.00    +0.000 A 
ATOM     16  F   UNL     1     -11.837   7.825 126.232  0.00  0.00    +0.000 F 
ATOM     17  C   UNL     1     -12.773   8.713 128.194  0.00  0.00    +0.000 A 
ATOM     18  C   UNL     1     -12.821   8.752 129.586  0.00  0.00    +0.000 A 
ATOM     19  C   UNL     1     -11.964   7.949 130.348  0.00  0.00    +0.000 A 
ENDBRANCH   2  12
BRANCH   1  20
ATOM     20  N   UNL     1     -11.249   4.317 130.380  0.00  0.00    +0.000 NA
ATOM     21  H   UNL     1     -11.202   3.457 129.833  0.00  0.00    +0.000 HD
ATOM     22  H   UNL     1     -11.846   4.948 129.849  0.00  0.00    +0.000 HD
ENDBRANCH   1  20
BRANCH   5  23
ATOM     23  O   UNL     1      -5.651   5.061 130.192  0.00  0.00    +0.000 OA
BRANCH  23  24
ATOM     24  C   UNL     1      -5.286   5.025 128.846  0.00  0.00    +0.000 C 
ATOM     25  O   UNL     1      -4.513   5.885 128.424  0.00  0.00    +0.000 OA
ATOM     26  N   UNL     1      -5.821   4.029 127.970  0.00  0.00    +0.000 N 
ATOM     27  C   UNL     1      -4.920   3.149 127.272  0.00  0.00    +0.000 C 
ATOM     28  C   UNL     1      -5.617   2.688 125.970  0.00  0.00    +0.000 C 
ATOM     29  C   UNL     1      -7.035   1.700 126.029  0.00  0.00    +0.000 C 
ATOM     30  C   UNL     1      -7.856   2.654 127.002  0.00  0.00    +0.000 C 
ATOM     31  C   UNL     1      -7.076   3.371 128.159  0.00  0.00    +0.000 C 
BRANCH  29  32
ATOM     32  N   UNL     1      -7.044  -0.010 126.130  0.00  0.00    +0.000 N 
ATOM     33  C   UNL     1      -7.449   0.262 124.719  0.00  0.00    +0.000 A 
ATOM     34  O   UNL     1      -8.652   0.597 124.387  0.00  0.00    +0.000 OA
ATOM     35  N   UNL     1      -6.570  -0.538 124.083  0.00  0.00    +0.000 N 
ATOM     36  C   UNL     1      -7.413  -1.552 124.335  0.00  0.00    +0.000 A 
ATOM     37  N   UNL     1      -8.117  -1.867 123.154  0.00  0.00    +0.000 NA
ATOM     38  C   UNL     1      -9.012  -2.809 123.228  0.00  0.00    +0.000 A 
ATOM     39  C   UNL     1      -8.839  -3.575 124.348  0.00  0.00    +0.000 A 
ATOM     40  C   UNL     1      -8.063  -2.927 125.601  0.00  0.00    +0.000 A 
ATOM     41  C   UNL     1      -7.762  -1.533 125.650  0.00  0.00    +0.000 A 
ATOM     42  H   UNL     1      -5.787  -0.634 124.743  0.00  0.00    +0.000 HD
ENDBRANCH  29  32
ENDBRANCH  23  24
ENDBRANCH   5  23
TORSDOF 5
ENDMDL
MODEL 2
REMARK VINA RESULT:     -10.8      4.188      9.079
REMARK  Name = Rimegepant
REMARK  5 active torsions:
REMARK  status: ('A' for Active; 'I' for Inactive)
REMARK    1  A    between atoms: N_1  and  C_2
REMARK    2  A    between atoms: C_3  and  C_32
REMARK    3  A    between atoms: C_6  and  O_7
REMARK    4  A    between atoms: O_7  and  C_8
REMARK    5  A    between atoms: C_13  and  N_16
REMARK                            x       y       z     vdW  Elec       q    Type
REMARK                         _______ _______ _______ _____ _____    ______ ____
ROOT
ATOM      1  C   UNL     1      -5.433  -2.278 129.519  0.00  0.00    +0.000 C 
ATOM      2  C   UNL     1      -7.000  -2.432 129.580  0.00  0.00    +0.000 C 
ATOM      3  C   UNL     1      -7.761  -1.351 130.373  0.00  0.00    +0.000 C 
ATOM      4  C   UNL     1      -7.215  -0.946 131.746  0.00  0.00    +0.000 C 
ATOM      5  C   UNL     1      -5.760  -0.441 131.718  0.00  0.00    +0.000 C 
ATOM      6  C   UNL     1      -4.907  -1.679 131.967  0.00  0.00    +0.000 A 
ATOM      7  C   UNL     1      -4.773  -2.580 130.877  0.00  0.00    +0.000 A 
ATOM      8  C   UNL     1      -4.067  -3.763 131.119  0.00  0.00    +0.000 A 
ATOM      9  C   UNL     1      -3.589  -4.040 132.395  0.00  0.00    +0.000 A 
ATOM     10  C   UNL     1      -3.820  -3.118 133.403  0.00  0.00    +0.000 A 
ATOM     11  N   UNL     1      -4.468  -1.946 133.220  0.00  0.00    +0.000 NA
ENDROOT
BRANCH   2  12
ATOM     12  C   UNL     1      -7.701  -2.451 128.210  0.00  0.00    +0.000 A 
ATOM     13  C   UNL     1      -7.692  -1.368 127.311  0.00  0.00    +0.000 A 
ATOM     14  F   UNL     1      -7.008  -0.253 127.614  0.00  0.00    +0.000 F 
ATOM     15  C   UNL     1      -8.415  -1.420 126.117  0.00  0.00    +0.000 A 
ATOM     16  F   UNL     1      -8.313  -0.438 125.211  0.00  0.00    +0.000 F 
ATOM     17  C   UNL     1      -9.247  -2.497 125.846  0.00  0.00    +0.000 A 
ATOM     18  C   UNL     1      -9.311  -3.554 126.752  0.00  0.00    +0.000 A 
ATOM     19  C   UNL     1      -8.510  -3.554 127.899  0.00  0.00    +0.000 A 
ENDBRANCH   2  12
BRANCH   1  20
ATOM     20  N   UNL     1      -4.849  -3.090 128.442  0.00  0.00    +0.000 NA
ATOM     21  H   UNL     1      -5.407  -3.936 128.324  0.00  0.00    +0.000 HD
ATOM     22  H   UNL     1      -3.923  -3.408 128.722  0.00  0.00    +0.000 HD
ENDBRANCH   1  20
BRANCH   5  23
ATOM     23  O   UNL     1      -5.631   0.761 132.501  0.00  0.00    +0.000 OA
BRANCH  23  24
ATOM     24  C   UNL     1      -6.674   1.184 133.324  0.00  0.00    +0.000 C 
ATOM     25  O   UNL     1      -6.745   0.729 134.466  0.00  0.00    +0.000 OA
ATOM     26  N   UNL     1      -7.658   2.104 132.841  0.00  0.00    +0.000 N 
ATOM     27  C   UNL     1      -7.852   3.353 133.532  0.00  0.00    +0.000 C 
ATOM     28  C   UNL     1      -9.309   3.812 133.288  0.00  0.00    +0.000 C 
ATOM     29  C   UNL     1      -9.844   4.246 131.702  0.00  0.00    +0.000 C 
ATOM     30  C   UNL     1      -9.371   2.900 130.998  0.00  0.00    +0.000 C 
ATOM     31  C   UNL     1      -8.017   2.262 131.467  0.00  0.00    +0.000 C 
BRANCH  29  32
ATOM     32  N   UNL     1      -9.692   5.801 130.999  0.00  0.00    +0.000 N 
ATOM     33  C   UNL     1     -11.153   5.514 130.907  0.00  0.00    +0.000 A 
ATOM     34  O   UNL     1     -11.664   4.765 129.986  0.00  0.00    +0.000 OA
ATOM     35  N   UNL     1     -11.632   6.645 131.462  0.00  0.00    +0.000 N 
ATOM     36  C   UNL     1     -11.472   7.224 130.261  0.00  0.00    +0.000 A 
ATOM     37  N   UNL     1     -12.730   7.338 129.636  0.00  0.00    +0.000 NA
ATOM     38  C   UNL     1     -12.756   7.845 128.437  0.00  0.00    +0.000 A 
ATOM     39  C   UNL     1     -11.599   8.519 128.156  0.00  0.00    +0.000 A 
ATOM     40  C   UNL     1     -10.268   8.121 128.972  0.00  0.00    +0.000 A 
ATOM     41  C   UNL     1     -10.221   6.957 129.795  0.00  0.00    +0.000 A 
ATOM     42  H   UNL     1     -10.865   6.983 132.058  0.00  0.00    +0.000 HD
ENDBRANCH  29  32
ENDBRANCH  23  24
ENDBRANCH   5  23
TORSDOF 5
ENDMDL
MODEL 3
REMARK VINA RESULT:     -10.8      4.578      9.153
REMARK  Name = Rimegepant
REMARK  5 active torsions:
REMARK  status: ('A' for Active; 'I' for Inactive)
REMARK    1  A    between atoms: N_1  and  C_2
REMARK    2  A    between atoms: C_3  and  C_32
REMARK    3  A    between atoms: C_6  and  O_7
REMARK    4  A    between atoms: O_7  and  C_8
REMARK    5  A    between atoms: C_13  and  N_16
REMARK                            x       y       z     vdW  Elec       q    Type
REMARK                         _______ _______ _______ _____ _____    ______ ____
ROOT
ATOM      1  C   UNL     1      -6.169  -3.216 131.127  0.00  0.00    +0.000 C 
ATOM      2  C   UNL     1      -7.579  -2.922 130.489  0.00  0.00    +0.000 C 
ATOM      3  C   UNL     1      -8.238  -1.582 130.875  0.00  0.00    +0.000 C 
ATOM      4  C   UNL     1      -8.228  -1.174 132.352  0.00  0.00    +0.000 C 
ATOM      5  C   UNL     1      -6.820  -1.098 132.973  0.00  0.00    +0.000 C 
ATOM      6  C   UNL     1      -6.573  -2.482 133.561  0.00  0.00    +0.000 A 
ATOM      7  C   UNL     1      -6.271  -3.514 132.634  0.00  0.00    +0.000 A 
ATOM      8  C   UNL     1      -6.129  -4.806 133.151  0.00  0.00    +0.000 A 
ATOM      9  C   UNL     1      -6.344  -5.041 134.505  0.00  0.00    +0.000 A 
ATOM     10  C   UNL     1      -6.687  -3.972 135.316  0.00  0.00    +0.000 A 
ATOM     11  N   UNL     1      -6.808  -2.699 134.877  0.00  0.00    +0.000 NA
ENDROOT
BRANCH   2  12
ATOM     12  C   UNL     1      -7.606  -2.919 128.950  0.00  0.00    +0.000 A 
ATOM     13  C   UNL     1      -6.755  -2.129 128.154  0.00  0.00    +0.000 A 
ATOM     14  F   UNL     1      -5.827  -1.352 128.736  0.00  0.00    +0.000 F 
ATOM     15  C   UNL     1      -6.883  -2.113 126.763  0.00  0.00    +0.000 A 
ATOM     16  F   UNL     1      -6.001  -1.452 126.002  0.00  0.00    +0.000 F 
ATOM     17  C   UNL     1      -7.925  -2.791 126.146  0.00  0.00    +0.000 A 
ATOM     18  C   UNL     1      -8.811  -3.534 126.924  0.00  0.00    +0.000 A 
ATOM     19  C   UNL     1      -8.625  -3.637 128.307  0.00  0.00    +0.000 A 
ENDBRANCH   2  12
BRANCH   1  20
ATOM     20  N   UNL     1      -5.461  -4.287 130.410  0.00  0.00    +0.000 NA
ATOM     21  H   UNL     1      -4.465  -4.226 130.622  0.00  0.00    +0.000 HD
ATOM     22  H   UNL     1      -5.539  -4.132 129.407  0.00  0.00    +0.000 HD
ENDBRANCH   1  20
BRANCH   5  23
ATOM     23  O   UNL     1      -6.677   0.110 133.743  0.00  0.00    +0.000 OA
BRANCH  23  24
ATOM     24  C   UNL     1      -6.114   1.251 133.171  0.00  0.00    +0.000 C 
ATOM     25  O   UNL     1      -4.890   1.308 133.053  0.00  0.00    +0.000 OA
ATOM     26  N   UNL     1      -6.941   2.344 132.758  0.00  0.00    +0.000 N 
ATOM     27  C   UNL     1      -6.901   2.775 131.384  0.00  0.00    +0.000 C 
ATOM     28  C   UNL     1      -7.289   4.272 131.343  0.00  0.00    +0.000 C 
ATOM     29  C   UNL     1      -8.880   4.784 131.786  0.00  0.00    +0.000 C 
ATOM     30  C   UNL     1      -8.894   4.062 133.203  0.00  0.00    +0.000 C 
ATOM     31  C   UNL     1      -8.221   2.650 133.315  0.00  0.00    +0.000 C 
BRANCH  29  32
ATOM     32  N   UNL     1     -10.227   4.849 130.729  0.00  0.00    +0.000 N 
ATOM     33  C   UNL     1      -9.581   6.184 130.559  0.00  0.00    +0.000 A 
ATOM     34  O   UNL     1      -9.748   7.156 131.395  0.00  0.00    +0.000 OA
ATOM     35  N   UNL     1      -9.488   6.210 129.214  0.00  0.00    +0.000 N 
ATOM     36  C   UNL     1     -10.769   6.611 129.199  0.00  0.00    +0.000 A 
ATOM     37  N   UNL     1     -10.812   7.996 128.937  0.00  0.00    +0.000 NA
ATOM     38  C   UNL     1     -11.984   8.564 128.926  0.00  0.00    +0.000 A 
ATOM     39  C   UNL     1     -12.984   7.639 128.799  0.00  0.00    +0.000 A 
ATOM     40  C   UNL     1     -12.686   6.125 129.262  0.00  0.00    +0.000 A 
ATOM     41  C   UNL     1     -11.508   5.790 129.994  0.00  0.00    +0.000 A 
ATOM     42  H   UNL     1      -9.485   5.219 128.939  0.00  0.00    +0.000 HD
ENDBRANCH  29  32
ENDBRANCH  23  24
ENDBRANCH   5  23
TORSDOF 5
ENDMDL
MODEL 4
REMARK VINA RESULT:     -10.8      4.135      9.225
REMARK  Name = Rimegepant
REMARK  5 active torsions:
REMARK  status: ('A' for Active; 'I' for Inactive)
REMARK    1  A    between atoms: N_1  and  C_2
REMARK    2  A    between atoms: C_3  and  C_32
REMARK    3  A    between atoms: C_6  and  O_7
REMARK    4  A    between atoms: O_7  and  C_8
REMARK    5  A    between atoms: C_13  and  N_16
REMARK                            x       y       z     vdW  Elec       q    Type
REMARK                         _______ _______ _______ _____ _____    ______ ____
ROOT
ATOM      1  C   UNL     1      -5.967  -1.814 127.591  0.00  0.00    +0.000 C 
ATOM      2  C   UNL     1      -7.361  -2.535 127.452  0.00  0.00    +0.000 C 
ATOM      3  C   UNL     1      -8.385  -2.263 128.573  0.00  0.00    +0.000 C 
ATOM      4  C   UNL     1      -7.897  -2.326 130.024  0.00  0.00    +0.000 C 
ATOM      5  C   UNL     1      -6.730  -1.369 130.337  0.00  0.00    +0.000 C 
ATOM      6  C   UNL     1      -5.470  -2.191 130.089  0.00  0.00    +0.000 A 
ATOM      7  C   UNL     1      -5.122  -2.413 128.730  0.00  0.00    +0.000 A 
ATOM      8  C   UNL     1      -4.018  -3.238 128.488  0.00  0.00    +0.000 A 
ATOM      9  C   UNL     1      -3.358  -3.846 129.551  0.00  0.00    +0.000 A 
ATOM     10  C   UNL     1      -3.812  -3.605 130.837  0.00  0.00    +0.000 A 
ATOM     11  N   UNL     1      -4.852  -2.794 131.132  0.00  0.00    +0.000 NA
ENDROOT
BRANCH   2  12
ATOM     12  C   UNL     1      -8.131  -2.212 126.159  0.00  0.00    +0.000 A 
ATOM     13  C   UNL     1      -8.482  -3.176 125.196  0.00  0.00    +0.000 A 
ATOM     14  F   UNL     1      -8.180  -4.468 125.402  0.00  0.00    +0.000 F 
ATOM     15  C   UNL     1      -9.111  -2.805 124.005  0.00  0.00    +0.000 A 
ATOM     16  F   UNL     1      -9.548  -3.733 123.144  0.00  0.00    +0.000 F 
ATOM     17  C   UNL     1      -9.303  -1.465 123.700  0.00  0.00    +0.000 A 
ATOM     18  C   UNL     1      -8.910  -0.493 124.619  0.00  0.00    +0.000 A 
ATOM     19  C   UNL     1      -8.374  -0.864 125.857  0.00  0.00    +0.000 A 
ENDBRANCH   2  12
BRANCH   1  20
ATOM     20  N   UNL     1      -5.231  -1.806 126.318  0.00  0.00    +0.000 NA
ATOM     21  H   UNL     1      -5.483  -2.637 125.783  0.00  0.00    +0.000 HD
ATOM     22  H   UNL     1      -4.234  -1.891 126.504  0.00  0.00    +0.000 HD
ENDBRANCH   1  20
BRANCH   5  23
ATOM     23  O   UNL     1      -6.971  -0.670 131.572  0.00  0.00    +0.000 OA
BRANCH  23  24
ATOM     24  C   UNL     1      -6.548   0.649 131.732  0.00  0.00    +0.000 C 
ATOM     25  O   UNL     1      -5.354   0.864 131.941  0.00  0.00    +0.000 OA
ATOM     26  N   UNL     1      -7.488   1.728 131.684  0.00  0.00    +0.000 N 
ATOM     27  C   UNL     1      -7.308   2.774 130.710  0.00  0.00    +0.000 C 
ATOM     28  C   UNL     1      -7.959   4.062 131.268  0.00  0.00    +0.000 C 
ATOM     29  C   UNL     1      -9.668   4.153 131.514  0.00  0.00    +0.000 C 
ATOM     30  C   UNL     1      -9.775   2.834 132.398  0.00  0.00    +0.000 C 
ATOM     31  C   UNL     1      -8.875   1.611 132.006  0.00  0.00    +0.000 C 
BRANCH  29  32
ATOM     32  N   UNL     1     -10.814   4.604 130.323  0.00  0.00    +0.000 N 
ATOM     33  C   UNL     1     -10.098   5.879 130.625  0.00  0.00    +0.000 A 
ATOM     34  O   UNL     1     -10.366   6.606 131.659  0.00  0.00    +0.000 OA
ATOM     35  N   UNL     1      -9.779   6.250 129.369  0.00  0.00    +0.000 N 
ATOM     36  C   UNL     1     -11.022   6.745 129.269  0.00  0.00    +0.000 A 
ATOM     37  N   UNL     1     -10.968   8.149 129.392  0.00  0.00    +0.000 NA
ATOM     38  C   UNL     1     -12.098   8.794 129.359  0.00  0.00    +0.000 A 
ATOM     39  C   UNL     1     -13.098   8.022 128.834  0.00  0.00    +0.000 A 
ATOM     40  C   UNL     1     -12.940   6.420 128.905  0.00  0.00    +0.000 A 
ATOM     41  C   UNL     1     -11.916   5.808 129.687  0.00  0.00    +0.000 A 
ATOM     42  H   UNL     1      -9.767   5.370 128.836  0.00  0.00    +0.000 HD
ENDBRANCH  29  32
ENDBRANCH  23  24
ENDBRANCH   5  23
TORSDOF 5
ENDMDL
MODEL 5
REMARK VINA RESULT:     -10.6      4.318     10.193
REMARK  Name = Rimegepant
REMARK  5 active torsions:
REMARK  status: ('A' for Active; 'I' for Inactive)
REMARK    1  A    between atoms: N_1  and  C_2
REMARK    2  A    between atoms: C_3  and  C_32
REMARK    3  A    between atoms: C_6  and  O_7
REMARK    4  A    between atoms: O_7  and  C_8
REMARK    5  A    between atoms: C_13  and  N_16
REMARK                            x       y       z     vdW  Elec       q    Type
REMARK                         _______ _______ _______ _____ _____    ______ ____
ROOT
ATOM      1  C   UNL     1      -8.074  -2.692 127.890  0.00  0.00    +0.000 C 
ATOM      2  C   UNL     1      -6.631  -2.849 128.502  0.00  0.00    +0.000 C 
ATOM      3  C   UNL     1      -5.736  -1.593 128.469  0.00  0.00    +0.000 C 
ATOM      4  C   UNL     1      -5.676  -0.785 127.168  0.00  0.00    +0.000 C 
ATOM      5  C   UNL     1      -7.048  -0.286 126.675  0.00  0.00    +0.000 C 
ATOM      6  C   UNL     1      -7.552  -1.378 125.739  0.00  0.00    +0.000 A 
ATOM      7  C   UNL     1      -8.037  -2.561 126.357  0.00  0.00    +0.000 A 
ATOM      8  C   UNL     1      -8.420  -3.605 125.508  0.00  0.00    +0.000 A 
ATOM      9  C   UNL     1      -8.259  -3.478 124.132  0.00  0.00    +0.000 A 
ATOM     10  C   UNL     1      -7.726  -2.300 123.634  0.00  0.00    +0.000 A 
ATOM     11  N   UNL     1      -7.368  -1.248 124.403  0.00  0.00    +0.000 NA
ENDROOT
BRANCH   2  12
ATOM     12  C   UNL     1      -6.597  -3.290 129.976  0.00  0.00    +0.000 A 
ATOM     13  C   UNL     1      -7.265  -2.610 131.012  0.00  0.00    +0.000 A 
ATOM     14  F   UNL     1      -8.017  -1.535 130.729  0.00  0.00    +0.000 F 
ATOM     15  C   UNL     1      -7.129  -3.017 132.341  0.00  0.00    +0.000 A 
ATOM     16  F   UNL     1      -7.854  -2.443 133.310  0.00  0.00    +0.000 F 
ATOM     17  C   UNL     1      -6.244  -4.031 132.679  0.00  0.00    +0.000 A 
ATOM     18  C   UNL     1      -5.532  -4.679 131.671  0.00  0.00    +0.000 A 
ATOM     19  C   UNL     1      -5.742  -4.345 130.328  0.00  0.00    +0.000 A 
ENDBRANCH   2  12
BRANCH   1  20
ATOM     20  N   UNL     1      -8.966  -3.780 128.319  0.00  0.00    +0.000 NA
ATOM     21  H   UNL     1      -9.863  -3.383 128.597  0.00  0.00    +0.000 HD
ATOM     22  H   UNL     1      -8.587  -4.218 129.155  0.00  0.00    +0.000 HD
ENDBRANCH   1  20
BRANCH   5  23
ATOM     23  O   UNL     1      -6.967   1.097 126.283  0.00  0.00    +0.000 OA
BRANCH  23  24
ATOM     24  C   UNL     1      -7.552   2.090 127.069  0.00  0.00    +0.000 C 
ATOM     25  O   UNL     1      -8.781   2.166 127.104  0.00  0.00    +0.000 OA
ATOM     26  N   UNL     1      -6.741   3.019 127.795  0.00  0.00    +0.000 N 
ATOM     27  C   UNL     1      -6.886   3.111 129.225  0.00  0.00    +0.000 C 
ATOM     28  C   UNL     1      -6.473   4.538 129.656  0.00  0.00    +0.000 C 
ATOM     29  C   UNL     1      -4.841   5.078 129.472  0.00  0.00    +0.000 C 
ATOM     30  C   UNL     1      -4.723   4.715 127.927  0.00  0.00    +0.000 C 
ATOM     31  C   UNL     1      -5.413   3.398 127.428  0.00  0.00    +0.000 C 
BRANCH  29  32
ATOM     32  N   UNL     1      -3.585   4.835 130.613  0.00  0.00    +0.000 N 
ATOM     33  C   UNL     1      -4.001   6.250 130.841  0.00  0.00    +0.000 A 
ATOM     34  O   UNL     1      -3.606   7.227 130.093  0.00  0.00    +0.000 OA
ATOM     35  N   UNL     1      -4.189   6.208 132.176  0.00  0.00    +0.000 N 
ATOM     36  C   UNL     1      -2.863   6.373 132.301  0.00  0.00    +0.000 A 
ATOM     37  N   UNL     1      -2.599   7.708 132.668  0.00  0.00    +0.000 NA
ATOM     38  C   UNL     1      -1.351   8.056 132.795  0.00  0.00    +0.000 A 
ATOM     39  C   UNL     1      -0.538   6.962 132.915  0.00  0.00    +0.000 A 
ATOM     40  C   UNL     1      -1.059   5.558 132.322  0.00  0.00    +0.000 A 
ATOM     41  C   UNL     1      -2.219   5.485 131.495  0.00  0.00    +0.000 A 
ATOM     42  H   UNL     1      -4.384   5.218 132.376  0.00  0.00    +0.000 HD
ENDBRANCH  29  32
ENDBRANCH  23  24
ENDBRANCH   5  23
TORSDOF 5
ENDMDL
MODEL 6
REMARK VINA RESULT:     -10.5      4.190      8.821
REMARK  Name = Rimegepant
REMARK  5 active torsions:
REMARK  status: ('A' for Active; 'I' for Inactive)
REMARK    1  A    between atoms: N_1  and  C_2
REMARK    2  A    between atoms: C_3  and  C_32
REMARK    3  A    between atoms: C_6  and  O_7
REMARK    4  A    between atoms: O_7  and  C_8
REMARK    5  A    between atoms: C_13  and  N_16
REMARK                            x       y       z     vdW  Elec       q    Type
REMARK                         _______ _______ _______ _____ _____    ______ ____
ROOT
ATOM      1  C   UNL     1      -7.632   1.209 123.732  0.00  0.00    +0.000 C 
ATOM      2  C   UNL     1      -6.682   0.117 124.352  0.00  0.00    +0.000 C 
ATOM      3  C   UNL     1      -6.074   0.445 125.731  0.00  0.00    +0.000 C 
ATOM      4  C   UNL     1      -5.484   1.843 125.943  0.00  0.00    +0.000 C 
ATOM      5  C   UNL     1      -6.480   2.990 125.686  0.00  0.00    +0.000 C 
ATOM      6  C   UNL     1      -6.292   3.353 124.217  0.00  0.00    +0.000 A 
ATOM      7  C   UNL     1      -6.852   2.454 123.271  0.00  0.00    +0.000 A 
ATOM      8  C   UNL     1      -6.612   2.728 121.920  0.00  0.00    +0.000 A 
ATOM      9  C   UNL     1      -5.804   3.802 121.562  0.00  0.00    +0.000 A 
ATOM     10  C   UNL     1      -5.262   4.587 122.566  0.00  0.00    +0.000 A 
ATOM     11  N   UNL     1      -5.485   4.388 123.884  0.00  0.00    +0.000 NA
ENDROOT
BRANCH   2  12
ATOM     12  C   UNL     1      -7.329  -1.266 124.551  0.00  0.00    +0.000 A 
ATOM     13  C   UNL     1      -8.484  -1.485 125.326  0.00  0.00    +0.000 A 
ATOM     14  F   UNL     1      -9.108  -0.446 125.905  0.00  0.00    +0.000 F 
ATOM     15  C   UNL     1      -8.976  -2.776 125.532  0.00  0.00    +0.000 A 
ATOM     16  F   UNL     1     -10.137  -2.973 126.170  0.00  0.00    +0.000 F 
ATOM     17  C   UNL     1      -8.271  -3.878 125.069  0.00  0.00    +0.000 A 
ATOM     18  C   UNL     1      -7.095  -3.682 124.347  0.00  0.00    +0.000 A 
ATOM     19  C   UNL     1      -6.654  -2.388 124.050  0.00  0.00    +0.000 A 
ENDBRANCH   2  12
BRANCH   1  20
ATOM     20  N   UNL     1      -8.459   0.658 122.647  0.00  0.00    +0.000 NA
ATOM     21  H   UNL     1      -8.041   0.907 121.751  0.00  0.00    +0.000 HD
ATOM     22  H   UNL     1      -9.373   1.104 122.658  0.00  0.00    +0.000 HD
ENDBRANCH   1  20
BRANCH   5  23
ATOM     23  O   UNL     1      -6.406   3.966 126.742  0.00  0.00    +0.000 OA
BRANCH  23  24
ATOM     24  C   UNL     1      -7.344   3.963 127.774  0.00  0.00    +0.000 C 
ATOM     25  O   UNL     1      -8.259   4.787 127.740  0.00  0.00    +0.000 OA
ATOM     26  N   UNL     1      -7.230   3.042 128.863  0.00  0.00    +0.000 N 
ATOM     27  C   UNL     1      -8.315   2.134 129.134  0.00  0.00    +0.000 C 
ATOM     28  C   UNL     1      -8.272   1.776 130.638  0.00  0.00    +0.000 C 
ATOM     29  C   UNL     1      -6.946   0.883 131.296  0.00  0.00    +0.000 C 
ATOM     30  C   UNL     1      -5.810   1.847 130.740  0.00  0.00    +0.000 C 
ATOM     31  C   UNL     1      -6.002   2.461 129.310  0.00  0.00    +0.000 C 
BRANCH  29  32
ATOM     32  N   UNL     1      -6.824  -0.826 131.326  0.00  0.00    +0.000 N 
ATOM     33  C   UNL     1      -7.447  -0.494 132.641  0.00  0.00    +0.000 A 
ATOM     34  O   UNL     1      -6.764  -0.078 133.657  0.00  0.00    +0.000 OA
ATOM     35  N   UNL     1      -8.505  -1.329 132.597  0.00  0.00    +0.000 N 
ATOM     36  C   UNL     1      -7.674  -2.297 133.015  0.00  0.00    +0.000 A 
ATOM     37  N   UNL     1      -7.904  -2.537 134.386  0.00  0.00    +0.000 NA
ATOM     38  C   UNL     1      -7.152  -3.426 134.969  0.00  0.00    +0.000 A 
ATOM     39  C   UNL     1      -6.529  -4.230 134.054  0.00  0.00    +0.000 A 
ATOM     40  C   UNL     1      -6.315  -3.661 132.562  0.00  0.00    +0.000 A 
ATOM     41  C   UNL     1      -6.550  -2.291 132.247  0.00  0.00    +0.000 A 
ATOM     42  H   UNL     1      -8.663  -1.489 131.594  0.00  0.00    +0.000 HD
ENDBRANCH  29  32
ENDBRANCH  23  24
ENDBRANCH   5  23
TORSDOF 5
ENDMDL
MODEL 7
REMARK VINA RESULT:     -10.4      5.912      8.854
REMARK  Name = Rimegepant
REMARK  5 active torsions:
REMARK  status: ('A' for Active; 'I' for Inactive)
REMARK    1  A    between atoms: N_1  and  C_2
REMARK    2  A    between atoms: C_3  and  C_32
REMARK    3  A    between atoms: C_6  and  O_7
REMARK    4  A    between atoms: O_7  and  C_8
REMARK    5  A    between atoms: C_13  and  N_16
REMARK                            x       y       z     vdW  Elec       q    Type
REMARK                         _______ _______ _______ _____ _____    ______ ____
ROOT
ATOM      1  C   UNL     1      -6.742   6.057 138.592  0.00  0.00    +0.000 C 
ATOM      2  C   UNL     1      -6.495   7.612 138.534  0.00  0.00    +0.000 C 
ATOM      3  C   UNL     1      -5.993   8.174 137.189  0.00  0.00    +0.000 C 
ATOM      4  C   UNL     1      -4.860   7.429 136.476  0.00  0.00    +0.000 C 
ATOM      5  C   UNL     1      -5.170   5.950 136.177  0.00  0.00    +0.000 C 
ATOM      6  C   UNL     1      -4.643   5.185 137.385  0.00  0.00    +0.000 A 
ATOM      7  C   UNL     1      -5.423   5.264 138.569  0.00  0.00    +0.000 A 
ATOM      8  C   UNL     1      -4.906   4.639 139.709  0.00  0.00    +0.000 A 
ATOM      9  C   UNL     1      -3.655   4.034 139.664  0.00  0.00    +0.000 A 
ATOM     10  C   UNL     1      -2.951   4.058 138.471  0.00  0.00    +0.000 A 
ATOM     11  N   UNL     1      -3.413   4.619 137.332  0.00  0.00    +0.000 NA
ENDROOT
BRANCH   2  12
ATOM     12  C   UNL     1      -7.727   8.476 138.861  0.00  0.00    +0.000 A 
ATOM     13  C   UNL     1      -8.934   8.422 138.139  0.00  0.00    +0.000 A 
ATOM     14  F   UNL     1      -9.069   7.551 137.127  0.00  0.00    +0.000 F 
ATOM     15  C   UNL     1      -9.987   9.290 138.437  0.00  0.00    +0.000 A 
ATOM     16  F   UNL     1     -11.173   9.161 137.828  0.00  0.00    +0.000 F 
ATOM     17  C   UNL     1      -9.823  10.297 139.377  0.00  0.00    +0.000 A 
ATOM     18  C   UNL     1      -8.614  10.400 140.063  0.00  0.00    +0.000 A 
ATOM     19  C   UNL     1      -7.593   9.469 139.842  0.00  0.00    +0.000 A 
ENDBRANCH   2  12
BRANCH   1  20
ATOM     20  N   UNL     1      -7.578   5.683 139.743  0.00  0.00    +0.000 NA
ATOM     21  H   UNL     1      -7.624   4.665 139.803  0.00  0.00    +0.000 HD
ATOM     22  H   UNL     1      -8.534   5.992 139.581  0.00  0.00    +0.000 HD
ENDBRANCH   1  20
BRANCH   5  23
ATOM     23  O   UNL     1      -4.796   5.622 134.826  0.00  0.00    +0.000 OA
BRANCH  23  24
ATOM     24  C   UNL     1      -5.475   4.625 134.126  0.00  0.00    +0.000 C 
ATOM     25  O   UNL     1      -5.216   3.448 134.378  0.00  0.00    +0.000 OA
ATOM     26  N   UNL     1      -6.431   4.963 133.116  0.00  0.00    +0.000 N 
ATOM     27  C   UNL     1      -7.786   4.492 133.245  0.00  0.00    +0.000 C 
ATOM     28  C   UNL     1      -8.389   4.382 131.825  0.00  0.00    +0.000 C 
ATOM     29  C   UNL     1      -8.639   5.794 130.859  0.00  0.00    +0.000 C 
ATOM     30  C   UNL     1      -7.150   6.341 130.983  0.00  0.00    +0.000 C 
ATOM     31  C   UNL     1      -6.419   6.176 132.361  0.00  0.00    +0.000 C 
BRANCH  29  32
ATOM     32  N   UNL     1     -10.033   6.790 130.907  0.00  0.00    +0.000 N 
ATOM     33  C   UNL     1     -10.266   5.913 129.722  0.00  0.00    +0.000 A 
ATOM     34  O   UNL     1      -9.723   6.131 128.570  0.00  0.00    +0.000 OA
ATOM     35  N   UNL     1     -11.504   5.469 130.021  0.00  0.00    +0.000 N 
ATOM     36  C   UNL     1     -11.969   6.618 129.507  0.00  0.00    +0.000 A 
ATOM     37  N   UNL     1     -12.499   6.365 128.225  0.00  0.00    +0.000 NA
ATOM     38  C   UNL     1     -12.961   7.383 127.559  0.00  0.00    +0.000 A 
ATOM     39  C   UNL     1     -13.189   8.453 128.381  0.00  0.00    +0.000 A 
ATOM     40  C   UNL     1     -12.371   8.538 129.766  0.00  0.00    +0.000 A 
ATOM     41  C   UNL     1     -11.278   7.663 130.039  0.00  0.00    +0.000 A 
ATOM     42  H   UNL     1     -11.567   5.556 131.044  0.00  0.00    +0.000 HD
ENDBRANCH  29  32
ENDBRANCH  23  24
ENDBRANCH   5  23
TORSDOF 5
ENDMDL
MODEL 8
REMARK VINA RESULT:     -10.1      4.601      9.089
REMARK  Name = Rimegepant
REMARK  5 active torsions:
REMARK  status: ('A' for Active; 'I' for Inactive)
REMARK    1  A    between atoms: N_1  and  C_2
REMARK    2  A    between atoms: C_3  and  C_32
REMARK    3  A    between atoms: C_6  and  O_7
REMARK    4  A    between atoms: O_7  and  C_8
REMARK    5  A    between atoms: C_13  and  N_16
REMARK                            x       y       z     vdW  Elec       q    Type
REMARK                         _______ _______ _______ _____ _____    ______ ____
ROOT
ATOM      1  C   UNL     1      -6.197  -1.754 127.541  0.00  0.00    +0.000 C 
ATOM      2  C   UNL     1      -7.256  -2.686 126.840  0.00  0.00    +0.000 C 
ATOM      3  C   UNL     1      -8.519  -3.019 127.659  0.00  0.00    +0.000 C 
ATOM      4  C   UNL     1      -8.341  -3.426 129.125  0.00  0.00    +0.000 C 
ATOM      5  C   UNL     1      -7.599  -2.382 129.981  0.00  0.00    +0.000 C 
ATOM      6  C   UNL     1      -6.130  -2.779 129.901  0.00  0.00    +0.000 A 
ATOM      7  C   UNL     1      -5.462  -2.476 128.685  0.00  0.00    +0.000 A 
ATOM      8  C   UNL     1      -4.139  -2.913 128.565  0.00  0.00    +0.000 A 
ATOM      9  C   UNL     1      -3.559  -3.662 129.584  0.00  0.00    +0.000 A 
ATOM     10  C   UNL     1      -4.315  -3.948 130.708  0.00  0.00    +0.000 A 
ATOM     11  N   UNL     1      -5.586  -3.526 130.891  0.00  0.00    +0.000 NA
ENDROOT
BRANCH   2  12
ATOM     12  C   UNL     1      -7.807  -2.152 125.506  0.00  0.00    +0.000 A 
ATOM     13  C   UNL     1      -8.470  -0.918 125.372  0.00  0.00    +0.000 A 
ATOM     14  F   UNL     1      -8.612  -0.115 126.439  0.00  0.00    +0.000 F 
ATOM     15  C   UNL     1      -9.017  -0.526 124.148  0.00  0.00    +0.000 A 
ATOM     16  F   UNL     1      -9.544   0.695 123.993  0.00  0.00    +0.000 F 
ATOM     17  C   UNL     1      -9.014  -1.397 123.067  0.00  0.00    +0.000 A 
ATOM     18  C   UNL     1      -8.411  -2.646 123.199  0.00  0.00    +0.000 A 
ATOM     19  C   UNL     1      -7.771  -3.002 124.391  0.00  0.00    +0.000 A 
ENDBRANCH   2  12
BRANCH   1  20
ATOM     20  N   UNL     1      -5.253  -1.179 126.570  0.00  0.00    +0.000 NA
ATOM     21  H   UNL     1      -5.236  -1.766 125.737  0.00  0.00    +0.000 HD
ATOM     22  H   UNL     1      -4.311  -1.215 126.953  0.00  0.00    +0.000 HD
ENDBRANCH   1  20
BRANCH   5  23
ATOM     23  O   UNL     1      -8.283  -2.182 131.233  0.00  0.00    +0.000 OA
BRANCH  23  24
ATOM     24  C   UNL     1      -7.729  -1.365 132.218  0.00  0.00    +0.000 C 
ATOM     25  O   UNL     1      -7.798  -1.729 133.392  0.00  0.00    +0.000 OA
ATOM     26  N   UNL     1      -7.120  -0.116 131.874  0.00  0.00    +0.000 N 
ATOM     27  C   UNL     1      -5.743   0.116 132.228  0.00  0.00    +0.000 C 
ATOM     28  C   UNL     1      -5.542   1.641 132.385  0.00  0.00    +0.000 C 
ATOM     29  C   UNL     1      -5.698   2.698 131.026  0.00  0.00    +0.000 C 
ATOM     30  C   UNL     1      -7.141   2.190 130.590  0.00  0.00    +0.000 C 
ATOM     31  C   UNL     1      -7.451   0.657 130.719  0.00  0.00    +0.000 C 
BRANCH  29  32
ATOM     32  N   UNL     1      -4.443   3.080 129.923  0.00  0.00    +0.000 N 
ATOM     33  C   UNL     1      -4.505   4.275 130.816  0.00  0.00    +0.000 A 
ATOM     34  O   UNL     1      -5.387   5.210 130.677  0.00  0.00    +0.000 OA
ATOM     35  N   UNL     1      -3.202   4.362 131.152  0.00  0.00    +0.000 N 
ATOM     36  C   UNL     1      -3.012   5.000 129.987  0.00  0.00    +0.000 A 
ATOM     37  N   UNL     1      -2.874   6.381 130.238  0.00  0.00    +0.000 NA
ATOM     38  C   UNL     1      -2.721   7.161 129.207  0.00  0.00    +0.000 A 
ATOM     39  C   UNL     1      -2.346   6.454 128.098  0.00  0.00    +0.000 A 
ATOM     40  C   UNL     1      -2.713   4.887 128.034  0.00  0.00    +0.000 A 
ATOM     41  C   UNL     1      -3.595   4.290 128.983  0.00  0.00    +0.000 A 
ATOM     42  H   UNL     1      -2.841   3.407 131.028  0.00  0.00    +0.000 HD
ENDBRANCH  29  32
ENDBRANCH  23  24
ENDBRANCH   5  23
TORSDOF 5
ENDMDL
MODEL 9
REMARK VINA RESULT:     -10.1      3.459      3.945
REMARK  Name = Rimegepant
REMARK  5 active torsions:
REMARK  status: ('A' for Active; 'I' for Inactive)
REMARK    1  A    between atoms: N_1  and  C_2
REMARK    2  A    between atoms: C_3  and  C_32
REMARK    3  A    between atoms: C_6  and  O_7
REMARK    4  A    between atoms: O_7  and  C_8
REMARK    5  A    between atoms: C_13  and  N_16
REMARK                            x       y       z     vdW  Elec       q    Type
REMARK                         _______ _______ _______ _____ _____    ______ ____
ROOT
ATOM      1  C   UNL     1      -9.831   5.147 130.878  0.00  0.00    +0.000 C 
ATOM      2  C   UNL     1      -9.979   6.711 130.753  0.00  0.00    +0.000 C 
ATOM      3  C   UNL     1      -8.723   7.481 130.300  0.00  0.00    +0.000 C 
ATOM      4  C   UNL     1      -7.385   7.126 130.957  0.00  0.00    +0.000 C 
ATOM      5  C   UNL     1      -6.991   5.643 130.818  0.00  0.00    +0.000 C 
ATOM      6  C   UNL     1      -7.553   4.967 132.063  0.00  0.00    +0.000 A 
ATOM      7  C   UNL     1      -8.956   4.748 132.080  0.00  0.00    +0.000 A 
ATOM      8  C   UNL     1      -9.496   4.208 133.252  0.00  0.00    +0.000 A 
ATOM      9  C   UNL     1      -8.677   3.972 134.351  0.00  0.00    +0.000 A 
ATOM     10  C   UNL     1      -7.329   4.271 134.248  0.00  0.00    +0.000 A 
ATOM     11  N   UNL     1      -6.747   4.763 133.132  0.00  0.00    +0.000 NA
ENDROOT
BRANCH   2  12
ATOM     12  C   UNL     1     -11.074   7.181 129.779  0.00  0.00    +0.000 A 
ATOM     13  C   UNL     1     -10.995   7.032 128.381  0.00  0.00    +0.000 A 
ATOM     14  F   UNL     1      -9.937   6.413 127.834  0.00  0.00    +0.000 F 
ATOM     15  C   UNL     1     -11.987   7.552 127.546  0.00  0.00    +0.000 A 
ATOM     16  F   UNL     1     -11.969   7.310 126.229  0.00  0.00    +0.000 F 
ATOM     17  C   UNL     1     -13.014   8.323 128.072  0.00  0.00    +0.000 A 
ATOM     18  C   UNL     1     -13.078   8.527 129.450  0.00  0.00    +0.000 A 
ATOM     19  C   UNL     1     -12.145   7.922 130.299  0.00  0.00    +0.000 A 
ENDBRANCH   2  12
BRANCH   1  20
ATOM     20  N   UNL     1     -11.141   4.479 130.917  0.00  0.00    +0.000 NA
ATOM     21  H   UNL     1     -11.054   3.610 131.444  0.00  0.00    +0.000 HD
ATOM     22  H   UNL     1     -11.408   4.204 129.975  0.00  0.00    +0.000 HD
ENDBRANCH   1  20
BRANCH   5  23
ATOM     23  O   UNL     1      -5.610   5.526 130.426  0.00  0.00    +0.000 OA
BRANCH  23  24
ATOM     24  C   UNL     1      -5.254   4.772 129.308  0.00  0.00    +0.000 C 
ATOM     25  O   UNL     1      -4.977   5.363 128.264  0.00  0.00    +0.000 OA
ATOM     26  N   UNL     1      -5.239   3.342 129.365  0.00  0.00    +0.000 N 
ATOM     27  C   UNL     1      -4.018   2.639 129.065  0.00  0.00    +0.000 C 
ATOM     28  C   UNL     1      -4.394   1.234 128.539  0.00  0.00    +0.000 C 
ATOM     29  C   UNL     1      -5.172   0.084 129.569  0.00  0.00    +0.000 C 
ATOM     30  C   UNL     1      -6.361   1.043 130.014  0.00  0.00    +0.000 C 
ATOM     31  C   UNL     1      -6.032   2.557 130.258  0.00  0.00    +0.000 C 
BRANCH  29  32
ATOM     32  N   UNL     1      -4.368  -0.999 130.626  0.00  0.00    +0.000 N 
ATOM     33  C   UNL     1      -5.184  -1.896 129.756  0.00  0.00    +0.000 A 
ATOM     34  O   UNL     1      -6.446  -2.099 129.945  0.00  0.00    +0.000 OA
ATOM     35  N   UNL     1      -4.221  -2.756 129.368  0.00  0.00    +0.000 N 
ATOM     36  C   UNL     1      -4.412  -3.392 130.535  0.00  0.00    +0.000 A 
ATOM     37  N   UNL     1      -5.156  -4.566 130.301  0.00  0.00    +0.000 NA
ATOM     38  C   UNL     1      -5.469  -5.290 131.336  0.00  0.00    +0.000 A 
ATOM     39  C   UNL     1      -4.694  -4.973 132.419  0.00  0.00    +0.000 A 
ATOM     40  C   UNL     1      -4.024  -3.509 132.472  0.00  0.00    +0.000 A 
ATOM     41  C   UNL     1      -4.397  -2.486 131.551  0.00  0.00    +0.000 A 
ATOM     42  H   UNL     1      -3.347  -2.222 129.462  0.00  0.00    +0.000 HD
ENDBRANCH  29  32
ENDBRANCH  23  24
ENDBRANCH   5  23
TORSDOF 5
ENDMDL
