MODEL 1
REMARK VINA RESULT:      -8.9      0.000      0.000
REMARK  Name = Rimonabant
REMARK  5 active torsions:
REMARK  status: ('A' for Active; 'I' for Inactive)
REMARK    1  A    between atoms: C_1  and  C_2
REMARK    2  A    between atoms: C_3  and  C_24
REMARK    3  A    between atoms: N_4  and  C_16
REMARK    4  A    between atoms: C_6  and  C_7
REMARK    5  A    between atoms: N_9  and  N_10
REMARK                            x       y       z     vdW  Elec       q    Type
REMARK                         _______ _______ _______ _____ _____    ______ ____
ROOT
ATOM      1  C   UNL     1      -7.744  -0.221 129.214  0.00  0.00    +0.000 C 
ATOM      2  C   UNL     1      -7.902   0.758 128.090  0.00  0.00    +0.000 A 
ATOM      3  C   UNL     1      -7.617   0.625 126.706  0.00  0.00    +0.000 A 
ATOM      4  N   UNL     1      -7.862   1.907 126.154  0.00  0.00    +0.000 N 
ATOM      5  N   UNL     1      -8.337   2.754 127.094  0.00  0.00    +0.000 NA
ATOM      6  C   UNL     1      -8.377   2.102 128.269  0.00  0.00    +0.000 A 
ENDROOT
BRANCH   4   7
ATOM      7  C   UNL     1      -7.785   2.409 124.795  0.00  0.00    +0.000 A 
ATOM      8  C   UNL     1      -8.829   2.185 123.865  0.00  0.00    +0.000 A 
ATOM      9 CL   UNL     1     -10.329   1.430 124.287  0.00  0.00    +0.000 Cl
ATOM     10  C   UNL     1      -8.743   2.655 122.533  0.00  0.00    +0.000 A 
ATOM     11  C   UNL     1      -7.596   3.304 122.095  0.00  0.00    +0.000 A 
ATOM     12 CL   UNL     1      -7.500   3.906 120.481  0.00  0.00    +0.000 Cl
ATOM     13  C   UNL     1      -6.528   3.471 122.973  0.00  0.00    +0.000 A 
ATOM     14  C   UNL     1      -6.619   3.034 124.316  0.00  0.00    +0.000 A 
ENDBRANCH   4   7
BRANCH   3  15
ATOM     15  C   UNL     1      -7.054  -0.548 125.973  0.00  0.00    +0.000 A 
ATOM     16  C   UNL     1      -7.829  -1.706 125.770  0.00  0.00    +0.000 A 
ATOM     17  C   UNL     1      -7.305  -2.847 125.128  0.00  0.00    +0.000 A 
ATOM     18  C   UNL     1      -5.988  -2.857 124.684  0.00  0.00    +0.000 A 
ATOM     19 CL   UNL     1      -5.341  -4.258 123.919  0.00  0.00    +0.000 Cl
ATOM     20  C   UNL     1      -5.197  -1.727 124.870  0.00  0.00    +0.000 A 
ATOM     21  C   UNL     1      -5.725  -0.584 125.511  0.00  0.00    +0.000 A 
ENDBRANCH   3  15
BRANCH   6  22
ATOM     22  C   UNL     1      -8.863   2.848 129.487  0.00  0.00    +0.000 C 
ATOM     23  O   UNL     1     -10.064   3.140 129.572  0.00  0.00    +0.000 OA
ATOM     24  N   UNL     1      -7.936   3.191 130.494  0.00  0.00    +0.000 N 
ATOM     25  H   UNL     1      -6.973   2.904 130.427  0.00  0.00    +0.000 HD
BRANCH  24  26
ATOM     26  N   UNL     1      -8.220   3.907 131.718  0.00  0.00    +0.000 NA
ATOM     27  C   UNL     1      -8.697   2.983 132.763  0.00  0.00    +0.000 C 
ATOM     28  C   UNL     1      -9.123   3.731 134.032  0.00  0.00    +0.000 C 
ATOM     29  C   UNL     1      -7.996   4.607 134.566  0.00  0.00    +0.000 C 
ATOM     30  C   UNL     1      -7.474   5.521 133.466  0.00  0.00    +0.000 C 
ATOM     31  C   UNL     1      -7.101   4.719 132.224  0.00  0.00    +0.000 C 
ENDBRANCH  24  26
ENDBRANCH   6  22
TORSDOF 4
ENDMDL
MODEL 2
REMARK VINA RESULT:      -8.8      3.673      4.013
REMARK  Name = Rimonabant
REMARK  5 active torsions:
REMARK  status: ('A' for Active; 'I' for Inactive)
REMARK    1  A    between atoms: C_1  and  C_2
REMARK    2  A    between atoms: C_3  and  C_24
REMARK    3  A    between atoms: N_4  and  C_16
REMARK    4  A    between atoms: C_6  and  C_7
REMARK    5  A    between atoms: N_9  and  N_10
REMARK                            x       y       z     vdW  Elec       q    Type
REMARK                         _______ _______ _______ _____ _____    ______ ____
ROOT
ATOM      1  C   UNL     1      -5.110   0.862 127.342  0.00  0.00    +0.000 C 
ATOM      2  C   UNL     1      -5.434   1.770 126.195  0.00  0.00    +0.000 A 
ATOM      3  C   UNL     1      -6.253   1.559 125.055  0.00  0.00    +0.000 A 
ATOM      4  N   UNL     1      -6.096   2.724 124.264  0.00  0.00    +0.000 N 
ATOM      5  N   UNL     1      -5.307   3.627 124.888  0.00  0.00    +0.000 NA
ATOM      6  C   UNL     1      -4.892   3.093 126.051  0.00  0.00    +0.000 A 
ENDROOT
BRANCH   4   7
ATOM      7  C   UNL     1      -6.688   3.129 123.004  0.00  0.00    +0.000 A 
ATOM      8  C   UNL     1      -8.088   3.083 122.797  0.00  0.00    +0.000 A 
ATOM      9 CL   UNL     1      -9.217   2.683 124.048  0.00  0.00    +0.000 Cl
ATOM     10  C   UNL     1      -8.663   3.456 121.560  0.00  0.00    +0.000 A 
ATOM     11  C   UNL     1      -7.851   3.826 120.496  0.00  0.00    +0.000 A 
ATOM     12 CL   UNL     1      -8.551   4.311 118.995  0.00  0.00    +0.000 Cl
ATOM     13  C   UNL     1      -6.467   3.808 120.654  0.00  0.00    +0.000 A 
ATOM     14  C   UNL     1      -5.885   3.469 121.899  0.00  0.00    +0.000 A 
ENDBRANCH   4   7
BRANCH   3  15
ATOM     15  C   UNL     1      -7.025   0.340 124.668  0.00  0.00    +0.000 A 
ATOM     16  C   UNL     1      -6.769  -0.314 123.447  0.00  0.00    +0.000 A 
ATOM     17  C   UNL     1      -7.518  -1.434 123.033  0.00  0.00    +0.000 A 
ATOM     18  C   UNL     1      -8.550  -1.918 123.829  0.00  0.00    +0.000 A 
ATOM     19 CL   UNL     1      -9.479  -3.274 123.313  0.00  0.00    +0.000 Cl
ATOM     20  C   UNL     1      -8.827  -1.294 125.041  0.00  0.00    +0.000 A 
ATOM     21  C   UNL     1      -8.073  -0.173 125.456  0.00  0.00    +0.000 A 
ENDBRANCH   3  15
BRANCH   6  22
ATOM     22  C   UNL     1      -3.979   3.912 126.930  0.00  0.00    +0.000 C 
ATOM     23  O   UNL     1      -2.782   4.006 126.627  0.00  0.00    +0.000 OA
ATOM     24  N   UNL     1      -4.515   4.546 128.071  0.00  0.00    +0.000 N 
ATOM     25  H   UNL     1      -5.500   4.494 128.273  0.00  0.00    +0.000 HD
BRANCH  24  26
ATOM     26  N   UNL     1      -3.791   5.358 129.024  0.00  0.00    +0.000 NA
ATOM     27  C   UNL     1      -4.663   6.410 129.579  0.00  0.00    +0.000 C 
ATOM     28  C   UNL     1      -3.890   7.362 130.500  0.00  0.00    +0.000 C 
ATOM     29  C   UNL     1      -3.186   6.603 131.619  0.00  0.00    +0.000 C 
ATOM     30  C   UNL     1      -2.330   5.486 131.040  0.00  0.00    +0.000 C 
ATOM     31  C   UNL     1      -3.151   4.599 130.110  0.00  0.00    +0.000 C 
ENDBRANCH  24  26
ENDBRANCH   6  22
TORSDOF 4
ENDMDL
MODEL 3
REMARK VINA RESULT:      -8.7      5.433      8.137
REMARK  Name = Rimonabant
REMARK  5 active torsions:
REMARK  status: ('A' for Active; 'I' for Inactive)
REMARK    1  A    between atoms: C_1  and  C_2
REMARK    2  A    between atoms: C_3  and  C_24
REMARK    3  A    between atoms: N_4  and  C_16
REMARK    4  A    between atoms: C_6  and  C_7
REMARK    5  A    between atoms: N_9  and  N_10
REMARK                            x       y       z     vdW  Elec       q    Type
REMARK                         _______ _______ _______ _____ _____    ______ ____
ROOT
ATOM      1  C   UNL     1      -7.837   6.307 132.295  0.00  0.00    +0.000 C 
ATOM      2  C   UNL     1      -7.126   5.655 131.148  0.00  0.00    +0.000 A 
ATOM      3  C   UNL     1      -5.746   5.393 130.949  0.00  0.00    +0.000 A 
ATOM      4  N   UNL     1      -5.656   4.858 129.639  0.00  0.00    +0.000 N 
ATOM      5  N   UNL     1      -6.882   4.721 129.089  0.00  0.00    +0.000 NA
ATOM      6  C   UNL     1      -7.792   5.186 129.964  0.00  0.00    +0.000 A 
ENDROOT
BRANCH   4   7
ATOM      7  C   UNL     1      -4.530   4.367 128.867  0.00  0.00    +0.000 A 
ATOM      8  C   UNL     1      -3.641   5.254 128.212  0.00  0.00    +0.000 A 
ATOM      9 CL   UNL     1      -3.725   6.975 128.380  0.00  0.00    +0.000 Cl
ATOM     10  C   UNL     1      -2.557   4.774 127.440  0.00  0.00    +0.000 A 
ATOM     11  C   UNL     1      -2.377   3.408 127.264  0.00  0.00    +0.000 A 
ATOM     12 CL   UNL     1      -1.038   2.819 126.349  0.00  0.00    +0.000 Cl
ATOM     13  C   UNL     1      -3.282   2.520 127.839  0.00  0.00    +0.000 A 
ATOM     14  C   UNL     1      -4.349   2.990 128.641  0.00  0.00    +0.000 A 
ENDBRANCH   4   7
BRANCH   3  15
ATOM     15  C   UNL     1      -4.592   5.714 131.841  0.00  0.00    +0.000 A 
ATOM     16  C   UNL     1      -4.122   7.036 131.959  0.00  0.00    +0.000 A 
ATOM     17  C   UNL     1      -3.002   7.359 132.752  0.00  0.00    +0.000 A 
ATOM     18  C   UNL     1      -2.319   6.360 133.437  0.00  0.00    +0.000 A 
ATOM     19 CL   UNL     1      -0.938   6.751 134.388  0.00  0.00    +0.000 Cl
ATOM     20  C   UNL     1      -2.759   5.044 133.341  0.00  0.00    +0.000 A 
ATOM     21  C   UNL     1      -3.884   4.723 132.548  0.00  0.00    +0.000 A 
ENDBRANCH   3  15
BRANCH   6  22
ATOM     22  C   UNL     1      -9.248   5.154 129.569  0.00  0.00    +0.000 C 
ATOM     23  O   UNL     1      -9.916   4.145 129.827  0.00  0.00    +0.000 OA
ATOM     24  N   UNL     1      -9.805   6.277 128.919  0.00  0.00    +0.000 N 
ATOM     25  H   UNL     1      -9.256   7.105 128.761  0.00  0.00    +0.000 HD
BRANCH  24  26
ATOM     26  N   UNL     1     -11.171   6.417 128.465  0.00  0.00    +0.000 NA
ATOM     27  C   UNL     1     -12.006   7.034 129.513  0.00  0.00    +0.000 C 
ATOM     28  C   UNL     1     -13.484   7.083 129.105  0.00  0.00    +0.000 C 
ATOM     29  C   UNL     1     -13.671   7.806 127.776  0.00  0.00    +0.000 C 
ATOM     30  C   UNL     1     -12.766   7.196 126.714  0.00  0.00    +0.000 C 
ATOM     31  C   UNL     1     -11.320   7.147 127.196  0.00  0.00    +0.000 C 
ENDBRANCH  24  26
ENDBRANCH   6  22
TORSDOF 4
ENDMDL
MODEL 4
REMARK VINA RESULT:      -8.6      2.695      3.121
REMARK  Name = Rimonabant
REMARK  5 active torsions:
REMARK  status: ('A' for Active; 'I' for Inactive)
REMARK    1  A    between atoms: C_1  and  C_2
REMARK    2  A    between atoms: C_3  and  C_24
REMARK    3  A    between atoms: N_4  and  C_16
REMARK    4  A    between atoms: C_6  and  C_7
REMARK    5  A    between atoms: N_9  and  N_10
REMARK                            x       y       z     vdW  Elec       q    Type
REMARK                         _______ _______ _______ _____ _____    ______ ____
ROOT
ATOM      1  C   UNL     1      -8.176   1.780 129.252  0.00  0.00    +0.000 C 
ATOM      2  C   UNL     1      -7.897   2.578 128.013  0.00  0.00    +0.000 A 
ATOM      3  C   UNL     1      -7.410   2.169 126.745  0.00  0.00    +0.000 A 
ATOM      4  N   UNL     1      -7.246   3.369 126.007  0.00  0.00    +0.000 N 
ATOM      5  N   UNL     1      -7.668   4.435 126.722  0.00  0.00    +0.000 NA
ATOM      6  C   UNL     1      -8.068   4.002 127.931  0.00  0.00    +0.000 A 
ENDROOT
BRANCH   4   7
ATOM      7  C   UNL     1      -6.813   3.619 124.646  0.00  0.00    +0.000 A 
ATOM      8  C   UNL     1      -7.566   3.165 123.536  0.00  0.00    +0.000 A 
ATOM      9 CL   UNL     1      -9.115   2.407 123.689  0.00  0.00    +0.000 Cl
ATOM     10  C   UNL     1      -7.131   3.390 122.209  0.00  0.00    +0.000 A 
ATOM     11  C   UNL     1      -5.917   4.019 121.970  0.00  0.00    +0.000 A 
ATOM     12 CL   UNL     1      -5.398   4.323 120.352  0.00  0.00    +0.000 Cl
ATOM     13  C   UNL     1      -5.125   4.409 123.047  0.00  0.00    +0.000 A 
ATOM     14  C   UNL     1      -5.568   4.218 124.378  0.00  0.00    +0.000 A 
ENDBRANCH   4   7
BRANCH   3  15
ATOM     15  C   UNL     1      -7.017   0.803 126.286  0.00  0.00    +0.000 A 
ATOM     16  C   UNL     1      -5.661   0.472 126.097  0.00  0.00    +0.000 A 
ATOM     17  C   UNL     1      -5.266  -0.792 125.615  0.00  0.00    +0.000 A 
ATOM     18  C   UNL     1      -6.222  -1.751 125.299  0.00  0.00    +0.000 A 
ATOM     19 CL   UNL     1      -5.740  -3.288 124.689  0.00  0.00    +0.000 Cl
ATOM     20  C   UNL     1      -7.570  -1.454 125.475  0.00  0.00    +0.000 A 
ATOM     21  C   UNL     1      -7.964  -0.187 125.962  0.00  0.00    +0.000 A 
ENDBRANCH   3  15
BRANCH   6  22
ATOM     22  C   UNL     1      -8.574   5.018 128.925  0.00  0.00    +0.000 C 
ATOM     23  O   UNL     1      -7.771   5.540 129.709  0.00  0.00    +0.000 OA
ATOM     24  N   UNL     1      -9.947   5.345 128.930  0.00  0.00    +0.000 N 
ATOM     25  H   UNL     1     -10.575   4.943 128.253  0.00  0.00    +0.000 HD
BRANCH  24  26
ATOM     26  N   UNL     1     -10.605   6.284 129.812  0.00  0.00    +0.000 NA
ATOM     27  C   UNL     1     -11.589   7.093 129.069  0.00  0.00    +0.000 C 
ATOM     28  C   UNL     1     -12.213   8.181 129.952  0.00  0.00    +0.000 C 
ATOM     29  C   UNL     1     -12.845   7.585 131.205  0.00  0.00    +0.000 C 
ATOM     30  C   UNL     1     -11.838   6.709 131.937  0.00  0.00    +0.000 C 
ATOM     31  C   UNL     1     -11.232   5.674 130.995  0.00  0.00    +0.000 C 
ENDBRANCH  24  26
ENDBRANCH   6  22
TORSDOF 4
ENDMDL
MODEL 5
REMARK VINA RESULT:      -8.4      3.137      5.594
REMARK  Name = Rimonabant
REMARK  5 active torsions:
REMARK  status: ('A' for Active; 'I' for Inactive)
REMARK    1  A    between atoms: C_1  and  C_2
REMARK    2  A    between atoms: C_3  and  C_24
REMARK    3  A    between atoms: N_4  and  C_16
REMARK    4  A    between atoms: C_6  and  C_7
REMARK    5  A    between atoms: N_9  and  N_10
REMARK                            x       y       z     vdW  Elec       q    Type
REMARK                         _______ _______ _______ _____ _____    ______ ____
ROOT
ATOM      1  C   UNL     1      -5.248   5.057 124.966  0.00  0.00    +0.000 C 
ATOM      2  C   UNL     1      -5.729   3.643 125.089  0.00  0.00    +0.000 A 
ATOM      3  C   UNL     1      -6.437   2.827 124.168  0.00  0.00    +0.000 A 
ATOM      4  N   UNL     1      -6.712   1.628 124.871  0.00  0.00    +0.000 N 
ATOM      5  N   UNL     1      -6.157   1.653 126.103  0.00  0.00    +0.000 NA
ATOM      6  C   UNL     1      -5.557   2.845 126.271  0.00  0.00    +0.000 A 
ENDROOT
BRANCH   4   7
ATOM      7  C   UNL     1      -7.374   0.400 124.474  0.00  0.00    +0.000 A 
ATOM      8  C   UNL     1      -8.551  -0.048 125.123  0.00  0.00    +0.000 A 
ATOM      9 CL   UNL     1      -9.376   0.876 126.332  0.00  0.00    +0.000 Cl
ATOM     10  C   UNL     1      -9.183  -1.258 124.749  0.00  0.00    +0.000 A 
ATOM     11  C   UNL     1      -8.623  -2.063 123.766  0.00  0.00    +0.000 A 
ATOM     12 CL   UNL     1      -9.408  -3.523 123.287  0.00  0.00    +0.000 Cl
ATOM     13  C   UNL     1      -7.427  -1.677 123.166  0.00  0.00    +0.000 A 
ATOM     14  C   UNL     1      -6.806  -0.452 123.509  0.00  0.00    +0.000 A 
ENDBRANCH   4   7
BRANCH   3  15
ATOM     15  C   UNL     1      -6.922   3.165 122.796  0.00  0.00    +0.000 A 
ATOM     16  C   UNL     1      -6.018   3.568 121.794  0.00  0.00    +0.000 A 
ATOM     17  C   UNL     1      -6.455   3.943 120.507  0.00  0.00    +0.000 A 
ATOM     18  C   UNL     1      -7.810   3.935 120.199  0.00  0.00    +0.000 A 
ATOM     19 CL   UNL     1      -8.346   4.415 118.633  0.00  0.00    +0.000 Cl
ATOM     20  C   UNL     1      -8.729   3.542 121.168  0.00  0.00    +0.000 A 
ATOM     21  C   UNL     1      -8.288   3.163 122.456  0.00  0.00    +0.000 A 
ENDBRANCH   3  15
BRANCH   6  22
ATOM     22  C   UNL     1      -4.871   3.123 127.586  0.00  0.00    +0.000 C 
ATOM     23  O   UNL     1      -4.106   2.269 128.055  0.00  0.00    +0.000 OA
ATOM     24  N   UNL     1      -5.120   4.347 128.242  0.00  0.00    +0.000 N 
ATOM     25  H   UNL     1      -5.709   5.046 127.821  0.00  0.00    +0.000 HD
BRANCH  24  26
ATOM     26  N   UNL     1      -4.560   4.776 129.505  0.00  0.00    +0.000 NA
ATOM     27  C   UNL     1      -3.283   5.483 129.294  0.00  0.00    +0.000 C 
ATOM     28  C   UNL     1      -2.606   5.842 130.623  0.00  0.00    +0.000 C 
ATOM     29  C   UNL     1      -3.531   6.661 131.514  0.00  0.00    +0.000 C 
ATOM     30  C   UNL     1      -4.866   5.949 131.684  0.00  0.00    +0.000 C 
ATOM     31  C   UNL     1      -5.467   5.593 130.328  0.00  0.00    +0.000 C 
ENDBRANCH  24  26
ENDBRANCH   6  22
TORSDOF 4
ENDMDL
MODEL 6
REMARK VINA RESULT:      -8.2      4.047      6.345
REMARK  Name = Rimonabant
REMARK  5 active torsions:
REMARK  status: ('A' for Active; 'I' for Inactive)
REMARK    1  A    between atoms: C_1  and  C_2
REMARK    2  A    between atoms: C_3  and  C_24
REMARK    3  A    between atoms: N_4  and  C_16
REMARK    4  A    between atoms: C_6  and  C_7
REMARK    5  A    between atoms: N_9  and  N_10
REMARK                            x       y       z     vdW  Elec       q    Type
REMARK                         _______ _______ _______ _____ _____    ______ ____
ROOT
ATOM      1  C   UNL     1      -5.930   2.276 125.635  0.00  0.00    +0.000 C 
ATOM      2  C   UNL     1      -5.595   1.322 126.741  0.00  0.00    +0.000 A 
ATOM      3  C   UNL     1      -5.992  -0.024 126.949  0.00  0.00    +0.000 A 
ATOM      4  N   UNL     1      -5.458  -0.377 128.213  0.00  0.00    +0.000 N 
ATOM      5  N   UNL     1      -4.720   0.633 128.724  0.00  0.00    +0.000 NA
ATOM      6  C   UNL     1      -4.776   1.670 127.869  0.00  0.00    +0.000 A 
ENDROOT
BRANCH   4   7
ATOM      7  C   UNL     1      -5.489  -1.615 128.968  0.00  0.00    +0.000 A 
ATOM      8  C   UNL     1      -6.531  -1.895 129.885  0.00  0.00    +0.000 A 
ATOM      9 CL   UNL     1      -7.915  -0.874 130.087  0.00  0.00    +0.000 Cl
ATOM     10  C   UNL     1      -6.548  -3.093 130.638  0.00  0.00    +0.000 A 
ATOM     11  C   UNL     1      -5.503  -4.000 130.530  0.00  0.00    +0.000 A 
ATOM     12 CL   UNL     1      -5.536  -5.476 131.423  0.00  0.00    +0.000 Cl
ATOM     13  C   UNL     1      -4.431  -3.711 129.689  0.00  0.00    +0.000 A 
ATOM     14  C   UNL     1      -4.422  -2.531 128.906  0.00  0.00    +0.000 A 
ENDBRANCH   4   7
BRANCH   3  15
ATOM     15  C   UNL     1      -6.886  -0.878 126.110  0.00  0.00    +0.000 A 
ATOM     16  C   UNL     1      -6.424  -1.429 124.900  0.00  0.00    +0.000 A 
ATOM     17  C   UNL     1      -7.263  -2.194 124.063  0.00  0.00    +0.000 A 
ATOM     18  C   UNL     1      -8.589  -2.414 124.417  0.00  0.00    +0.000 A 
ATOM     19 CL   UNL     1      -9.620  -3.330 123.384  0.00  0.00    +0.000 Cl
ATOM     20  C   UNL     1      -9.076  -1.883 125.607  0.00  0.00    +0.000 A 
ATOM     21  C   UNL     1      -8.232  -1.119 126.445  0.00  0.00    +0.000 A 
ENDBRANCH   3  15
BRANCH   6  22
ATOM     22  C   UNL     1      -4.035   2.935 128.228  0.00  0.00    +0.000 C 
ATOM     23  O   UNL     1      -2.847   3.047 127.901  0.00  0.00    +0.000 OA
ATOM     24  N   UNL     1      -4.720   3.954 128.925  0.00  0.00    +0.000 N 
ATOM     25  H   UNL     1      -5.699   3.861 129.141  0.00  0.00    +0.000 HD
BRANCH  24  26
ATOM     26  N   UNL     1      -4.171   5.221 129.355  0.00  0.00    +0.000 NA
ATOM     27  C   UNL     1      -3.956   6.113 128.201  0.00  0.00    +0.000 C 
ATOM     28  C   UNL     1      -3.260   7.417 128.612  0.00  0.00    +0.000 C 
ATOM     29  C   UNL     1      -4.034   8.138 129.709  0.00  0.00    +0.000 C 
ATOM     30  C   UNL     1      -4.297   7.194 130.875  0.00  0.00    +0.000 C 
ATOM     31  C   UNL     1      -4.958   5.907 130.393  0.00  0.00    +0.000 C 
ENDBRANCH  24  26
ENDBRANCH   6  22
TORSDOF 4
ENDMDL
MODEL 7
REMARK VINA RESULT:      -8.2      3.333      4.541
REMARK  Name = Rimonabant
REMARK  5 active torsions:
REMARK  status: ('A' for Active; 'I' for Inactive)
REMARK    1  A    between atoms: C_1  and  C_2
REMARK    2  A    between atoms: C_3  and  C_24
REMARK    3  A    between atoms: N_4  and  C_16
REMARK    4  A    between atoms: C_6  and  C_7
REMARK    5  A    between atoms: N_9  and  N_10
REMARK                            x       y       z     vdW  Elec       q    Type
REMARK                         _______ _______ _______ _____ _____    ______ ____
ROOT
ATOM      1  C   UNL     1      -7.654   2.090 131.546  0.00  0.00    +0.000 C 
ATOM      2  C   UNL     1      -7.844   1.904 130.071  0.00  0.00    +0.000 A 
ATOM      3  C   UNL     1      -7.636   0.764 129.251  0.00  0.00    +0.000 A 
ATOM      4  N   UNL     1      -7.875   1.212 127.927  0.00  0.00    +0.000 N 
ATOM      5  N   UNL     1      -8.278   2.502 127.920  0.00  0.00    +0.000 NA
ATOM      6  C   UNL     1      -8.274   2.952 129.187  0.00  0.00    +0.000 A 
ENDROOT
BRANCH   4   7
ATOM      7  C   UNL     1      -7.856   0.522 126.652  0.00  0.00    +0.000 A 
ATOM      8  C   UNL     1      -6.668   0.416 125.888  0.00  0.00    +0.000 A 
ATOM      9 CL   UNL     1      -5.126   0.962 126.454  0.00  0.00    +0.000 Cl
ATOM     10  C   UNL     1      -6.655  -0.237 124.633  0.00  0.00    +0.000 A 
ATOM     11  C   UNL     1      -7.832  -0.743 124.097  0.00  0.00    +0.000 A 
ATOM     12 CL   UNL     1      -7.814  -1.567 122.581  0.00  0.00    +0.000 Cl
ATOM     13  C   UNL     1      -9.025  -0.585 124.798  0.00  0.00    +0.000 A 
ATOM     14  C   UNL     1      -9.041   0.037 126.069  0.00  0.00    +0.000 A 
ENDBRANCH   4   7
BRANCH   3  15
ATOM     15  C   UNL     1      -7.144  -0.592 129.638  0.00  0.00    +0.000 A 
ATOM     16  C   UNL     1      -5.818  -0.980 129.361  0.00  0.00    +0.000 A 
ATOM     17  C   UNL     1      -5.344  -2.272 129.667  0.00  0.00    +0.000 A 
ATOM     18  C   UNL     1      -6.191  -3.209 130.247  0.00  0.00    +0.000 A 
ATOM     19 CL   UNL     1      -5.618  -4.794 130.601  0.00  0.00    +0.000 Cl
ATOM     20  C   UNL     1      -7.506  -2.856 130.532  0.00  0.00    +0.000 A 
ATOM     21  C   UNL     1      -7.979  -1.559 130.228  0.00  0.00    +0.000 A 
ENDBRANCH   3  15
BRANCH   6  22
ATOM     22  C   UNL     1      -8.676   4.385 129.440  0.00  0.00    +0.000 C 
ATOM     23  O   UNL     1      -7.822   5.275 129.328  0.00  0.00    +0.000 OA
ATOM     24  N   UNL     1     -10.012   4.669 129.795  0.00  0.00    +0.000 N 
ATOM     25  H   UNL     1     -10.700   3.935 129.835  0.00  0.00    +0.000 HD
BRANCH  24  26
ATOM     26  N   UNL     1     -10.569   5.973 130.079  0.00  0.00    +0.000 NA
ATOM     27  C   UNL     1     -10.819   6.715 128.829  0.00  0.00    +0.000 C 
ATOM     28  C   UNL     1     -11.293   8.147 129.104  0.00  0.00    +0.000 C 
ATOM     29  C   UNL     1     -12.532   8.161 129.992  0.00  0.00    +0.000 C 
ATOM     30  C   UNL     1     -12.283   7.349 131.256  0.00  0.00    +0.000 C 
ATOM     31  C   UNL     1     -11.782   5.950 130.912  0.00  0.00    +0.000 C 
ENDBRANCH  24  26
ENDBRANCH   6  22
TORSDOF 4
ENDMDL
MODEL 8
REMARK VINA RESULT:      -8.1      2.153      4.995
REMARK  Name = Rimonabant
REMARK  5 active torsions:
REMARK  status: ('A' for Active; 'I' for Inactive)
REMARK    1  A    between atoms: C_1  and  C_2
REMARK    2  A    between atoms: C_3  and  C_24
REMARK    3  A    between atoms: N_4  and  C_16
REMARK    4  A    between atoms: C_6  and  C_7
REMARK    5  A    between atoms: N_9  and  N_10
REMARK                            x       y       z     vdW  Elec       q    Type
REMARK                         _______ _______ _______ _____ _____    ______ ____
ROOT
ATOM      1  C   UNL     1      -6.006   5.648 125.204  0.00  0.00    +0.000 C 
ATOM      2  C   UNL     1      -6.367   4.198 125.317  0.00  0.00    +0.000 A 
ATOM      3  C   UNL     1      -6.750   3.264 124.320  0.00  0.00    +0.000 A 
ATOM      4  N   UNL     1      -7.074   2.079 125.028  0.00  0.00    +0.000 N 
ATOM      5  N   UNL     1      -6.839   2.228 126.351  0.00  0.00    +0.000 NA
ATOM      6  C   UNL     1      -6.412   3.485 126.564  0.00  0.00    +0.000 A 
ENDROOT
BRANCH   4   7
ATOM      7  C   UNL     1      -7.501   0.767 124.580  0.00  0.00    +0.000 A 
ATOM      8  C   UNL     1      -8.869   0.467 124.371  0.00  0.00    +0.000 A 
ATOM      9 CL   UNL     1     -10.127   1.651 124.491  0.00  0.00    +0.000 Cl
ATOM     10  C   UNL     1      -9.287  -0.819 123.957  0.00  0.00    +0.000 A 
ATOM     11  C   UNL     1      -8.356  -1.837 123.798  0.00  0.00    +0.000 A 
ATOM     12 CL   UNL     1      -8.858  -3.399 123.263  0.00  0.00    +0.000 Cl
ATOM     13  C   UNL     1      -7.014  -1.585 124.069  0.00  0.00    +0.000 A 
ATOM     14  C   UNL     1      -6.583  -0.291 124.451  0.00  0.00    +0.000 A 
ENDBRANCH   4   7
BRANCH   3  15
ATOM     15  C   UNL     1      -6.917   3.475 122.851  0.00  0.00    +0.000 A 
ATOM     16  C   UNL     1      -5.815   3.822 122.046  0.00  0.00    +0.000 A 
ATOM     17  C   UNL     1      -5.955   4.080 120.667  0.00  0.00    +0.000 A 
ATOM     18  C   UNL     1      -7.206   4.006 120.065  0.00  0.00    +0.000 A 
ATOM     19 CL   UNL     1      -7.380   4.342 118.385  0.00  0.00    +0.000 Cl
ATOM     20  C   UNL     1      -8.314   3.666 120.834  0.00  0.00    +0.000 A 
ATOM     21  C   UNL     1      -8.171   3.405 122.216  0.00  0.00    +0.000 A 
ENDBRANCH   3  15
BRANCH   6  22
ATOM     22  C   UNL     1      -6.095   3.904 127.979  0.00  0.00    +0.000 C 
ATOM     23  O   UNL     1      -4.955   4.307 128.244  0.00  0.00    +0.000 OA
ATOM     24  N   UNL     1      -7.108   3.826 128.959  0.00  0.00    +0.000 N 
ATOM     25  H   UNL     1      -8.041   3.539 128.712  0.00  0.00    +0.000 HD
BRANCH  24  26
ATOM     26  N   UNL     1      -6.983   4.175 130.356  0.00  0.00    +0.000 NA
ATOM     27  C   UNL     1      -7.362   5.583 130.577  0.00  0.00    +0.000 C 
ATOM     28  C   UNL     1      -7.121   6.016 132.028  0.00  0.00    +0.000 C 
ATOM     29  C   UNL     1      -7.851   5.104 133.008  0.00  0.00    +0.000 C 
ATOM     30  C   UNL     1      -7.494   3.649 132.740  0.00  0.00    +0.000 C 
ATOM     31  C   UNL     1      -7.724   3.295 131.274  0.00  0.00    +0.000 C 
ENDBRANCH  24  26
ENDBRANCH   6  22
TORSDOF 4
ENDMDL
MODEL 9
REMARK VINA RESULT:      -8.0      4.356      5.490
REMARK  Name = Rimonabant
REMARK  5 active torsions:
REMARK  status: ('A' for Active; 'I' for Inactive)
REMARK    1  A    between atoms: C_1  and  C_2
REMARK    2  A    between atoms: C_3  and  C_24
REMARK    3  A    between atoms: N_4  and  C_16
REMARK    4  A    between atoms: C_6  and  C_7
REMARK    5  A    between atoms: N_9  and  N_10
REMARK                            x       y       z     vdW  Elec       q    Type
REMARK                         _______ _______ _______ _____ _____    ______ ____
ROOT
ATOM      1  C   UNL     1     -10.149   2.908 130.768  0.00  0.00    +0.000 C 
ATOM      2  C   UNL     1      -8.936   3.338 129.999  0.00  0.00    +0.000 A 
ATOM      3  C   UNL     1      -7.785   2.605 129.609  0.00  0.00    +0.000 A 
ATOM      4  N   UNL     1      -6.928   3.557 129.003  0.00  0.00    +0.000 N 
ATOM      5  N   UNL     1      -7.520   4.770 128.943  0.00  0.00    +0.000 NA
ATOM      6  C   UNL     1      -8.728   4.679 129.529  0.00  0.00    +0.000 A 
ENDROOT
BRANCH   4   7
ATOM      7  C   UNL     1      -5.625   3.431 128.378  0.00  0.00    +0.000 A 
ATOM      8  C   UNL     1      -5.472   2.833 127.104  0.00  0.00    +0.000 A 
ATOM      9 CL   UNL     1      -6.810   2.333 126.125  0.00  0.00    +0.000 Cl
ATOM     10  C   UNL     1      -4.198   2.689 126.505  0.00  0.00    +0.000 A 
ATOM     11  C   UNL     1      -3.057   3.087 127.190  0.00  0.00    +0.000 A 
ATOM     12 CL   UNL     1      -1.504   2.942 126.450  0.00  0.00    +0.000 Cl
ATOM     13  C   UNL     1      -3.178   3.610 128.475  0.00  0.00    +0.000 A 
ATOM     14  C   UNL     1      -4.451   3.789 129.067  0.00  0.00    +0.000 A 
ENDBRANCH   4   7
BRANCH   3  15
ATOM     15  C   UNL     1      -7.449   1.174 129.876  0.00  0.00    +0.000 A 
ATOM     16  C   UNL     1      -7.760   0.176 128.932  0.00  0.00    +0.000 A 
ATOM     17  C   UNL     1      -7.503  -1.188 129.180  0.00  0.00    +0.000 A 
ATOM     18  C   UNL     1      -6.938  -1.584 130.387  0.00  0.00    +0.000 A 
ATOM     19 CL   UNL     1      -6.644  -3.252 130.700  0.00  0.00    +0.000 Cl
ATOM     20  C   UNL     1      -6.620  -0.622 131.341  0.00  0.00    +0.000 A 
ATOM     21  C   UNL     1      -6.876   0.745 131.088  0.00  0.00    +0.000 A 
ENDBRANCH   3  15
BRANCH   6  22
ATOM     22  C   UNL     1      -9.584   5.920 129.602  0.00  0.00    +0.000 C 
ATOM     23  O   UNL     1      -9.041   7.010 129.824  0.00  0.00    +0.000 OA
ATOM     24  N   UNL     1     -10.978   5.801 129.414  0.00  0.00    +0.000 N 
ATOM     25  H   UNL     1     -11.393   4.912 129.189  0.00  0.00    +0.000 HD
BRANCH  24  26
ATOM     26  N   UNL     1     -11.946   6.874 129.457  0.00  0.00    +0.000 NA
ATOM     27  C   UNL     1     -12.007   7.466 130.806  0.00  0.00    +0.000 C 
ATOM     28  C   UNL     1     -13.113   8.523 130.914  0.00  0.00    +0.000 C 
ATOM     29  C   UNL     1     -12.946   9.611 129.859  0.00  0.00    +0.000 C 
ATOM     30  C   UNL     1     -12.831   8.988 128.475  0.00  0.00    +0.000 C 
ATOM     31  C   UNL     1     -11.738   7.924 128.447  0.00  0.00    +0.000 C 
ENDBRANCH  24  26
ENDBRANCH   6  22
TORSDOF 4
ENDMDL
