MODEL 1
REMARK VINA RESULT:      -8.5      0.000      0.000
REMARK  Name = Riociguat
REMARK  8 active torsions:
REMARK  status: ('A' for Active; 'I' for Inactive)
REMARK    1  A    between atoms: C_1  and  O_2
REMARK    2  A    between atoms: O_2  and  C_3
REMARK    3  A    between atoms: N_5  and  C_6
REMARK    4  A    between atoms: N_5  and  C_7
REMARK    5  A    between atoms: C_8  and  N_9
REMARK    6  A    between atoms: C_11  and  C_15
REMARK    7  A    between atoms: N_17  and  C_18
REMARK    8  A    between atoms: C_18  and  C_19
REMARK                            x       y       z     vdW  Elec       q    Type
REMARK                         _______ _______ _______ _____ _____    ______ ____
ROOT
ATOM      1  C   UNL     1      -7.952   0.426 126.539  0.00  0.00    +0.000 A 
ATOM      2  C   UNL     1      -8.386   1.719 126.187  0.00  0.00    +0.000 A 
ATOM      3  N   UNL     1      -8.619   2.704 127.075  0.00  0.00    +0.000 NA
ATOM      4  C   UNL     1      -8.438   2.402 128.368  0.00  0.00    +0.000 A 
ATOM      5  N   UNL     1      -7.997   1.212 128.831  0.00  0.00    +0.000 NA
ATOM      6  C   UNL     1      -7.781   0.240 127.921  0.00  0.00    +0.000 A 
ATOM      7  N   UNL     1      -7.459  -0.999 128.482  0.00  0.00    +0.000 N 
ATOM      8  H   UNL     1      -7.244  -0.910 129.471  0.00  0.00    +0.000 HD
ATOM      9  H   UNL     1      -6.785  -1.547 127.966  0.00  0.00    +0.000 HD
ENDROOT
BRANCH   4  10
ATOM     10  C   UNL     1      -8.719   3.452 129.368  0.00  0.00    +0.000 A 
ATOM     11  N   UNL     1      -8.934   4.755 129.060  0.00  0.00    +0.000 NA
ATOM     12  N   UNL     1      -9.206   5.352 130.258  0.00  0.00    +0.000 N 
ATOM     13  C   UNL     1      -9.188   4.458 131.307  0.00  0.00    +0.000 A 
ATOM     14  C   UNL     1      -8.824   3.235 130.771  0.00  0.00    +0.000 A 
ATOM     15  C   UNL     1      -8.669   2.158 131.662  0.00  0.00    +0.000 A 
ATOM     16  C   UNL     1      -8.870   2.393 133.022  0.00  0.00    +0.000 A 
ATOM     17  C   UNL     1      -9.244   3.657 133.430  0.00  0.00    +0.000 A 
ATOM     18  N   UNL     1      -9.447   4.699 132.608  0.00  0.00    +0.000 NA
BRANCH  12  19
ATOM     19  C   UNL     1      -9.480   6.801 130.273  0.00  0.00    +0.000 C 
BRANCH  19  20
ATOM     20  C   UNL     1     -10.681   7.226 129.465  0.00  0.00    +0.000 A 
ATOM     21  C   UNL     1     -11.955   6.754 129.805  0.00  0.00    +0.000 A 
ATOM     22  F   UNL     1     -12.110   6.002 130.908  0.00  0.00    +0.000 F 
ATOM     23  C   UNL     1     -13.035   6.910 128.947  0.00  0.00    +0.000 A 
ATOM     24  C   UNL     1     -12.833   7.480 127.692  0.00  0.00    +0.000 A 
ATOM     25  C   UNL     1     -11.569   7.957 127.341  0.00  0.00    +0.000 A 
ATOM     26  C   UNL     1     -10.526   7.936 128.267  0.00  0.00    +0.000 A 
ENDBRANCH  19  20
ENDBRANCH  12  19
ENDBRANCH   4  10
BRANCH   1  29
ATOM     27  C   UNL     1      -8.661  -1.549 125.208  0.00  0.00    +0.000 C 
ATOM     28  O   UNL     1      -9.829  -1.510 125.619  0.00  0.00    +0.000 OA
ATOM     29  N   UNL     1      -7.681  -0.606 125.540  0.00  0.00    +0.000 N 
ATOM     30  C   UNL     1      -6.310  -0.742 125.052  0.00  0.00    +0.000 C 
BRANCH  27  32
ATOM     31  C   UNL     1      -9.268  -3.131 123.565  0.00  0.00    +0.000 C 
ATOM     32  O   UNL     1      -8.238  -2.554 124.386  0.00  0.00    +0.000 OA
ENDBRANCH  27  32
ENDBRANCH   1  29
BRANCH   2  33
ATOM     33  N   UNL     1      -8.827   2.021 124.889  0.00  0.00    +0.000 N 
ATOM     34  H   UNL     1      -8.808   3.019 124.708  0.00  0.00    +0.000 HD
ATOM     35  H   UNL     1      -9.767   1.651 124.784  0.00  0.00    +0.000 HD
ENDBRANCH   2  33
TORSDOF 6
ENDMDL
MODEL 2
REMARK VINA RESULT:      -8.4      1.124      2.072
REMARK  Name = Riociguat
REMARK  8 active torsions:
REMARK  status: ('A' for Active; 'I' for Inactive)
REMARK    1  A    between atoms: C_1  and  O_2
REMARK    2  A    between atoms: O_2  and  C_3
REMARK    3  A    between atoms: N_5  and  C_6
REMARK    4  A    between atoms: N_5  and  C_7
REMARK    5  A    between atoms: C_8  and  N_9
REMARK    6  A    between atoms: C_11  and  C_15
REMARK    7  A    between atoms: N_17  and  C_18
REMARK    8  A    between atoms: C_18  and  C_19
REMARK                            x       y       z     vdW  Elec       q    Type
REMARK                         _______ _______ _______ _____ _____    ______ ____
ROOT
ATOM      1  C   UNL     1      -7.765   0.248 127.284  0.00  0.00    +0.000 A 
ATOM      2  C   UNL     1      -7.812  -0.022 128.665  0.00  0.00    +0.000 A 
ATOM      3  N   UNL     1      -8.260   0.848 129.588  0.00  0.00    +0.000 NA
ATOM      4  C   UNL     1      -8.663   2.046 129.141  0.00  0.00    +0.000 A 
ATOM      5  N   UNL     1      -8.695   2.415 127.841  0.00  0.00    +0.000 NA
ATOM      6  C   UNL     1      -8.230   1.529 126.938  0.00  0.00    +0.000 A 
ATOM      7  N   UNL     1      -8.168   2.029 125.635  0.00  0.00    +0.000 N 
ATOM      8  H   UNL     1      -8.672   2.907 125.553  0.00  0.00    +0.000 HD
ATOM      9  H   UNL     1      -8.385   1.365 124.905  0.00  0.00    +0.000 HD
ENDROOT
BRANCH   4  10
ATOM     10  C   UNL     1      -9.128   3.033 130.135  0.00  0.00    +0.000 A 
ATOM     11  N   UNL     1     -10.060   3.985 129.880  0.00  0.00    +0.000 NA
ATOM     12  N   UNL     1     -10.226   4.632 131.072  0.00  0.00    +0.000 N 
ATOM     13  C   UNL     1      -9.440   4.102 132.072  0.00  0.00    +0.000 A 
ATOM     14  C   UNL     1      -8.681   3.105 131.485  0.00  0.00    +0.000 A 
ATOM     15  C   UNL     1      -7.738   2.447 132.294  0.00  0.00    +0.000 A 
ATOM     16  C   UNL     1      -7.612   2.852 133.623  0.00  0.00    +0.000 A 
ATOM     17  C   UNL     1      -8.439   3.852 134.094  0.00  0.00    +0.000 A 
ATOM     18  N   UNL     1      -9.382   4.473 133.367  0.00  0.00    +0.000 NA
BRANCH  12  19
ATOM     19  C   UNL     1     -11.185   5.751 131.134  0.00  0.00    +0.000 C 
BRANCH  19  20
ATOM     20  C   UNL     1     -11.339   6.525 129.849  0.00  0.00    +0.000 A 
ATOM     21  C   UNL     1     -10.364   7.458 129.474  0.00  0.00    +0.000 A 
ATOM     22  F   UNL     1      -9.251   7.585 130.214  0.00  0.00    +0.000 F 
ATOM     23  C   UNL     1     -10.590   8.365 128.446  0.00  0.00    +0.000 A 
ATOM     24  C   UNL     1     -11.837   8.398 127.827  0.00  0.00    +0.000 A 
ATOM     25  C   UNL     1     -12.818   7.472 128.190  0.00  0.00    +0.000 A 
ATOM     26  C   UNL     1     -12.530   6.467 129.113  0.00  0.00    +0.000 A 
ENDBRANCH  19  20
ENDBRANCH  12  19
ENDBRANCH   4  10
BRANCH   1  29
ATOM     27  C   UNL     1      -8.197  -1.636 125.722  0.00  0.00    +0.000 C 
ATOM     28  O   UNL     1      -9.425  -1.588 125.873  0.00  0.00    +0.000 OA
ATOM     29  N   UNL     1      -7.298  -0.737 126.309  0.00  0.00    +0.000 N 
ATOM     30  C   UNL     1      -5.856  -0.883 126.120  0.00  0.00    +0.000 C 
BRANCH  27  32
ATOM     31  C   UNL     1      -8.525  -3.628 124.500  0.00  0.00    +0.000 C 
ATOM     32  O   UNL     1      -7.620  -2.607 124.954  0.00  0.00    +0.000 OA
ENDBRANCH  27  32
ENDBRANCH   1  29
BRANCH   2  33
ATOM     33  N   UNL     1      -7.182  -1.149 129.217  0.00  0.00    +0.000 N 
ATOM     34  H   UNL     1      -7.747  -1.578 129.941  0.00  0.00    +0.000 HD
ATOM     35  H   UNL     1      -6.282  -0.855 129.586  0.00  0.00    +0.000 HD
ENDBRANCH   2  33
TORSDOF 6
ENDMDL
MODEL 3
REMARK VINA RESULT:      -8.4      1.486      1.863
REMARK  Name = Riociguat
REMARK  8 active torsions:
REMARK  status: ('A' for Active; 'I' for Inactive)
REMARK    1  A    between atoms: C_1  and  O_2
REMARK    2  A    between atoms: O_2  and  C_3
REMARK    3  A    between atoms: N_5  and  C_6
REMARK    4  A    between atoms: N_5  and  C_7
REMARK    5  A    between atoms: C_8  and  N_9
REMARK    6  A    between atoms: C_11  and  C_15
REMARK    7  A    between atoms: N_17  and  C_18
REMARK    8  A    between atoms: C_18  and  C_19
REMARK                            x       y       z     vdW  Elec       q    Type
REMARK                         _______ _______ _______ _____ _____    ______ ____
ROOT
ATOM      1  C   UNL     1      -7.781   0.498 126.710  0.00  0.00    +0.000 A 
ATOM      2  C   UNL     1      -8.064   1.785 126.212  0.00  0.00    +0.000 A 
ATOM      3  N   UNL     1      -8.257   2.867 126.989  0.00  0.00    +0.000 NA
ATOM      4  C   UNL     1      -8.189   2.677 128.314  0.00  0.00    +0.000 A 
ATOM      5  N   UNL     1      -7.895   1.501 128.912  0.00  0.00    +0.000 NA
ATOM      6  C   UNL     1      -7.717   0.430 128.112  0.00  0.00    +0.000 A 
ATOM      7  N   UNL     1      -7.552  -0.772 128.804  0.00  0.00    +0.000 N 
ATOM      8  H   UNL     1      -7.393  -0.609 129.794  0.00  0.00    +0.000 HD
ATOM      9  H   UNL     1      -6.903  -1.426 128.389  0.00  0.00    +0.000 HD
ENDROOT
BRANCH   4  10
ATOM     10  C   UNL     1      -8.431   3.839 129.192  0.00  0.00    +0.000 A 
ATOM     11  N   UNL     1      -9.661   4.246 129.589  0.00  0.00    +0.000 NA
ATOM     12  N   UNL     1      -9.422   5.303 130.421  0.00  0.00    +0.000 N 
ATOM     13  C   UNL     1      -8.077   5.558 130.574  0.00  0.00    +0.000 A 
ATOM     14  C   UNL     1      -7.414   4.664 129.752  0.00  0.00    +0.000 A 
ATOM     15  C   UNL     1      -6.013   4.767 129.678  0.00  0.00    +0.000 A 
ATOM     16  C   UNL     1      -5.386   5.769 130.419  0.00  0.00    +0.000 A 
ATOM     17  C   UNL     1      -6.159   6.591 131.214  0.00  0.00    +0.000 A 
ATOM     18  N   UNL     1      -7.492   6.496 131.346  0.00  0.00    +0.000 NA
BRANCH  12  19
ATOM     19  C   UNL     1     -10.577   5.993 131.027  0.00  0.00    +0.000 C 
BRANCH  19  20
ATOM     20  C   UNL     1     -11.074   7.190 130.257  0.00  0.00    +0.000 A 
ATOM     21  C   UNL     1     -12.359   7.693 130.500  0.00  0.00    +0.000 A 
ATOM     22  F   UNL     1     -13.101   7.165 131.487  0.00  0.00    +0.000 F 
ATOM     23  C   UNL     1     -12.946   8.617 129.645  0.00  0.00    +0.000 A 
ATOM     24  C   UNL     1     -12.276   8.994 128.483  0.00  0.00    +0.000 A 
ATOM     25  C   UNL     1     -10.994   8.502 128.229  0.00  0.00    +0.000 A 
ATOM     26  C   UNL     1     -10.350   7.696 129.169  0.00  0.00    +0.000 A 
ENDBRANCH  19  20
ENDBRANCH  12  19
ENDBRANCH   4  10
BRANCH   1  29
ATOM     27  C   UNL     1      -8.606  -1.481 125.453  0.00  0.00    +0.000 C 
ATOM     28  O   UNL     1      -9.795  -1.255 125.715  0.00  0.00    +0.000 OA
ATOM     29  N   UNL     1      -7.547  -0.646 125.830  0.00  0.00    +0.000 N 
ATOM     30  C   UNL     1      -6.163  -1.001 125.522  0.00  0.00    +0.000 C 
BRANCH  27  32
ATOM     31  C   UNL     1      -8.901  -2.771 123.499  0.00  0.00    +0.000 C 
ATOM     32  O   UNL     1      -8.240  -2.601 124.764  0.00  0.00    +0.000 OA
ENDBRANCH  27  32
ENDBRANCH   1  29
BRANCH   2  33
ATOM     33  N   UNL     1      -8.390   1.999 124.864  0.00  0.00    +0.000 N 
ATOM     34  H   UNL     1      -7.914   2.811 124.486  0.00  0.00    +0.000 HD
ATOM     35  H   UNL     1      -9.398   2.106 124.799  0.00  0.00    +0.000 HD
ENDBRANCH   2  33
TORSDOF 6
ENDMDL
MODEL 4
REMARK VINA RESULT:      -8.3      1.853      2.203
REMARK  Name = Riociguat
REMARK  8 active torsions:
REMARK  status: ('A' for Active; 'I' for Inactive)
REMARK    1  A    between atoms: C_1  and  O_2
REMARK    2  A    between atoms: O_2  and  C_3
REMARK    3  A    between atoms: N_5  and  C_6
REMARK    4  A    between atoms: N_5  and  C_7
REMARK    5  A    between atoms: C_8  and  N_9
REMARK    6  A    between atoms: C_11  and  C_15
REMARK    7  A    between atoms: N_17  and  C_18
REMARK    8  A    between atoms: C_18  and  C_19
REMARK                            x       y       z     vdW  Elec       q    Type
REMARK                         _______ _______ _______ _____ _____    ______ ____
ROOT
ATOM      1  C   UNL     1      -7.208   0.981 125.874  0.00  0.00    +0.000 A 
ATOM      2  C   UNL     1      -8.530   1.092 126.349  0.00  0.00    +0.000 A 
ATOM      3  N   UNL     1      -8.904   1.907 127.352  0.00  0.00    +0.000 NA
ATOM      4  C   UNL     1      -7.936   2.633 127.930  0.00  0.00    +0.000 A 
ATOM      5  N   UNL     1      -6.640   2.639 127.547  0.00  0.00    +0.000 NA
ATOM      6  C   UNL     1      -6.290   1.805 126.547  0.00  0.00    +0.000 A 
ATOM      7  N   UNL     1      -4.916   1.766 126.297  0.00  0.00    +0.000 N 
ATOM      8  H   UNL     1      -4.433   2.521 126.776  0.00  0.00    +0.000 HD
ATOM      9  H   UNL     1      -4.654   1.664 125.328  0.00  0.00    +0.000 HD
ENDROOT
BRANCH   4  10
ATOM     10  C   UNL     1      -8.311   3.511 129.057  0.00  0.00    +0.000 A 
ATOM     11  N   UNL     1      -8.470   4.854 128.952  0.00  0.00    +0.000 NA
ATOM     12  N   UNL     1      -8.864   5.252 130.198  0.00  0.00    +0.000 N 
ATOM     13  C   UNL     1      -8.976   4.196 131.076  0.00  0.00    +0.000 A 
ATOM     14  C   UNL     1      -8.574   3.068 130.384  0.00  0.00    +0.000 A 
ATOM     15  C   UNL     1      -8.535   1.853 131.091  0.00  0.00    +0.000 A 
ATOM     16  C   UNL     1      -8.882   1.865 132.442  0.00  0.00    +0.000 A 
ATOM     17  C   UNL     1      -9.279   3.056 133.016  0.00  0.00    +0.000 A 
ATOM     18  N   UNL     1      -9.374   4.226 132.364  0.00  0.00    +0.000 NA
BRANCH  12  19
ATOM     19  C   UNL     1      -9.116   6.687 130.428  0.00  0.00    +0.000 C 
BRANCH  19  20
ATOM     20  C   UNL     1     -10.548   7.117 130.233  0.00  0.00    +0.000 A 
ATOM     21  C   UNL     1     -10.874   8.022 129.215  0.00  0.00    +0.000 A 
ATOM     22  F   UNL     1      -9.922   8.425 128.358  0.00  0.00    +0.000 F 
ATOM     23  C   UNL     1     -12.120   8.635 129.165  0.00  0.00    +0.000 A 
ATOM     24  C   UNL     1     -13.035   8.403 130.189  0.00  0.00    +0.000 A 
ATOM     25  C   UNL     1     -12.724   7.502 131.209  0.00  0.00    +0.000 A 
ATOM     26  C   UNL     1     -11.535   6.775 131.168  0.00  0.00    +0.000 A 
ENDBRANCH  19  20
ENDBRANCH  12  19
ENDBRANCH   4  10
BRANCH   1  29
ATOM     27  C   UNL     1      -6.100  -1.057 124.983  0.00  0.00    +0.000 C 
ATOM     28  O   UNL     1      -5.805  -1.488 126.105  0.00  0.00    +0.000 OA
ATOM     29  N   UNL     1      -6.849   0.105 124.760  0.00  0.00    +0.000 N 
ATOM     30  C   UNL     1      -7.121   0.576 123.404  0.00  0.00    +0.000 C 
BRANCH  27  32
ATOM     31  C   UNL     1      -5.899  -3.127 123.867  0.00  0.00    +0.000 C 
ATOM     32  O   UNL     1      -5.692  -1.705 123.852  0.00  0.00    +0.000 OA
ENDBRANCH  27  32
ENDBRANCH   1  29
BRANCH   2  33
ATOM     33  N   UNL     1      -9.531   0.189 125.959  0.00  0.00    +0.000 N 
ATOM     34  H   UNL     1      -9.877  -0.351 126.745  0.00  0.00    +0.000 HD
ATOM     35  H   UNL     1      -9.144  -0.419 125.244  0.00  0.00    +0.000 HD
ENDBRANCH   2  33
TORSDOF 6
ENDMDL
MODEL 5
REMARK VINA RESULT:      -8.3      4.331      8.048
REMARK  Name = Riociguat
REMARK  8 active torsions:
REMARK  status: ('A' for Active; 'I' for Inactive)
REMARK    1  A    between atoms: C_1  and  O_2
REMARK    2  A    between atoms: O_2  and  C_3
REMARK    3  A    between atoms: N_5  and  C_6
REMARK    4  A    between atoms: N_5  and  C_7
REMARK    5  A    between atoms: C_8  and  N_9
REMARK    6  A    between atoms: C_11  and  C_15
REMARK    7  A    between atoms: N_17  and  C_18
REMARK    8  A    between atoms: C_18  and  C_19
REMARK                            x       y       z     vdW  Elec       q    Type
REMARK                         _______ _______ _______ _____ _____    ______ ____
ROOT
ATOM      1  C   UNL     1     -10.200   5.262 130.181  0.00  0.00    +0.000 A 
ATOM      2  C   UNL     1      -9.880   3.891 130.222  0.00  0.00    +0.000 A 
ATOM      3  N   UNL     1      -9.064   3.281 129.342  0.00  0.00    +0.000 NA
ATOM      4  C   UNL     1      -8.554   4.044 128.365  0.00  0.00    +0.000 A 
ATOM      5  N   UNL     1      -8.760   5.373 128.235  0.00  0.00    +0.000 NA
ATOM      6  C   UNL     1      -9.590   5.958 129.123  0.00  0.00    +0.000 A 
ATOM      7  N   UNL     1      -9.861   7.300 128.845  0.00  0.00    +0.000 N 
ATOM      8  H   UNL     1      -9.230   7.665 128.137  0.00  0.00    +0.000 HD
ATOM      9  H   UNL     1      -9.957   7.899 129.653  0.00  0.00    +0.000 HD
ENDROOT
BRANCH   4  10
ATOM     10  C   UNL     1      -7.684   3.395 127.365  0.00  0.00    +0.000 A 
ATOM     11  N   UNL     1      -8.134   2.844 126.211  0.00  0.00    +0.000 NA
ATOM     12  N   UNL     1      -7.006   2.415 125.571  0.00  0.00    +0.000 N 
ATOM     13  C   UNL     1      -5.859   2.697 126.280  0.00  0.00    +0.000 A 
ATOM     14  C   UNL     1      -6.268   3.281 127.466  0.00  0.00    +0.000 A 
ATOM     15  C   UNL     1      -5.273   3.606 128.406  0.00  0.00    +0.000 A 
ATOM     16  C   UNL     1      -3.947   3.303 128.093  0.00  0.00    +0.000 A 
ATOM     17  C   UNL     1      -3.667   2.732 126.869  0.00  0.00    +0.000 A 
ATOM     18  N   UNL     1      -4.582   2.449 125.928  0.00  0.00    +0.000 NA
BRANCH  12  19
ATOM     19  C   UNL     1      -7.153   1.747 124.264  0.00  0.00    +0.000 C 
BRANCH  19  20
ATOM     20  C   UNL     1      -7.302   2.680 123.089  0.00  0.00    +0.000 A 
ATOM     21  C   UNL     1      -8.544   2.816 122.457  0.00  0.00    +0.000 A 
ATOM     22  F   UNL     1      -9.617   2.186 122.963  0.00  0.00    +0.000 F 
ATOM     23  C   UNL     1      -8.664   3.457 121.230  0.00  0.00    +0.000 A 
ATOM     24  C   UNL     1      -7.517   3.907 120.581  0.00  0.00    +0.000 A 
ATOM     25  C   UNL     1      -6.272   3.781 121.201  0.00  0.00    +0.000 A 
ATOM     26  C   UNL     1      -6.180   3.276 122.498  0.00  0.00    +0.000 A 
ENDBRANCH  19  20
ENDBRANCH  12  19
ENDBRANCH   4  10
BRANCH   1  29
ATOM     27  C   UNL     1     -12.296   6.446 130.797  0.00  0.00    +0.000 C 
ATOM     28  O   UNL     1     -12.788   6.338 129.666  0.00  0.00    +0.000 OA
ATOM     29  N   UNL     1     -11.067   5.893 131.175  0.00  0.00    +0.000 N 
ATOM     30  C   UNL     1     -10.529   6.100 132.518  0.00  0.00    +0.000 C 
BRANCH  27  32
ATOM     31  C   UNL     1     -13.090   8.550 131.514  0.00  0.00    +0.000 C 
ATOM     32  O   UNL     1     -12.939   7.145 131.778  0.00  0.00    +0.000 OA
ENDBRANCH  27  32
ENDBRANCH   1  29
BRANCH   2  33
ATOM     33  N   UNL     1     -10.568   2.998 131.059  0.00  0.00    +0.000 N 
ATOM     34  H   UNL     1     -10.486   2.041 130.735  0.00  0.00    +0.000 HD
ATOM     35  H   UNL     1     -11.540   3.288 131.094  0.00  0.00    +0.000 HD
ENDBRANCH   2  33
TORSDOF 6
ENDMDL
MODEL 6
REMARK VINA RESULT:      -8.3      1.857      2.762
REMARK  Name = Riociguat
REMARK  8 active torsions:
REMARK  status: ('A' for Active; 'I' for Inactive)
REMARK    1  A    between atoms: C_1  and  O_2
REMARK    2  A    between atoms: O_2  and  C_3
REMARK    3  A    between atoms: N_5  and  C_6
REMARK    4  A    between atoms: N_5  and  C_7
REMARK    5  A    between atoms: C_8  and  N_9
REMARK    6  A    between atoms: C_11  and  C_15
REMARK    7  A    between atoms: N_17  and  C_18
REMARK    8  A    between atoms: C_18  and  C_19
REMARK                            x       y       z     vdW  Elec       q    Type
REMARK                         _______ _______ _______ _____ _____    ______ ____
ROOT
ATOM      1  C   UNL     1      -7.784   0.011 127.604  0.00  0.00    +0.000 A 
ATOM      2  C   UNL     1      -7.638   0.201 128.992  0.00  0.00    +0.000 A 
ATOM      3  N   UNL     1      -8.002   1.322 129.641  0.00  0.00    +0.000 NA
ATOM      4  C   UNL     1      -8.513   2.311 128.894  0.00  0.00    +0.000 A 
ATOM      5  N   UNL     1      -8.731   2.241 127.562  0.00  0.00    +0.000 NA
ATOM      6  C   UNL     1      -8.349   1.110 126.934  0.00  0.00    +0.000 A 
ATOM      7  N   UNL     1      -8.480   1.163 125.544  0.00  0.00    +0.000 N 
ATOM      8  H   UNL     1      -9.030   1.967 125.257  0.00  0.00    +0.000 HD
ATOM      9  H   UNL     1      -8.760   0.299 125.102  0.00  0.00    +0.000 HD
ENDROOT
BRANCH   4  10
ATOM     10  C   UNL     1      -8.889   3.567 129.574  0.00  0.00    +0.000 A 
ATOM     11  N   UNL     1     -10.168   3.941 129.824  0.00  0.00    +0.000 NA
ATOM     12  N   UNL     1     -10.055   5.119 130.506  0.00  0.00    +0.000 N 
ATOM     13  C   UNL     1      -8.742   5.485 130.709  0.00  0.00    +0.000 A 
ATOM     14  C   UNL     1      -7.968   4.531 130.073  0.00  0.00    +0.000 A 
ATOM     15  C   UNL     1      -6.574   4.719 130.078  0.00  0.00    +0.000 A 
ATOM     16  C   UNL     1      -6.064   5.857 130.703  0.00  0.00    +0.000 A 
ATOM     17  C   UNL     1      -6.942   6.728 131.316  0.00  0.00    +0.000 A 
ATOM     18  N   UNL     1      -8.273   6.562 131.372  0.00  0.00    +0.000 NA
BRANCH  12  19
ATOM     19  C   UNL     1     -11.290   5.807 130.926  0.00  0.00    +0.000 C 
BRANCH  19  20
ATOM     20  C   UNL     1     -11.577   7.095 130.196  0.00  0.00    +0.000 A 
ATOM     21  C   UNL     1     -12.571   7.960 130.669  0.00  0.00    +0.000 A 
ATOM     22  F   UNL     1     -13.196   7.682 131.825  0.00  0.00    +0.000 F 
ATOM     23  C   UNL     1     -13.039   9.015 129.895  0.00  0.00    +0.000 A 
ATOM     24  C   UNL     1     -12.564   9.170 128.595  0.00  0.00    +0.000 A 
ATOM     25  C   UNL     1     -11.571   8.316 128.111  0.00  0.00    +0.000 A 
ATOM     26  C   UNL     1     -10.997   7.357 128.947  0.00  0.00    +0.000 A 
ENDBRANCH  19  20
ENDBRANCH  12  19
ENDBRANCH   4  10
BRANCH   1  29
ATOM     27  C   UNL     1      -6.142  -1.372 126.352  0.00  0.00    +0.000 C 
ATOM     28  O   UNL     1      -5.236  -0.534 126.452  0.00  0.00    +0.000 OA
ATOM     29  N   UNL     1      -7.405  -1.236 126.941  0.00  0.00    +0.000 N 
ATOM     30  C   UNL     1      -8.440  -2.248 126.743  0.00  0.00    +0.000 C 
BRANCH  27  32
ATOM     31  C   UNL     1      -5.606  -2.307 124.252  0.00  0.00    +0.000 C 
ATOM     32  O   UNL     1      -5.964  -2.517 125.629  0.00  0.00    +0.000 OA
ENDBRANCH  27  32
ENDBRANCH   1  29
BRANCH   2  33
ATOM     33  N   UNL     1      -6.891  -0.686 129.783  0.00  0.00    +0.000 N 
ATOM     34  H   UNL     1      -6.746  -0.324 130.719  0.00  0.00    +0.000 HD
ATOM     35  H   UNL     1      -6.004  -0.851 129.316  0.00  0.00    +0.000 HD
ENDBRANCH   2  33
TORSDOF 6
ENDMDL
MODEL 7
REMARK VINA RESULT:      -8.2      3.645      8.361
REMARK  Name = Riociguat
REMARK  8 active torsions:
REMARK  status: ('A' for Active; 'I' for Inactive)
REMARK    1  A    between atoms: C_1  and  O_2
REMARK    2  A    between atoms: O_2  and  C_3
REMARK    3  A    between atoms: N_5  and  C_6
REMARK    4  A    between atoms: N_5  and  C_7
REMARK    5  A    between atoms: C_8  and  N_9
REMARK    6  A    between atoms: C_11  and  C_15
REMARK    7  A    between atoms: N_17  and  C_18
REMARK    8  A    between atoms: C_18  and  C_19
REMARK                            x       y       z     vdW  Elec       q    Type
REMARK                         _______ _______ _______ _____ _____    ______ ____
ROOT
ATOM      1  C   UNL     1      -9.100   3.600 130.448  0.00  0.00    +0.000 A 
ATOM      2  C   UNL     1      -9.265   2.380 131.133  0.00  0.00    +0.000 A 
ATOM      3  N   UNL     1      -8.786   1.201 130.697  0.00  0.00    +0.000 NA
ATOM      4  C   UNL     1      -8.132   1.213 129.526  0.00  0.00    +0.000 A 
ATOM      5  N   UNL     1      -7.883   2.319 128.791  0.00  0.00    +0.000 NA
ATOM      6  C   UNL     1      -8.383   3.486 129.245  0.00  0.00    +0.000 A 
ATOM      7  N   UNL     1      -8.203   4.558 128.368  0.00  0.00    +0.000 N 
ATOM      8  H   UNL     1      -7.549   4.322 127.627  0.00  0.00    +0.000 HD
ATOM      9  H   UNL     1      -8.019   5.450 128.805  0.00  0.00    +0.000 HD
ENDROOT
BRANCH   4  10
ATOM     10  C   UNL     1      -7.625  -0.072 129.005  0.00  0.00    +0.000 A 
ATOM     11  N   UNL     1      -7.294  -0.287 127.708  0.00  0.00    +0.000 NA
ATOM     12  N   UNL     1      -6.828  -1.571 127.679  0.00  0.00    +0.000 N 
ATOM     13  C   UNL     1      -6.839  -2.162 128.924  0.00  0.00    +0.000 A 
ATOM     14  C   UNL     1      -7.398  -1.239 129.789  0.00  0.00    +0.000 A 
ATOM     15  C   UNL     1      -7.584  -1.633 131.127  0.00  0.00    +0.000 A 
ATOM     16  C   UNL     1      -7.214  -2.928 131.489  0.00  0.00    +0.000 A 
ATOM     17  C   UNL     1      -6.653  -3.752 130.534  0.00  0.00    +0.000 A 
ATOM     18  N   UNL     1      -6.418  -3.398 129.260  0.00  0.00    +0.000 NA
BRANCH  12  19
ATOM     19  C   UNL     1      -6.386  -2.128 126.387  0.00  0.00    +0.000 C 
BRANCH  19  20
ATOM     20  C   UNL     1      -7.467  -2.238 125.342  0.00  0.00    +0.000 A 
ATOM     21  C   UNL     1      -8.493  -3.180 125.495  0.00  0.00    +0.000 A 
ATOM     22  F   UNL     1      -8.559  -3.910 126.619  0.00  0.00    +0.000 F 
ATOM     23  C   UNL     1      -9.351  -3.489 124.447  0.00  0.00    +0.000 A 
ATOM     24  C   UNL     1      -9.141  -2.907 123.199  0.00  0.00    +0.000 A 
ATOM     25  C   UNL     1      -8.123  -1.966 123.033  0.00  0.00    +0.000 A 
ATOM     26  C   UNL     1      -7.366  -1.547 124.127  0.00  0.00    +0.000 A 
ENDBRANCH  19  20
ENDBRANCH  12  19
ENDBRANCH   4  10
BRANCH   1  29
ATOM     27  C   UNL     1     -10.854   5.357 130.558  0.00  0.00    +0.000 C 
ATOM     28  O   UNL     1     -11.647   4.727 129.845  0.00  0.00    +0.000 OA
ATOM     29  N   UNL     1      -9.610   4.866 130.973  0.00  0.00    +0.000 N 
ATOM     30  C   UNL     1      -8.708   5.686 131.779  0.00  0.00    +0.000 C 
BRANCH  27  32
ATOM     31  C   UNL     1     -12.530   6.991 130.857  0.00  0.00    +0.000 C 
ATOM     32  O   UNL     1     -11.149   6.618 130.991  0.00  0.00    +0.000 OA
ENDBRANCH  27  32
ENDBRANCH   1  29
BRANCH   2  33
ATOM     33  N   UNL     1     -10.141   2.259 132.223  0.00  0.00    +0.000 N 
ATOM     34  H   UNL     1     -10.105   3.074 132.826  0.00  0.00    +0.000 HD
ATOM     35  H   UNL     1      -9.891   1.418 132.734  0.00  0.00    +0.000 HD
ENDBRANCH   2  33
TORSDOF 6
ENDMDL
MODEL 8
REMARK VINA RESULT:      -8.2      3.670      8.068
REMARK  Name = Riociguat
REMARK  8 active torsions:
REMARK  status: ('A' for Active; 'I' for Inactive)
REMARK    1  A    between atoms: C_1  and  O_2
REMARK    2  A    between atoms: O_2  and  C_3
REMARK    3  A    between atoms: N_5  and  C_6
REMARK    4  A    between atoms: N_5  and  C_7
REMARK    5  A    between atoms: C_8  and  N_9
REMARK    6  A    between atoms: C_11  and  C_15
REMARK    7  A    between atoms: N_17  and  C_18
REMARK    8  A    between atoms: C_18  and  C_19
REMARK                            x       y       z     vdW  Elec       q    Type
REMARK                         _______ _______ _______ _____ _____    ______ ____
ROOT
ATOM      1  C   UNL     1      -8.868   4.414 130.047  0.00  0.00    +0.000 A 
ATOM      2  C   UNL     1      -7.564   3.998 129.715  0.00  0.00    +0.000 A 
ATOM      3  N   UNL     1      -7.193   2.711 129.590  0.00  0.00    +0.000 NA
ATOM      4  C   UNL     1      -8.137   1.787 129.820  0.00  0.00    +0.000 A 
ATOM      5  N   UNL     1      -9.427   2.058 130.116  0.00  0.00    +0.000 NA
ATOM      6  C   UNL     1      -9.770   3.355 130.246  0.00  0.00    +0.000 A 
ATOM      7  N   UNL     1     -11.083   3.553 130.683  0.00  0.00    +0.000 N 
ATOM      8  H   UNL     1     -11.620   2.692 130.637  0.00  0.00    +0.000 HD
ATOM      9  H   UNL     1     -11.557   4.351 130.286  0.00  0.00    +0.000 HD
ENDROOT
BRANCH   4  10
ATOM     10  C   UNL     1      -7.750   0.366 129.725  0.00  0.00    +0.000 A 
ATOM     11  N   UNL     1      -7.340  -0.234 128.580  0.00  0.00    +0.000 NA
ATOM     12  N   UNL     1      -7.035  -1.513 128.951  0.00  0.00    +0.000 N 
ATOM     13  C   UNL     1      -7.223  -1.728 130.299  0.00  0.00    +0.000 A 
ATOM     14  C   UNL     1      -7.735  -0.551 130.815  0.00  0.00    +0.000 A 
ATOM     15  C   UNL     1      -8.079  -0.536 132.178  0.00  0.00    +0.000 A 
ATOM     16  C   UNL     1      -7.903  -1.707 132.915  0.00  0.00    +0.000 A 
ATOM     17  C   UNL     1      -7.370  -2.815 132.287  0.00  0.00    +0.000 A 
ATOM     18  N   UNL     1      -6.987  -2.855 131.001  0.00  0.00    +0.000 NA
BRANCH  12  19
ATOM     19  C   UNL     1      -6.558  -2.448 127.915  0.00  0.00    +0.000 C 
BRANCH  19  20
ATOM     20  C   UNL     1      -7.394  -2.484 126.661  0.00  0.00    +0.000 A 
ATOM     21  C   UNL     1      -8.664  -3.076 126.685  0.00  0.00    +0.000 A 
ATOM     22  F   UNL     1      -9.165  -3.521 127.848  0.00  0.00    +0.000 F 
ATOM     23  C   UNL     1      -9.351  -3.359 125.511  0.00  0.00    +0.000 A 
ATOM     24  C   UNL     1      -8.734  -3.118 124.285  0.00  0.00    +0.000 A 
ATOM     25  C   UNL     1      -7.470  -2.526 124.247  0.00  0.00    +0.000 A 
ATOM     26  C   UNL     1      -6.854  -2.105 125.425  0.00  0.00    +0.000 A 
ENDBRANCH  19  20
ENDBRANCH  12  19
ENDBRANCH   4  10
BRANCH   1  29
ATOM     27  C   UNL     1      -9.566   6.554 128.993  0.00  0.00    +0.000 C 
ATOM     28  O   UNL     1      -9.692   6.054 127.867  0.00  0.00    +0.000 OA
ATOM     29  N   UNL     1      -9.238   5.826 130.143  0.00  0.00    +0.000 N 
ATOM     30  C   UNL     1      -9.063   6.493 131.432  0.00  0.00    +0.000 C 
BRANCH  27  32
ATOM     31  C   UNL     1     -10.642   8.525 128.268  0.00  0.00    +0.000 C 
ATOM     32  O   UNL     1      -9.737   7.894 129.189  0.00  0.00    +0.000 OA
ENDBRANCH  27  32
ENDBRANCH   1  29
BRANCH   2  33
ATOM     33  N   UNL     1      -6.484   4.895 129.706  0.00  0.00    +0.000 N 
ATOM     34  H   UNL     1      -5.695   4.539 130.236  0.00  0.00    +0.000 HD
ATOM     35  H   UNL     1      -6.808   5.780 130.086  0.00  0.00    +0.000 HD
ENDBRANCH   2  33
TORSDOF 6
ENDMDL
MODEL 9
REMARK VINA RESULT:      -8.2      5.505      9.416
REMARK  Name = Riociguat
REMARK  8 active torsions:
REMARK  status: ('A' for Active; 'I' for Inactive)
REMARK    1  A    between atoms: C_1  and  O_2
REMARK    2  A    between atoms: O_2  and  C_3
REMARK    3  A    between atoms: N_5  and  C_6
REMARK    4  A    between atoms: N_5  and  C_7
REMARK    5  A    between atoms: C_8  and  N_9
REMARK    6  A    between atoms: C_11  and  C_15
REMARK    7  A    between atoms: N_17  and  C_18
REMARK    8  A    between atoms: C_18  and  C_19
REMARK                            x       y       z     vdW  Elec       q    Type
REMARK                         _______ _______ _______ _____ _____    ______ ____
ROOT
ATOM      1  C   UNL     1      -4.374   4.624 128.421  0.00  0.00    +0.000 A 
ATOM      2  C   UNL     1      -3.644   4.296 127.262  0.00  0.00    +0.000 A 
ATOM      3  N   UNL     1      -4.193   3.777 126.148  0.00  0.00    +0.000 NA
ATOM      4  C   UNL     1      -5.514   3.550 126.177  0.00  0.00    +0.000 A 
ATOM      5  N   UNL     1      -6.327   3.847 127.215  0.00  0.00    +0.000 NA
ATOM      6  C   UNL     1      -5.750   4.357 128.323  0.00  0.00    +0.000 A 
ATOM      7  N   UNL     1      -6.629   4.512 129.398  0.00  0.00    +0.000 N 
ATOM      8  H   UNL     1      -7.595   4.405 129.102  0.00  0.00    +0.000 HD
ATOM      9  H   UNL     1      -6.468   5.324 129.976  0.00  0.00    +0.000 HD
ENDROOT
BRANCH   4  10
ATOM     10  C   UNL     1      -6.138   2.948 124.982  0.00  0.00    +0.000 A 
ATOM     11  N   UNL     1      -6.998   1.901 125.021  0.00  0.00    +0.000 NA
ATOM     12  N   UNL     1      -7.367   1.710 123.720  0.00  0.00    +0.000 N 
ATOM     13  C   UNL     1      -6.780   2.620 122.868  0.00  0.00    +0.000 A 
ATOM     14  C   UNL     1      -5.940   3.397 123.645  0.00  0.00    +0.000 A 
ATOM     15  C   UNL     1      -5.165   4.370 122.989  0.00  0.00    +0.000 A 
ATOM     16  C   UNL     1      -5.276   4.476 121.603  0.00  0.00    +0.000 A 
ATOM     17  C   UNL     1      -6.162   3.649 120.941  0.00  0.00    +0.000 A 
ATOM     18  N   UNL     1      -6.951   2.741 121.536  0.00  0.00    +0.000 NA
BRANCH  12  19
ATOM     19  C   UNL     1      -8.308   0.616 123.412  0.00  0.00    +0.000 C 
BRANCH  19  20
ATOM     20  C   UNL     1      -7.743  -0.771 123.581  0.00  0.00    +0.000 A 
ATOM     21  C   UNL     1      -8.218  -1.599 124.607  0.00  0.00    +0.000 A 
ATOM     22  F   UNL     1      -9.242  -1.185 125.371  0.00  0.00    +0.000 F 
ATOM     23  C   UNL     1      -7.555  -2.769 124.955  0.00  0.00    +0.000 A 
ATOM     24  C   UNL     1      -6.355  -3.087 124.325  0.00  0.00    +0.000 A 
ATOM     25  C   UNL     1      -5.871  -2.272 123.299  0.00  0.00    +0.000 A 
ATOM     26  C   UNL     1      -6.621  -1.184 122.851  0.00  0.00    +0.000 A 
ENDBRANCH  19  20
ENDBRANCH  12  19
ENDBRANCH   4  10
BRANCH   1  29
ATOM     27  C   UNL     1      -3.548   6.599 129.683  0.00  0.00    +0.000 C 
ATOM     28  O   UNL     1      -3.988   7.413 128.860  0.00  0.00    +0.000 OA
ATOM     29  N   UNL     1      -3.744   5.215 129.601  0.00  0.00    +0.000 N 
ATOM     30  C   UNL     1      -3.155   4.312 130.587  0.00  0.00    +0.000 C 
BRANCH  27  32
ATOM     31  C   UNL     1      -3.285   8.215 131.382  0.00  0.00    +0.000 C 
ATOM     32  O   UNL     1      -2.809   7.014 130.754  0.00  0.00    +0.000 OA
ENDBRANCH  27  32
ENDBRANCH   1  29
BRANCH   2  33
ATOM     33  N   UNL     1      -2.240   4.278 127.255  0.00  0.00    +0.000 N 
ATOM     34  H   UNL     1      -1.856   4.658 128.113  0.00  0.00    +0.000 HD
ATOM     35  H   UNL     1      -1.924   4.808 126.449  0.00  0.00    +0.000 HD
ENDBRANCH   2  33
TORSDOF 6
ENDMDL
