MODEL 1
REMARK VINA RESULT:      -9.1      0.000      0.000
REMARK  Name = Ripretinib
REMARK  7 active torsions:
REMARK  status: ('A' for Active; 'I' for Inactive)
REMARK    1  A    between atoms: C_1  and  C_2
REMARK    2  A    between atoms: C_2  and  N_3
REMARK    3  A    between atoms: C_6  and  C_16
REMARK    4  A    between atoms: C_11  and  N_12
REMARK    5  A    between atoms: N_12  and  C_13
REMARK    6  A    between atoms: C_22  and  N_23
REMARK    7  A    between atoms: N_26  and  C_27
REMARK                            x       y       z     vdW  Elec       q    Type
REMARK                         _______ _______ _______ _____ _____    ______ ____
ROOT
ATOM      1  C   UNL     1      -6.540   4.773 133.249  0.00  0.00    +0.000 A 
ATOM      2  C   UNL     1      -6.556   3.383 133.360  0.00  0.00    +0.000 A 
ATOM      3 BR   UNL     1      -4.962   2.345 133.401  0.00  0.00    +0.000 Br
ATOM      4  C   UNL     1      -7.779   2.715 133.463  0.00  0.00    +0.000 A 
ATOM      5  C   UNL     1      -8.988   3.419 133.329  0.00  0.00    +0.000 A 
ATOM      6  F   UNL     1     -10.134   2.719 133.331  0.00  0.00    +0.000 F 
ATOM      7  C   UNL     1      -9.014   4.810 133.192  0.00  0.00    +0.000 A 
ATOM      8  C   UNL     1      -7.771   5.452 133.240  0.00  0.00    +0.000 A 
ENDROOT
BRANCH   1  12
ATOM      9  N   UNL     1      -3.817   6.786 131.475  0.00  0.00    +0.000 N 
ATOM     10  C   UNL     1      -4.908   5.936 131.644  0.00  0.00    +0.000 A 
ATOM     11  O   UNL     1      -5.555   5.485 130.688  0.00  0.00    +0.000 OA
ATOM     12  C   UNL     1      -5.330   5.597 133.037  0.00  0.00    +0.000 A 
ATOM     13  C   UNL     1      -4.678   6.133 134.084  0.00  0.00    +0.000 A 
ATOM     14  C   UNL     1      -3.497   6.960 133.874  0.00  0.00    +0.000 A 
ATOM     15  C   UNL     1      -3.067   7.276 132.587  0.00  0.00    +0.000 A 
ATOM     16  C   UNL     1      -1.900   8.033 132.449  0.00  0.00    +0.000 A 
ATOM     17  C   UNL     1      -1.119   8.335 133.562  0.00  0.00    +0.000 A 
ATOM     18  N   UNL     1      -1.562   8.078 134.804  0.00  0.00    +0.000 NA
ATOM     19  C   UNL     1      -2.749   7.442 134.938  0.00  0.00    +0.000 A 
BRANCH  17  20
ATOM     20  N   UNL     1       0.083   9.000 133.360  0.00  0.00    +0.000 N 
ATOM     21  C   UNL     1       0.118  10.447 133.349  0.00  0.00    +0.000 C 
ATOM     22  H   UNL     1       0.917   8.543 133.706  0.00  0.00    +0.000 HD
ENDBRANCH  17  20
BRANCH   9  24
ATOM     23  C   UNL     1      -4.138   8.520 129.762  0.00  0.00    +0.000 C 
ATOM     24  C   UNL     1      -3.514   7.171 130.101  0.00  0.00    +0.000 C 
ENDBRANCH   9  24
ENDBRANCH   1  12
BRANCH   7  25
ATOM     25  N   UNL     1     -10.245   5.537 132.973  0.00  0.00    +0.000 N 
ATOM     26  C   UNL     1     -10.667   5.959 131.719  0.00  0.00    +0.000 C 
ATOM     27  O   UNL     1      -9.976   5.823 130.704  0.00  0.00    +0.000 OA
ATOM     28  N   UNL     1     -11.909   6.578 131.636  0.00  0.00    +0.000 N 
ATOM     29  H   UNL     1     -10.847   5.657 133.778  0.00  0.00    +0.000 HD
ATOM     30  H   UNL     1     -12.259   7.053 132.455  0.00  0.00    +0.000 HD
BRANCH  28  31
ATOM     31  C   UNL     1     -12.292   7.098 130.350  0.00  0.00    +0.000 A 
ATOM     32  C   UNL     1     -12.322   8.488 130.143  0.00  0.00    +0.000 A 
ATOM     33  C   UNL     1     -12.983   9.048 129.050  0.00  0.00    +0.000 A 
ATOM     34  C   UNL     1     -13.512   8.220 128.071  0.00  0.00    +0.000 A 
ATOM     35  C   UNL     1     -13.345   6.837 128.178  0.00  0.00    +0.000 A 
ATOM     36  C   UNL     1     -12.763   6.270 129.329  0.00  0.00    +0.000 A 
ENDBRANCH  28  31
ENDBRANCH   7  25
TORSDOF 5
ENDMDL
MODEL 2
REMARK VINA RESULT:      -9.0      5.194      6.874
REMARK  Name = Ripretinib
REMARK  7 active torsions:
REMARK  status: ('A' for Active; 'I' for Inactive)
REMARK    1  A    between atoms: C_1  and  C_2
REMARK    2  A    between atoms: C_2  and  N_3
REMARK    3  A    between atoms: C_6  and  C_16
REMARK    4  A    between atoms: C_11  and  N_12
REMARK    5  A    between atoms: N_12  and  C_13
REMARK    6  A    between atoms: C_22  and  N_23
REMARK    7  A    between atoms: N_26  and  C_27
REMARK                            x       y       z     vdW  Elec       q    Type
REMARK                         _______ _______ _______ _____ _____    ______ ____
ROOT
ATOM      1  C   UNL     1      -7.946   2.545 129.192  0.00  0.00    +0.000 A 
ATOM      2  C   UNL     1      -7.875   1.295 129.807  0.00  0.00    +0.000 A 
ATOM      3 BR   UNL     1      -6.818  -0.125 129.112  0.00  0.00    +0.000 Br
ATOM      4  C   UNL     1      -8.589   1.068 130.988  0.00  0.00    +0.000 A 
ATOM      5  C   UNL     1      -9.470   2.043 131.485  0.00  0.00    +0.000 A 
ATOM      6  F   UNL     1     -10.210   1.738 132.563  0.00  0.00    +0.000 F 
ATOM      7  C   UNL     1      -9.588   3.300 130.883  0.00  0.00    +0.000 A 
ATOM      8  C   UNL     1      -8.746   3.534 129.789  0.00  0.00    +0.000 A 
ENDROOT
BRANCH   1  12
ATOM      9  N   UNL     1      -5.350   3.714 126.641  0.00  0.00    +0.000 N 
ATOM     10  C   UNL     1      -5.948   3.479 127.878  0.00  0.00    +0.000 A 
ATOM     11  O   UNL     1      -5.370   3.703 128.950  0.00  0.00    +0.000 OA
ATOM     12  C   UNL     1      -7.323   2.893 127.897  0.00  0.00    +0.000 A 
ATOM     13  C   UNL     1      -7.935   2.584 126.740  0.00  0.00    +0.000 A 
ATOM     14  C   UNL     1      -7.313   2.910 125.464  0.00  0.00    +0.000 A 
ATOM     15  C   UNL     1      -6.040   3.475 125.415  0.00  0.00    +0.000 A 
ATOM     16  C   UNL     1      -5.516   3.811 124.163  0.00  0.00    +0.000 A 
ATOM     17  C   UNL     1      -6.303   3.712 123.019  0.00  0.00    +0.000 A 
ATOM     18  N   UNL     1      -7.507   3.116 123.060  0.00  0.00    +0.000 NA
ATOM     19  C   UNL     1      -7.966   2.692 124.260  0.00  0.00    +0.000 A 
BRANCH  17  20
ATOM     20  N   UNL     1      -5.770   4.154 121.815  0.00  0.00    +0.000 N 
ATOM     21  C   UNL     1      -4.508   4.861 121.797  0.00  0.00    +0.000 C 
ATOM     22  H   UNL     1      -5.971   3.592 120.997  0.00  0.00    +0.000 HD
ENDBRANCH  17  20
BRANCH   9  24
ATOM     23  C   UNL     1      -2.995   3.013 126.679  0.00  0.00    +0.000 C 
ATOM     24  C   UNL     1      -3.969   4.184 126.680  0.00  0.00    +0.000 C 
ENDBRANCH   9  24
ENDBRANCH   1  12
BRANCH   7  25
ATOM     25  N   UNL     1     -10.548   4.281 131.337  0.00  0.00    +0.000 N 
ATOM     26  C   UNL     1     -11.165   5.191 130.490  0.00  0.00    +0.000 C 
ATOM     27  O   UNL     1     -10.873   5.290 129.293  0.00  0.00    +0.000 OA
ATOM     28  N   UNL     1     -12.128   6.028 131.041  0.00  0.00    +0.000 N 
ATOM     29  H   UNL     1     -10.825   4.224 132.310  0.00  0.00    +0.000 HD
ATOM     30  H   UNL     1     -12.065   6.242 132.025  0.00  0.00    +0.000 HD
BRANCH  28  31
ATOM     31  C   UNL     1     -12.691   7.032 130.175  0.00  0.00    +0.000 A 
ATOM     32  C   UNL     1     -13.385   6.640 129.017  0.00  0.00    +0.000 A 
ATOM     33  C   UNL     1     -13.663   7.544 127.993  0.00  0.00    +0.000 A 
ATOM     34  C   UNL     1     -13.369   8.889 128.167  0.00  0.00    +0.000 A 
ATOM     35  C   UNL     1     -12.830   9.322 129.381  0.00  0.00    +0.000 A 
ATOM     36  C   UNL     1     -12.461   8.394 130.376  0.00  0.00    +0.000 A 
ENDBRANCH  28  31
ENDBRANCH   7  25
TORSDOF 5
ENDMDL
MODEL 3
REMARK VINA RESULT:      -8.9      5.904      8.406
REMARK  Name = Ripretinib
REMARK  7 active torsions:
REMARK  status: ('A' for Active; 'I' for Inactive)
REMARK    1  A    between atoms: C_1  and  C_2
REMARK    2  A    between atoms: C_2  and  N_3
REMARK    3  A    between atoms: C_6  and  C_16
REMARK    4  A    between atoms: C_11  and  N_12
REMARK    5  A    between atoms: N_12  and  C_13
REMARK    6  A    between atoms: C_22  and  N_23
REMARK    7  A    between atoms: N_26  and  C_27
REMARK                            x       y       z     vdW  Elec       q    Type
REMARK                         _______ _______ _______ _____ _____    ______ ____
ROOT
ATOM      1  C   UNL     1      -7.656   1.948 130.003  0.00  0.00    +0.000 A 
ATOM      2  C   UNL     1      -6.635   2.346 130.866  0.00  0.00    +0.000 A 
ATOM      3 BR   UNL     1      -4.927   1.509 130.881  0.00  0.00    +0.000 Br
ATOM      4  C   UNL     1      -6.856   3.408 131.749  0.00  0.00    +0.000 A 
ATOM      5  C   UNL     1      -8.131   3.989 131.858  0.00  0.00    +0.000 A 
ATOM      6  F   UNL     1      -8.319   4.935 132.792  0.00  0.00    +0.000 F 
ATOM      7  C   UNL     1      -9.186   3.602 131.026  0.00  0.00    +0.000 A 
ATOM      8  C   UNL     1      -8.880   2.637 130.059  0.00  0.00    +0.000 A 
ENDROOT
BRANCH   1  12
ATOM      9  N   UNL     1      -7.838  -1.656 128.742  0.00  0.00    +0.000 N 
ATOM     10  C   UNL     1      -7.813  -0.589 129.636  0.00  0.00    +0.000 A 
ATOM     11  O   UNL     1      -8.000  -0.734 130.853  0.00  0.00    +0.000 OA
ATOM     12  C   UNL     1      -7.594   0.786 129.090  0.00  0.00    +0.000 A 
ATOM     13  C   UNL     1      -7.456   0.965 127.764  0.00  0.00    +0.000 A 
ATOM     14  C   UNL     1      -7.413  -0.179 126.864  0.00  0.00    +0.000 A 
ATOM     15  C   UNL     1      -7.594  -1.474 127.347  0.00  0.00    +0.000 A 
ATOM     16  C   UNL     1      -7.494  -2.535 126.442  0.00  0.00    +0.000 A 
ATOM     17  C   UNL     1      -7.086  -2.307 125.130  0.00  0.00    +0.000 A 
ATOM     18  N   UNL     1      -6.967  -1.057 124.653  0.00  0.00    +0.000 NA
ATOM     19  C   UNL     1      -7.172  -0.027 125.506  0.00  0.00    +0.000 A 
BRANCH  17  20
ATOM     20  N   UNL     1      -6.904  -3.404 124.299  0.00  0.00    +0.000 N 
ATOM     21  C   UNL     1      -5.567  -3.851 123.972  0.00  0.00    +0.000 C 
ATOM     22  H   UNL     1      -7.611  -4.128 124.341  0.00  0.00    +0.000 HD
ENDBRANCH  17  20
BRANCH   9  24
ATOM     23  C   UNL     1      -6.910  -3.649 129.842  0.00  0.00    +0.000 C 
ATOM     24  C   UNL     1      -8.162  -2.959 129.312  0.00  0.00    +0.000 C 
ENDBRANCH   9  24
ENDBRANCH   1  12
BRANCH   7  25
ATOM     25  N   UNL     1     -10.521   4.135 131.182  0.00  0.00    +0.000 N 
ATOM     26  C   UNL     1     -10.986   5.239 130.481  0.00  0.00    +0.000 C 
ATOM     27  O   UNL     1     -10.264   5.905 129.732  0.00  0.00    +0.000 OA
ATOM     28  N   UNL     1     -12.316   5.601 130.665  0.00  0.00    +0.000 N 
ATOM     29  H   UNL     1     -11.150   3.609 131.776  0.00  0.00    +0.000 HD
ATOM     30  H   UNL     1     -12.760   5.354 131.537  0.00  0.00    +0.000 HD
BRANCH  28  31
ATOM     31  C   UNL     1     -12.761   6.803 130.008  0.00  0.00    +0.000 A 
ATOM     32  C   UNL     1     -13.281   6.730 128.705  0.00  0.00    +0.000 A 
ATOM     33  C   UNL     1     -13.421   7.868 127.911  0.00  0.00    +0.000 A 
ATOM     34  C   UNL     1     -13.167   9.118 128.455  0.00  0.00    +0.000 A 
ATOM     35  C   UNL     1     -12.808   9.221 129.801  0.00  0.00    +0.000 A 
ATOM     36  C   UNL     1     -12.574   8.066 130.574  0.00  0.00    +0.000 A 
ENDBRANCH  28  31
ENDBRANCH   7  25
TORSDOF 5
ENDMDL
MODEL 4
REMARK VINA RESULT:      -8.8      6.651      8.613
REMARK  Name = Ripretinib
REMARK  7 active torsions:
REMARK  status: ('A' for Active; 'I' for Inactive)
REMARK    1  A    between atoms: C_1  and  C_2
REMARK    2  A    between atoms: C_2  and  N_3
REMARK    3  A    between atoms: C_6  and  C_16
REMARK    4  A    between atoms: C_11  and  N_12
REMARK    5  A    between atoms: N_12  and  C_13
REMARK    6  A    between atoms: C_22  and  N_23
REMARK    7  A    between atoms: N_26  and  C_27
REMARK                            x       y       z     vdW  Elec       q    Type
REMARK                         _______ _______ _______ _____ _____    ______ ____
ROOT
ATOM      1  C   UNL     1      -6.541   2.745 127.231  0.00  0.00    +0.000 A 
ATOM      2  C   UNL     1      -6.070   1.587 127.850  0.00  0.00    +0.000 A 
ATOM      3 BR   UNL     1      -5.531   0.051 126.865  0.00  0.00    +0.000 Br
ATOM      4  C   UNL     1      -5.971   1.544 129.243  0.00  0.00    +0.000 A 
ATOM      5  C   UNL     1      -6.457   2.606 130.025  0.00  0.00    +0.000 A 
ATOM      6  F   UNL     1      -6.433   2.473 131.360  0.00  0.00    +0.000 F 
ATOM      7  C   UNL     1      -6.958   3.774 129.442  0.00  0.00    +0.000 A 
ATOM      8  C   UNL     1      -6.905   3.832 128.044  0.00  0.00    +0.000 A 
ENDROOT
BRANCH   1  12
ATOM      9  N   UNL     1      -8.292   2.570 123.837  0.00  0.00    +0.000 N 
ATOM     10  C   UNL     1      -8.042   2.337 125.187  0.00  0.00    +0.000 A 
ATOM     11  O   UNL     1      -8.834   1.721 125.915  0.00  0.00    +0.000 OA
ATOM     12  C   UNL     1      -6.788   2.895 125.780  0.00  0.00    +0.000 A 
ATOM     13  C   UNL     1      -5.952   3.622 125.017  0.00  0.00    +0.000 A 
ATOM     14  C   UNL     1      -6.206   3.784 123.592  0.00  0.00    +0.000 A 
ATOM     15  C   UNL     1      -7.356   3.259 123.007  0.00  0.00    +0.000 A 
ATOM     16  C   UNL     1      -7.520   3.405 121.627  0.00  0.00    +0.000 A 
ATOM     17  C   UNL     1      -6.495   3.935 120.847  0.00  0.00    +0.000 A 
ATOM     18  N   UNL     1      -5.412   4.491 121.417  0.00  0.00    +0.000 NA
ATOM     19  C   UNL     1      -5.308   4.445 122.765  0.00  0.00    +0.000 A 
BRANCH  17  20
ATOM     20  N   UNL     1      -6.666   3.965 119.469  0.00  0.00    +0.000 N 
ATOM     21  C   UNL     1      -6.368   5.171 118.728  0.00  0.00    +0.000 C 
ATOM     22  H   UNL     1      -6.511   3.096 118.974  0.00  0.00    +0.000 HD
ENDBRANCH  17  20
BRANCH   9  24
ATOM     23  C   UNL     1      -9.508   0.624 122.955  0.00  0.00    +0.000 C 
ATOM     24  C   UNL     1      -9.578   2.098 123.335  0.00  0.00    +0.000 C 
ENDBRANCH   9  24
ENDBRANCH   1  12
BRANCH   7  25
ATOM     25  N   UNL     1      -7.534   4.839 130.232  0.00  0.00    +0.000 N 
ATOM     26  C   UNL     1      -8.828   5.309 130.049  0.00  0.00    +0.000 C 
ATOM     27  O   UNL     1      -9.557   4.911 129.134  0.00  0.00    +0.000 OA
ATOM     28  N   UNL     1      -9.286   6.283 130.929  0.00  0.00    +0.000 N 
ATOM     29  H   UNL     1      -6.974   5.183 131.002  0.00  0.00    +0.000 HD
ATOM     30  H   UNL     1      -8.606   6.885 131.369  0.00  0.00    +0.000 HD
BRANCH  28  31
ATOM     31  C   UNL     1     -10.592   6.831 130.670  0.00  0.00    +0.000 A 
ATOM     32  C   UNL     1     -10.778   7.698 129.579  0.00  0.00    +0.000 A 
ATOM     33  C   UNL     1     -11.913   8.500 129.470  0.00  0.00    +0.000 A 
ATOM     34  C   UNL     1     -12.947   8.351 130.382  0.00  0.00    +0.000 A 
ATOM     35  C   UNL     1     -12.850   7.376 131.378  0.00  0.00    +0.000 A 
ATOM     36  C   UNL     1     -11.663   6.634 131.544  0.00  0.00    +0.000 A 
ENDBRANCH  28  31
ENDBRANCH   7  25
TORSDOF 5
ENDMDL
MODEL 5
REMARK VINA RESULT:      -8.6      1.471      2.435
REMARK  Name = Ripretinib
REMARK  7 active torsions:
REMARK  status: ('A' for Active; 'I' for Inactive)
REMARK    1  A    between atoms: C_1  and  C_2
REMARK    2  A    between atoms: C_2  and  N_3
REMARK    3  A    between atoms: C_6  and  C_16
REMARK    4  A    between atoms: C_11  and  N_12
REMARK    5  A    between atoms: N_12  and  C_13
REMARK    6  A    between atoms: C_22  and  N_23
REMARK    7  A    between atoms: N_26  and  C_27
REMARK                            x       y       z     vdW  Elec       q    Type
REMARK                         _______ _______ _______ _____ _____    ______ ____
ROOT
ATOM      1  C   UNL     1      -6.778   4.702 133.800  0.00  0.00    +0.000 A 
ATOM      2  C   UNL     1      -6.663   3.319 133.665  0.00  0.00    +0.000 A 
ATOM      3 BR   UNL     1      -4.994   2.416 133.800  0.00  0.00    +0.000 Br
ATOM      4  C   UNL     1      -7.809   2.552 133.436  0.00  0.00    +0.000 A 
ATOM      5  C   UNL     1      -9.050   3.175 133.218  0.00  0.00    +0.000 A 
ATOM      6  F   UNL     1     -10.101   2.402 132.901  0.00  0.00    +0.000 F 
ATOM      7  C   UNL     1      -9.202   4.562 133.322  0.00  0.00    +0.000 A 
ATOM      8  C   UNL     1      -8.057   5.276 133.696  0.00  0.00    +0.000 A 
ENDROOT
BRANCH   1  12
ATOM      9  N   UNL     1      -4.134   6.930 135.432  0.00  0.00    +0.000 N 
ATOM     10  C   UNL     1      -5.260   6.118 135.312  0.00  0.00    +0.000 A 
ATOM     11  O   UNL     1      -5.924   5.752 136.292  0.00  0.00    +0.000 OA
ATOM     12  C   UNL     1      -5.644   5.641 133.948  0.00  0.00    +0.000 A 
ATOM     13  C   UNL     1      -4.893   5.977 132.885  0.00  0.00    +0.000 A 
ATOM     14  C   UNL     1      -3.765   6.887 133.034  0.00  0.00    +0.000 A 
ATOM     15  C   UNL     1      -3.395   7.364 134.290  0.00  0.00    +0.000 A 
ATOM     16  C   UNL     1      -2.335   8.272 134.364  0.00  0.00    +0.000 A 
ATOM     17  C   UNL     1      -1.765   8.788 133.203  0.00  0.00    +0.000 A 
ATOM     18  N   UNL     1      -2.084   8.287 131.997  0.00  0.00    +0.000 NA
ATOM     19  C   UNL     1      -3.036   7.326 131.939  0.00  0.00    +0.000 A 
BRANCH  17  20
ATOM     20  N   UNL     1      -0.785   9.763 133.329  0.00  0.00    +0.000 N 
ATOM     21  C   UNL     1      -1.104  11.149 133.063  0.00  0.00    +0.000 C 
ATOM     22  H   UNL     1      -0.074   9.603 134.031  0.00  0.00    +0.000 HD
ENDBRANCH  17  20
BRANCH   9  24
ATOM     23  C   UNL     1      -4.443   8.548 137.256  0.00  0.00    +0.000 C 
ATOM     24  C   UNL     1      -3.740   7.277 136.793  0.00  0.00    +0.000 C 
ENDBRANCH   9  24
ENDBRANCH   1  12
BRANCH   7  25
ATOM     25  N   UNL     1     -10.453   5.220 133.022  0.00  0.00    +0.000 N 
ATOM     26  C   UNL     1     -10.745   5.772 131.783  0.00  0.00    +0.000 C 
ATOM     27  O   UNL     1      -9.920   5.820 130.864  0.00  0.00    +0.000 OA
ATOM     28  N   UNL     1     -12.016   6.306 131.602  0.00  0.00    +0.000 N 
ATOM     29  H   UNL     1     -11.163   5.191 133.744  0.00  0.00    +0.000 HD
ATOM     30  H   UNL     1     -12.510   6.644 132.415  0.00  0.00    +0.000 HD
BRANCH  28  31
ATOM     31  C   UNL     1     -12.274   6.961 130.346  0.00  0.00    +0.000 A 
ATOM     32  C   UNL     1     -12.260   8.365 130.279  0.00  0.00    +0.000 A 
ATOM     33  C   UNL     1     -12.811   9.049 129.196  0.00  0.00    +0.000 A 
ATOM     34  C   UNL     1     -13.266   8.337 128.096  0.00  0.00    +0.000 A 
ATOM     35  C   UNL     1     -13.135   6.946 128.076  0.00  0.00    +0.000 A 
ATOM     36  C   UNL     1     -12.668   6.251 129.210  0.00  0.00    +0.000 A 
ENDBRANCH  28  31
ENDBRANCH   7  25
TORSDOF 5
ENDMDL
MODEL 6
REMARK VINA RESULT:      -8.6      1.913      2.202
REMARK  Name = Ripretinib
REMARK  7 active torsions:
REMARK  status: ('A' for Active; 'I' for Inactive)
REMARK    1  A    between atoms: C_1  and  C_2
REMARK    2  A    between atoms: C_2  and  N_3
REMARK    3  A    between atoms: C_6  and  C_16
REMARK    4  A    between atoms: C_11  and  N_12
REMARK    5  A    between atoms: N_12  and  C_13
REMARK    6  A    between atoms: C_22  and  N_23
REMARK    7  A    between atoms: N_26  and  C_27
REMARK                            x       y       z     vdW  Elec       q    Type
REMARK                         _______ _______ _______ _____ _____    ______ ____
ROOT
ATOM      1  C   UNL     1      -6.535   3.889 130.933  0.00  0.00    +0.000 A 
ATOM      2  C   UNL     1      -6.586   2.697 130.211  0.00  0.00    +0.000 A 
ATOM      3 BR   UNL     1      -5.026   1.855 129.520  0.00  0.00    +0.000 Br
ATOM      4  C   UNL     1      -7.819   2.078 129.992  0.00  0.00    +0.000 A 
ATOM      5  C   UNL     1      -9.012   2.709 130.383  0.00  0.00    +0.000 A 
ATOM      6  F   UNL     1     -10.176   2.124 130.058  0.00  0.00    +0.000 F 
ATOM      7  C   UNL     1      -9.004   3.917 131.089  0.00  0.00    +0.000 A 
ATOM      8  C   UNL     1      -7.742   4.427 131.412  0.00  0.00    +0.000 A 
ENDROOT
BRANCH   1  12
ATOM      9  N   UNL     1      -3.715   6.398 130.327  0.00  0.00    +0.000 N 
ATOM     10  C   UNL     1      -4.811   5.580 130.060  0.00  0.00    +0.000 A 
ATOM     11  O   UNL     1      -5.397   5.587 128.969  0.00  0.00    +0.000 OA
ATOM     12  C   UNL     1      -5.317   4.698 131.157  0.00  0.00    +0.000 A 
ATOM     13  C   UNL     1      -4.731   4.731 132.367  0.00  0.00    +0.000 A 
ATOM     14  C   UNL     1      -3.542   5.542 132.591  0.00  0.00    +0.000 A 
ATOM     15  C   UNL     1      -3.036   6.359 131.583  0.00  0.00    +0.000 A 
ATOM     16  C   UNL     1      -1.865   7.077 131.842  0.00  0.00    +0.000 A 
ATOM     17  C   UNL     1      -1.155   6.868 133.021  0.00  0.00    +0.000 A 
ATOM     18  N   UNL     1      -1.672   6.124 134.014  0.00  0.00    +0.000 NA
ATOM     19  C   UNL     1      -2.863   5.517 133.800  0.00  0.00    +0.000 A 
BRANCH  17  20
ATOM     20  N   UNL     1       0.055   7.528 133.186  0.00  0.00    +0.000 N 
ATOM     21  C   UNL     1       0.479   7.945 134.506  0.00  0.00    +0.000 C 
ATOM     22  H   UNL     1       0.797   7.283 132.544  0.00  0.00    +0.000 HD
ENDBRANCH  17  20
BRANCH   9  24
ATOM     23  C   UNL     1      -2.306   6.675 128.332  0.00  0.00    +0.000 C 
ATOM     24  C   UNL     1      -3.330   7.317 129.261  0.00  0.00    +0.000 C 
ENDBRANCH   9  24
ENDBRANCH   1  12
BRANCH   7  25
ATOM     25  N   UNL     1     -10.224   4.616 131.426  0.00  0.00    +0.000 N 
ATOM     26  C   UNL     1     -10.865   5.490 130.559  0.00  0.00    +0.000 C 
ATOM     27  O   UNL     1     -10.392   5.806 129.462  0.00  0.00    +0.000 OA
ATOM     28  N   UNL     1     -12.074   6.036 130.977  0.00  0.00    +0.000 N 
ATOM     29  H   UNL     1     -10.652   4.374 132.311  0.00  0.00    +0.000 HD
ATOM     30  H   UNL     1     -12.238   6.124 131.969  0.00  0.00    +0.000 HD
BRANCH  28  31
ATOM     31  C   UNL     1     -12.680   7.014 130.112  0.00  0.00    +0.000 A 
ATOM     32  C   UNL     1     -13.336   6.595 128.942  0.00  0.00    +0.000 A 
ATOM     33  C   UNL     1     -13.650   7.492 127.921  0.00  0.00    +0.000 A 
ATOM     34  C   UNL     1     -13.435   8.849 128.111  0.00  0.00    +0.000 A 
ATOM     35  C   UNL     1     -12.936   9.300 129.336  0.00  0.00    +0.000 A 
ATOM     36  C   UNL     1     -12.529   8.386 130.328  0.00  0.00    +0.000 A 
ENDBRANCH  28  31
ENDBRANCH   7  25
TORSDOF 5
ENDMDL
MODEL 7
REMARK VINA RESULT:      -8.5      6.394      8.410
REMARK  Name = Ripretinib
REMARK  7 active torsions:
REMARK  status: ('A' for Active; 'I' for Inactive)
REMARK    1  A    between atoms: C_1  and  C_2
REMARK    2  A    between atoms: C_2  and  N_3
REMARK    3  A    between atoms: C_6  and  C_16
REMARK    4  A    between atoms: C_11  and  N_12
REMARK    5  A    between atoms: N_12  and  C_13
REMARK    6  A    between atoms: C_22  and  N_23
REMARK    7  A    between atoms: N_26  and  C_27
REMARK                            x       y       z     vdW  Elec       q    Type
REMARK                         _______ _______ _______ _____ _____    ______ ____
ROOT
ATOM      1  C   UNL     1      -6.220   3.093 128.346  0.00  0.00    +0.000 A 
ATOM      2  C   UNL     1      -5.154   3.873 128.794  0.00  0.00    +0.000 A 
ATOM      3 BR   UNL     1      -3.347   3.483 128.345  0.00  0.00    +0.000 Br
ATOM      4  C   UNL     1      -5.408   4.995 129.588  0.00  0.00    +0.000 A 
ATOM      5  C   UNL     1      -6.710   5.266 130.040  0.00  0.00    +0.000 A 
ATOM      6  F   UNL     1      -6.887   6.295 130.885  0.00  0.00    +0.000 F 
ATOM      7  C   UNL     1      -7.803   4.494 129.633  0.00  0.00    +0.000 A 
ATOM      8  C   UNL     1      -7.521   3.469 128.722  0.00  0.00    +0.000 A 
ENDROOT
BRANCH   1  12
ATOM      9  N   UNL     1      -5.580  -0.593 127.561  0.00  0.00    +0.000 N 
ATOM     10  C   UNL     1      -5.607   0.600 128.279  0.00  0.00    +0.000 A 
ATOM     11  O   UNL     1      -5.280   0.667 129.472  0.00  0.00    +0.000 OA
ATOM     12  C   UNL     1      -6.092   1.832 127.584  0.00  0.00    +0.000 A 
ATOM     13  C   UNL     1      -6.513   1.759 126.309  0.00  0.00    +0.000 A 
ATOM     14  C   UNL     1      -6.403   0.512 125.564  0.00  0.00    +0.000 A 
ATOM     15  C   UNL     1      -5.936  -0.647 126.179  0.00  0.00    +0.000 A 
ATOM     16  C   UNL     1      -5.807  -1.801 125.401  0.00  0.00    +0.000 A 
ATOM     17  C   UNL     1      -6.006  -1.749 124.023  0.00  0.00    +0.000 A 
ATOM     18  N   UNL     1      -6.510  -0.647 123.441  0.00  0.00    +0.000 NA
ATOM     19  C   UNL     1      -6.737   0.437 124.220  0.00  0.00    +0.000 A 
BRANCH  17  20
ATOM     20  N   UNL     1      -5.767  -2.897 123.281  0.00  0.00    +0.000 N 
ATOM     21  C   UNL     1      -4.699  -3.796 123.660  0.00  0.00    +0.000 C 
ATOM     22  H   UNL     1      -6.570  -3.330 122.843  0.00  0.00    +0.000 HD
ENDBRANCH  17  20
BRANCH   9  24
ATOM     23  C   UNL     1      -6.434  -2.503 128.851  0.00  0.00    +0.000 C 
ATOM     24  C   UNL     1      -5.202  -1.783 128.316  0.00  0.00    +0.000 C 
ENDBRANCH   9  24
ENDBRANCH   1  12
BRANCH   7  25
ATOM     25  N   UNL     1      -9.134   4.714 130.153  0.00  0.00    +0.000 N 
ATOM     26  C   UNL     1     -10.007   5.661 129.635  0.00  0.00    +0.000 C 
ATOM     27  O   UNL     1      -9.679   6.451 128.743  0.00  0.00    +0.000 OA
ATOM     28  N   UNL     1     -11.286   5.717 130.176  0.00  0.00    +0.000 N 
ATOM     29  H   UNL     1      -9.446   4.078 130.876  0.00  0.00    +0.000 HD
ATOM     30  H   UNL     1     -11.415   5.402 131.126  0.00  0.00    +0.000 HD
BRANCH  28  31
ATOM     31  C   UNL     1     -12.150   6.765 129.698  0.00  0.00    +0.000 A 
ATOM     32  C   UNL     1     -13.003   6.519 128.608  0.00  0.00    +0.000 A 
ATOM     33  C   UNL     1     -13.609   7.561 127.907  0.00  0.00    +0.000 A 
ATOM     34  C   UNL     1     -13.480   8.863 128.368  0.00  0.00    +0.000 A 
ATOM     35  C   UNL     1     -12.771   9.107 129.546  0.00  0.00    +0.000 A 
ATOM     36  C   UNL     1     -12.079   8.066 130.198  0.00  0.00    +0.000 A 
ENDBRANCH  28  31
ENDBRANCH   7  25
TORSDOF 5
ENDMDL
MODEL 8
REMARK VINA RESULT:      -8.5      5.394      7.442
REMARK  Name = Ripretinib
REMARK  7 active torsions:
REMARK  status: ('A' for Active; 'I' for Inactive)
REMARK    1  A    between atoms: C_1  and  C_2
REMARK    2  A    between atoms: C_2  and  N_3
REMARK    3  A    between atoms: C_6  and  C_16
REMARK    4  A    between atoms: C_11  and  N_12
REMARK    5  A    between atoms: N_12  and  C_13
REMARK    6  A    between atoms: C_22  and  N_23
REMARK    7  A    between atoms: N_26  and  C_27
REMARK                            x       y       z     vdW  Elec       q    Type
REMARK                         _______ _______ _______ _____ _____    ______ ____
ROOT
ATOM      1  C   UNL     1      -7.665   2.251 130.376  0.00  0.00    +0.000 A 
ATOM      2  C   UNL     1      -7.097   1.761 131.552  0.00  0.00    +0.000 A 
ATOM      3 BR   UNL     1      -5.684   0.488 131.549  0.00  0.00    +0.000 Br
ATOM      4  C   UNL     1      -7.563   2.225 132.785  0.00  0.00    +0.000 A 
ATOM      5  C   UNL     1      -8.676   3.080 132.849  0.00  0.00    +0.000 A 
ATOM      6  F   UNL     1      -9.150   3.416 134.060  0.00  0.00    +0.000 F 
ATOM      7  C   UNL     1      -9.288   3.575 131.693  0.00  0.00    +0.000 A 
ATOM      8  C   UNL     1      -8.697   3.198 130.481  0.00  0.00    +0.000 A 
ENDROOT
BRANCH   1  12
ATOM      9  N   UNL     1      -5.901   1.938 126.998  0.00  0.00    +0.000 N 
ATOM     10  C   UNL     1      -6.249   2.458 128.243  0.00  0.00    +0.000 A 
ATOM     11  O   UNL     1      -5.667   3.430 128.745  0.00  0.00    +0.000 OA
ATOM     12  C   UNL     1      -7.338   1.780 129.012  0.00  0.00    +0.000 A 
ATOM     13  C   UNL     1      -7.931   0.684 128.507  0.00  0.00    +0.000 A 
ATOM     14  C   UNL     1      -7.595   0.210 127.171  0.00  0.00    +0.000 A 
ATOM     15  C   UNL     1      -6.599   0.833 126.423  0.00  0.00    +0.000 A 
ATOM     16  C   UNL     1      -6.355   0.364 125.129  0.00  0.00    +0.000 A 
ATOM     17  C   UNL     1      -7.181  -0.602 124.562  0.00  0.00    +0.000 A 
ATOM     18  N   UNL     1      -8.104  -1.241 125.302  0.00  0.00    +0.000 NA
ATOM     19  C   UNL     1      -8.263  -0.858 126.590  0.00  0.00    +0.000 A 
BRANCH  17  20
ATOM     20  N   UNL     1      -6.960  -0.961 123.239  0.00  0.00    +0.000 N 
ATOM     21  C   UNL     1      -7.842  -1.905 122.587  0.00  0.00    +0.000 C 
ATOM     22  H   UNL     1      -6.553  -0.255 122.639  0.00  0.00    +0.000 HD
ENDBRANCH  17  20
BRANCH   9  24
ATOM     23  C   UNL     1      -5.219   3.698 125.423  0.00  0.00    +0.000 C 
ATOM     24  C   UNL     1      -4.762   2.569 126.340  0.00  0.00    +0.000 C 
ENDBRANCH   9  24
ENDBRANCH   1  12
BRANCH   7  25
ATOM     25  N   UNL     1     -10.481   4.390 131.745  0.00  0.00    +0.000 N 
ATOM     26  C   UNL     1     -10.870   5.235 130.716  0.00  0.00    +0.000 C 
ATOM     27  O   UNL     1     -10.177   5.423 129.710  0.00  0.00    +0.000 OA
ATOM     28  N   UNL     1     -12.081   5.904 130.859  0.00  0.00    +0.000 N 
ATOM     29  H   UNL     1     -11.085   4.255 132.547  0.00  0.00    +0.000 HD
ATOM     30  H   UNL     1     -12.417   6.085 131.794  0.00  0.00    +0.000 HD
BRANCH  28  31
ATOM     31  C   UNL     1     -12.427   6.851 129.831  0.00  0.00    +0.000 A 
ATOM     32  C   UNL     1     -12.184   8.220 130.038  0.00  0.00    +0.000 A 
ATOM     33  C   UNL     1     -12.781   9.196 129.240  0.00  0.00    +0.000 A 
ATOM     34  C   UNL     1     -13.527   8.814 128.134  0.00  0.00    +0.000 A 
ATOM     35  C   UNL     1     -13.641   7.458 127.818  0.00  0.00    +0.000 A 
ATOM     36  C   UNL     1     -13.119   6.472 128.680  0.00  0.00    +0.000 A 
ENDBRANCH  28  31
ENDBRANCH   7  25
TORSDOF 5
ENDMDL
MODEL 9
REMARK VINA RESULT:      -8.4      6.437      8.236
REMARK  Name = Ripretinib
REMARK  7 active torsions:
REMARK  status: ('A' for Active; 'I' for Inactive)
REMARK    1  A    between atoms: C_1  and  C_2
REMARK    2  A    between atoms: C_2  and  N_3
REMARK    3  A    between atoms: C_6  and  C_16
REMARK    4  A    between atoms: C_11  and  N_12
REMARK    5  A    between atoms: N_12  and  C_13
REMARK    6  A    between atoms: C_22  and  N_23
REMARK    7  A    between atoms: N_26  and  C_27
REMARK                            x       y       z     vdW  Elec       q    Type
REMARK                         _______ _______ _______ _____ _____    ______ ____
ROOT
ATOM      1  C   UNL     1      -6.558   3.438 128.183  0.00  0.00    +0.000 A 
ATOM      2  C   UNL     1      -5.453   4.006 128.817  0.00  0.00    +0.000 A 
ATOM      3 BR   UNL     1      -3.666   3.526 128.377  0.00  0.00    +0.000 Br
ATOM      4  C   UNL     1      -5.650   4.977 129.803  0.00  0.00    +0.000 A 
ATOM      5  C   UNL     1      -6.947   5.290 130.245  0.00  0.00    +0.000 A 
ATOM      6  F   UNL     1      -7.079   6.153 131.265  0.00  0.00    +0.000 F 
ATOM      7  C   UNL     1      -8.079   4.724 129.651  0.00  0.00    +0.000 A 
ATOM      8  C   UNL     1      -7.839   3.867 128.570  0.00  0.00    +0.000 A 
ENDROOT
BRANCH   1  12
ATOM      9  N   UNL     1      -6.715   1.579 124.846  0.00  0.00    +0.000 N 
ATOM     10  C   UNL     1      -6.863   2.610 125.771  0.00  0.00    +0.000 A 
ATOM     11  O   UNL     1      -7.246   3.744 125.450  0.00  0.00    +0.000 OA
ATOM     12  C   UNL     1      -6.501   2.337 127.196  0.00  0.00    +0.000 A 
ATOM     13  C   UNL     1      -6.021   1.131 127.546  0.00  0.00    +0.000 A 
ATOM     14  C   UNL     1      -5.947   0.053 126.569  0.00  0.00    +0.000 A 
ATOM     15  C   UNL     1      -6.297   0.271 125.238  0.00  0.00    +0.000 A 
ATOM     16  C   UNL     1      -6.252  -0.813 124.358  0.00  0.00    +0.000 A 
ATOM     17  C   UNL     1      -6.003  -2.098 124.833  0.00  0.00    +0.000 A 
ATOM     18  N   UNL     1      -5.612  -2.299 126.103  0.00  0.00    +0.000 NA
ATOM     19  C   UNL     1      -5.550  -1.227 126.927  0.00  0.00    +0.000 A 
BRANCH  17  20
ATOM     20  N   UNL     1      -6.071  -3.156 123.936  0.00  0.00    +0.000 N 
ATOM     21  C   UNL     1      -4.995  -4.122 123.872  0.00  0.00    +0.000 C 
ATOM     22  H   UNL     1      -6.994  -3.512 123.724  0.00  0.00    +0.000 HD
ENDBRANCH  17  20
BRANCH   9  24
ATOM     23  C   UNL     1      -8.461   1.797 123.130  0.00  0.00    +0.000 C 
ATOM     24  C   UNL     1      -6.978   1.929 123.454  0.00  0.00    +0.000 C 
ENDBRANCH   9  24
ENDBRANCH   1  12
BRANCH   7  25
ATOM     25  N   UNL     1      -9.413   4.976 130.148  0.00  0.00    +0.000 N 
ATOM     26  C   UNL     1     -10.263   5.926 129.599  0.00  0.00    +0.000 C 
ATOM     27  O   UNL     1      -9.911   6.692 128.696  0.00  0.00    +0.000 OA
ATOM     28  N   UNL     1     -11.549   6.014 130.121  0.00  0.00    +0.000 N 
ATOM     29  H   UNL     1      -9.746   4.360 130.879  0.00  0.00    +0.000 HD
ATOM     30  H   UNL     1     -11.695   5.721 131.076  0.00  0.00    +0.000 HD
BRANCH  28  31
ATOM     31  C   UNL     1     -12.389   7.066 129.611  0.00  0.00    +0.000 A 
ATOM     32  C   UNL     1     -13.197   6.825 128.486  0.00  0.00    +0.000 A 
ATOM     33  C   UNL     1     -13.771   7.871 127.763  0.00  0.00    +0.000 A 
ATOM     34  C   UNL     1     -13.656   9.171 128.232  0.00  0.00    +0.000 A 
ATOM     35  C   UNL     1     -12.995   9.410 129.440  0.00  0.00    +0.000 A 
ATOM     36  C   UNL     1     -12.334   8.366 130.117  0.00  0.00    +0.000 A 
ENDBRANCH  28  31
ENDBRANCH   7  25
TORSDOF 5
ENDMDL
