MODEL 1
REMARK VINA RESULT:      -9.7      0.000      0.000
REMARK  Name = Risdiplam
REMARK  4 active torsions:
REMARK  status: ('A' for Active; 'I' for Inactive)
REMARK    1  A    between atoms: C_1  and  C_2
REMARK    2  A    between atoms: C_6  and  C_12
REMARK    3  A    between atoms: C_8  and  C_9
REMARK    4  A    between atoms: C_18  and  N_23
REMARK                            x       y       z     vdW  Elec       q    Type
REMARK                         _______ _______ _______ _____ _____    ______ ____
ROOT
ATOM      1  C   UNL     1      -7.743   1.870 130.739  0.00  0.00    +0.000 A 
ATOM      2  C   UNL     1      -9.050   2.149 130.869  0.00  0.00    +0.000 A 
ATOM      3  C   UNL     1      -9.116   2.965 132.107  0.00  0.00    +0.000 A 
ATOM      4  O   UNL     1      -9.047   2.516 133.222  0.00  0.00    +0.000 OA
ATOM      5  N   UNL     1      -8.826   4.250 131.786  0.00  0.00    +0.000 N 
ATOM      6  C   UNL     1      -9.730   5.068 131.125  0.00  0.00    +0.000 A 
ATOM      7  C   UNL     1      -9.469   6.332 130.737  0.00  0.00    +0.000 A 
ATOM      8  C   UNL     1      -8.146   6.803 131.211  0.00  0.00    +0.000 A 
ATOM      9  C   UNL     1      -7.203   5.899 131.656  0.00  0.00    +0.000 A 
ATOM     10  C   UNL     1      -7.502   4.312 131.415  0.00  0.00    +0.000 A 
ATOM     11  N   UNL     1      -6.893   3.202 130.895  0.00  0.00    +0.000 NA
ENDROOT
BRANCH   1  17
ATOM     12  C   UNL     1      -8.309  -3.121 124.517  0.00  0.00    +0.000 C 
ATOM     13  C   UNL     1      -8.112  -2.282 125.776  0.00  0.00    +0.000 A 
ATOM     14  C   UNL     1      -8.047  -0.895 125.965  0.00  0.00    +0.000 A 
ATOM     15  N   UNL     1      -7.944  -0.628 127.353  0.00  0.00    +0.000 N 
ATOM     16  N   UNL     1      -7.950   0.678 128.144  0.00  0.00    +0.000 NA
ATOM     17  C   UNL     1      -7.918   0.571 129.490  0.00  0.00    +0.000 A 
ATOM     18  C   UNL     1      -7.710  -0.832 130.041  0.00  0.00    +0.000 A 
ATOM     19  C   UNL     1      -7.714  -1.973 129.311  0.00  0.00    +0.000 A 
ATOM     20  C   UNL     1      -7.597  -3.312 129.996  0.00  0.00    +0.000 C 
ATOM     21  C   UNL     1      -7.874  -1.899 127.903  0.00  0.00    +0.000 A 
ATOM     22  N   UNL     1      -7.976  -2.880 127.009  0.00  0.00    +0.000 NA
ENDBRANCH   1  17
BRANCH   7  23
ATOM     23  N   UNL     1     -10.502   7.188 130.263  0.00  0.00    +0.000 N 
ATOM     24  C   UNL     1     -11.959   6.879 130.507  0.00  0.00    +0.000 C 
ATOM     25  C   UNL     1     -12.646   6.225 129.283  0.00  0.00    +0.000 C 
ATOM     26  N   UNL     1     -12.593   7.092 128.101  0.00  0.00    +0.000 NA
ATOM     27  C   UNL     1     -11.176   7.482 127.841  0.00  0.00    +0.000 C 
ATOM     28  C   UNL     1     -10.446   6.664 126.800  0.00  0.00    +0.000 C 
ATOM     29  C   UNL     1     -10.906   8.052 126.459  0.00  0.00    +0.000 C 
ATOM     30  C   UNL     1     -10.367   8.051 129.052  0.00  0.00    +0.000 C 
ATOM     31  H   UNL     1     -13.160   7.925 128.263  0.00  0.00    +0.000 HD
ENDBRANCH   7  23
TORSDOF 2
ENDMDL
MODEL 2
REMARK VINA RESULT:      -9.4      2.452      8.858
REMARK  Name = Risdiplam
REMARK  4 active torsions:
REMARK  status: ('A' for Active; 'I' for Inactive)
REMARK    1  A    between atoms: C_1  and  C_2
REMARK    2  A    between atoms: C_6  and  C_12
REMARK    3  A    between atoms: C_8  and  C_9
REMARK    4  A    between atoms: C_18  and  N_23
REMARK                            x       y       z     vdW  Elec       q    Type
REMARK                         _______ _______ _______ _____ _____    ______ ____
ROOT
ATOM      1  C   UNL     1      -7.764   4.156 128.991  0.00  0.00    +0.000 A 
ATOM      2  C   UNL     1      -7.762   4.080 127.650  0.00  0.00    +0.000 A 
ATOM      3  C   UNL     1      -6.529   3.316 127.340  0.00  0.00    +0.000 A 
ATOM      4  O   UNL     1      -5.417   3.777 127.368  0.00  0.00    +0.000 OA
ATOM      5  N   UNL     1      -6.805   1.993 127.461  0.00  0.00    +0.000 N 
ATOM      6  C   UNL     1      -7.545   1.305 126.511  0.00  0.00    +0.000 A 
ATOM      7  C   UNL     1      -7.892   0.007 126.613  0.00  0.00    +0.000 A 
ATOM      8  C   UNL     1      -7.284  -0.647 127.796  0.00  0.00    +0.000 A 
ATOM      9  C   UNL     1      -6.756   0.117 128.819  0.00  0.00    +0.000 A 
ATOM     10  C   UNL     1      -7.041   1.724 128.790  0.00  0.00    +0.000 A 
ATOM     11  N   UNL     1      -7.509   2.715 129.608  0.00  0.00    +0.000 NA
ENDROOT
BRANCH   1  17
ATOM     12  C   UNL     1     -13.467   9.747 128.597  0.00  0.00    +0.000 C 
ATOM     13  C   UNL     1     -12.462   8.616 128.795  0.00  0.00    +0.000 A 
ATOM     14  C   UNL     1     -11.624   7.952 127.889  0.00  0.00    +0.000 A 
ATOM     15  N   UNL     1     -10.813   7.036 128.605  0.00  0.00    +0.000 N 
ATOM     16  N   UNL     1      -9.660   6.136 128.166  0.00  0.00    +0.000 NA
ATOM     17  C   UNL     1      -9.037   5.435 129.139  0.00  0.00    +0.000 A 
ATOM     18  C   UNL     1      -9.670   5.504 130.520  0.00  0.00    +0.000 A 
ATOM     19  C   UNL     1     -10.692   6.318 130.877  0.00  0.00    +0.000 A 
ATOM     20  C   UNL     1     -11.162   6.361 132.311  0.00  0.00    +0.000 C 
ATOM     21  C   UNL     1     -11.285   7.162 129.902  0.00  0.00    +0.000 A 
ATOM     22  N   UNL     1     -12.239   8.079 130.043  0.00  0.00    +0.000 NA
ENDBRANCH   1  17
BRANCH   7  23
ATOM     23  N   UNL     1      -8.458  -0.696 125.513  0.00  0.00    +0.000 N 
ATOM     24  C   UNL     1      -9.242  -1.970 125.706  0.00  0.00    +0.000 C 
ATOM     25  C   UNL     1      -8.403  -3.240 125.424  0.00  0.00    +0.000 C 
ATOM     26  N   UNL     1      -7.900  -3.263 124.045  0.00  0.00    +0.000 NA
ATOM     27  C   UNL     1      -7.160  -1.996 123.771  0.00  0.00    +0.000 C 
ATOM     28  C   UNL     1      -5.657  -2.064 123.915  0.00  0.00    +0.000 C 
ATOM     29  C   UNL     1      -6.266  -2.023 122.544  0.00  0.00    +0.000 C 
ATOM     30  C   UNL     1      -7.890  -0.660 124.132  0.00  0.00    +0.000 C 
ATOM     31  H   UNL     1      -8.682  -3.357 123.398  0.00  0.00    +0.000 HD
ENDBRANCH   7  23
TORSDOF 2
ENDMDL
MODEL 3
REMARK VINA RESULT:      -9.3      3.085      8.442
REMARK  Name = Risdiplam
REMARK  4 active torsions:
REMARK  status: ('A' for Active; 'I' for Inactive)
REMARK    1  A    between atoms: C_1  and  C_2
REMARK    2  A    between atoms: C_6  and  C_12
REMARK    3  A    between atoms: C_8  and  C_9
REMARK    4  A    between atoms: C_18  and  N_23
REMARK                            x       y       z     vdW  Elec       q    Type
REMARK                         _______ _______ _______ _____ _____    ______ ____
ROOT
ATOM      1  C   UNL     1      -6.511   3.537 128.918  0.00  0.00    +0.000 A 
ATOM      2  C   UNL     1      -6.640   4.001 127.665  0.00  0.00    +0.000 A 
ATOM      3  C   UNL     1      -5.397   3.551 126.991  0.00  0.00    +0.000 A 
ATOM      4  O   UNL     1      -4.321   4.073 127.130  0.00  0.00    +0.000 OA
ATOM      5  N   UNL     1      -5.572   2.269 126.584  0.00  0.00    +0.000 N 
ATOM      6  C   UNL     1      -6.357   1.943 125.489  0.00  0.00    +0.000 A 
ATOM      7  C   UNL     1      -6.607   0.684 125.079  0.00  0.00    +0.000 A 
ATOM      8  C   UNL     1      -5.840  -0.321 125.854  0.00  0.00    +0.000 A 
ATOM      9  C   UNL     1      -5.263   0.022 127.061  0.00  0.00    +0.000 A 
ATOM     10  C   UNL     1      -5.655   1.471 127.703  0.00  0.00    +0.000 A 
ATOM     11  N   UNL     1      -6.102   2.003 128.882  0.00  0.00    +0.000 NA
ENDROOT
BRANCH   1  17
ATOM     12  C   UNL     1     -13.001   7.501 131.390  0.00  0.00    +0.000 C 
ATOM     13  C   UNL     1     -11.741   6.702 131.073  0.00  0.00    +0.000 A 
ATOM     14  C   UNL     1     -11.355   5.998 129.924  0.00  0.00    +0.000 A 
ATOM     15  N   UNL     1     -10.039   5.505 130.112  0.00  0.00    +0.000 N 
ATOM     16  N   UNL     1      -9.080   4.774 129.174  0.00  0.00    +0.000 NA
ATOM     17  C   UNL     1      -7.844   4.516 129.655  0.00  0.00    +0.000 A 
ATOM     18  C   UNL     1      -7.621   4.836 131.125  0.00  0.00    +0.000 A 
ATOM     19  C   UNL     1      -8.493   5.490 131.929  0.00  0.00    +0.000 A 
ATOM     20  C   UNL     1      -8.106   5.834 133.347  0.00  0.00    +0.000 C 
ATOM     21  C   UNL     1      -9.754   5.888 131.414  0.00  0.00    +0.000 A 
ATOM     22  N   UNL     1     -10.723   6.591 131.994  0.00  0.00    +0.000 NA
ENDBRANCH   1  17
BRANCH   7  23
ATOM     23  N   UNL     1      -7.233   0.423 123.829  0.00  0.00    +0.000 N 
ATOM     24  C   UNL     1      -8.326   1.314 123.291  0.00  0.00    +0.000 C 
ATOM     25  C   UNL     1      -9.743   0.740 123.539  0.00  0.00    +0.000 C 
ATOM     26  N   UNL     1      -9.918  -0.570 122.901  0.00  0.00    +0.000 NA
ATOM     27  C   UNL     1      -8.827  -1.484 123.349  0.00  0.00    +0.000 C 
ATOM     28  C   UNL     1      -9.174  -2.418 124.487  0.00  0.00    +0.000 C 
ATOM     29  C   UNL     1      -9.074  -2.961 123.091  0.00  0.00    +0.000 C 
ATOM     30  C   UNL     1      -7.364  -0.944 123.241  0.00  0.00    +0.000 C 
ATOM     31  H   UNL     1      -9.888  -0.463 121.887  0.00  0.00    +0.000 HD
ENDBRANCH   7  23
TORSDOF 2
ENDMDL
MODEL 4
REMARK VINA RESULT:      -9.3      2.362      8.464
REMARK  Name = Risdiplam
REMARK  4 active torsions:
REMARK  status: ('A' for Active; 'I' for Inactive)
REMARK    1  A    between atoms: C_1  and  C_2
REMARK    2  A    between atoms: C_6  and  C_12
REMARK    3  A    between atoms: C_8  and  C_9
REMARK    4  A    between atoms: C_18  and  N_23
REMARK                            x       y       z     vdW  Elec       q    Type
REMARK                         _______ _______ _______ _____ _____    ______ ____
ROOT
ATOM      1  C   UNL     1      -7.953   1.102 130.816  0.00  0.00    +0.000 A 
ATOM      2  C   UNL     1      -7.470   1.327 129.583  0.00  0.00    +0.000 A 
ATOM      3  C   UNL     1      -6.455   0.261 129.400  0.00  0.00    +0.000 A 
ATOM      4  O   UNL     1      -5.355   0.278 129.890  0.00  0.00    +0.000 OA
ATOM      5  N   UNL     1      -7.089  -0.867 128.997  0.00  0.00    +0.000 N 
ATOM      6  C   UNL     1      -7.573  -1.021 127.706  0.00  0.00    +0.000 A 
ATOM      7  C   UNL     1      -8.257  -2.098 127.274  0.00  0.00    +0.000 A 
ATOM      8  C   UNL     1      -8.326  -3.168 128.297  0.00  0.00    +0.000 A 
ATOM      9  C   UNL     1      -8.039  -2.888 129.619  0.00  0.00    +0.000 A 
ATOM     10  C   UNL     1      -7.865  -1.320 130.040  0.00  0.00    +0.000 A 
ATOM     11  N   UNL     1      -8.330  -0.432 130.972  0.00  0.00    +0.000 NA
ENDROOT
BRANCH   1  17
ATOM     12  C   UNL     1     -12.488   7.683 131.064  0.00  0.00    +0.000 C 
ATOM     13  C   UNL     1     -11.605   6.444 131.177  0.00  0.00    +0.000 A 
ATOM     14  C   UNL     1     -11.573   5.258 130.431  0.00  0.00    +0.000 A 
ATOM     15  N   UNL     1     -10.493   4.461 130.888  0.00  0.00    +0.000 N 
ATOM     16  N   UNL     1      -9.918   3.139 130.385  0.00  0.00    +0.000 NA
ATOM     17  C   UNL     1      -8.810   2.685 131.011  0.00  0.00    +0.000 A 
ATOM     18  C   UNL     1      -8.377   3.462 132.245  0.00  0.00    +0.000 A 
ATOM     19  C   UNL     1      -8.908   4.636 132.662  0.00  0.00    +0.000 A 
ATOM     20  C   UNL     1      -8.317   5.357 133.849  0.00  0.00    +0.000 C 
ATOM     21  C   UNL     1      -9.994   5.204 131.947  0.00  0.00    +0.000 A 
ATOM     22  N   UNL     1     -10.617   6.365 132.133  0.00  0.00    +0.000 NA
ENDBRANCH   1  17
BRANCH   7  23
ATOM     23  N   UNL     1      -8.533  -2.293 125.892  0.00  0.00    +0.000 N 
ATOM     24  C   UNL     1      -7.934  -3.443 125.119  0.00  0.00    +0.000 C 
ATOM     25  C   UNL     1      -6.697  -3.025 124.287  0.00  0.00    +0.000 C 
ATOM     26  N   UNL     1      -7.028  -1.988 123.304  0.00  0.00    +0.000 NA
ATOM     27  C   UNL     1      -7.682  -0.841 124.000  0.00  0.00    +0.000 C 
ATOM     28  C   UNL     1      -6.779   0.319 124.353  0.00  0.00    +0.000 C 
ATOM     29  C   UNL     1      -7.738   0.451 123.205  0.00  0.00    +0.000 C 
ATOM     30  C   UNL     1      -8.874  -1.181 124.954  0.00  0.00    +0.000 C 
ATOM     31  H   UNL     1      -7.659  -2.373 122.600  0.00  0.00    +0.000 HD
ENDBRANCH   7  23
TORSDOF 2
ENDMDL
MODEL 5
REMARK VINA RESULT:      -9.1      5.676      7.720
REMARK  Name = Risdiplam
REMARK  4 active torsions:
REMARK  status: ('A' for Active; 'I' for Inactive)
REMARK    1  A    between atoms: C_1  and  C_2
REMARK    2  A    between atoms: C_6  and  C_12
REMARK    3  A    between atoms: C_8  and  C_9
REMARK    4  A    between atoms: C_18  and  N_23
REMARK                            x       y       z     vdW  Elec       q    Type
REMARK                         _______ _______ _______ _____ _____    ______ ____
ROOT
ATOM      1  C   UNL     1      -6.971  -2.421 126.135  0.00  0.00    +0.000 A 
ATOM      2  C   UNL     1      -6.094  -1.466 125.785  0.00  0.00    +0.000 A 
ATOM      3  C   UNL     1      -6.078  -1.526 124.302  0.00  0.00    +0.000 A 
ATOM      4  O   UNL     1      -5.501  -2.366 123.661  0.00  0.00    +0.000 OA
ATOM      5  N   UNL     1      -7.125  -0.801 123.835  0.00  0.00    +0.000 N 
ATOM      6  C   UNL     1      -7.124   0.585 123.841  0.00  0.00    +0.000 A 
ATOM      7  C   UNL     1      -8.159   1.349 123.440  0.00  0.00    +0.000 A 
ATOM      8  C   UNL     1      -9.262   0.542 122.866  0.00  0.00    +0.000 A 
ATOM      9  C   UNL     1      -9.319  -0.820 123.088  0.00  0.00    +0.000 A 
ATOM     10  C   UNL     1      -8.287  -1.451 124.185  0.00  0.00    +0.000 A 
ATOM     11  N   UNL     1      -8.305  -2.259 125.289  0.00  0.00    +0.000 NA
ENDROOT
BRANCH   1  17
ATOM     12  C   UNL     1      -6.077  -2.878 134.068  0.00  0.00    +0.000 C 
ATOM     13  C   UNL     1      -6.118  -2.886 132.543  0.00  0.00    +0.000 A 
ATOM     14  C   UNL     1      -7.188  -2.780 131.644  0.00  0.00    +0.000 A 
ATOM     15  N   UNL     1      -6.673  -2.751 130.324  0.00  0.00    +0.000 N 
ATOM     16  N   UNL     1      -7.349  -2.540 128.971  0.00  0.00    +0.000 NA
ATOM     17  C   UNL     1      -6.537  -2.486 127.892  0.00  0.00    +0.000 A 
ATOM     18  C   UNL     1      -5.072  -2.809 128.144  0.00  0.00    +0.000 A 
ATOM     19  C   UNL     1      -4.504  -2.988 129.360  0.00  0.00    +0.000 A 
ATOM     20  C   UNL     1      -3.015  -3.205 129.477  0.00  0.00    +0.000 C 
ATOM     21  C   UNL     1      -5.312  -2.923 130.525  0.00  0.00    +0.000 A 
ATOM     22  N   UNL     1      -4.961  -2.998 131.806  0.00  0.00    +0.000 NA
ENDBRANCH   1  17
BRANCH   7  23
ATOM     23  N   UNL     1      -8.018   2.753 123.263  0.00  0.00    +0.000 N 
ATOM     24  C   UNL     1      -7.512   3.340 121.968  0.00  0.00    +0.000 C 
ATOM     25  C   UNL     1      -6.011   3.715 122.025  0.00  0.00    +0.000 C 
ATOM     26  N   UNL     1      -5.738   4.708 123.071  0.00  0.00    +0.000 NA
ATOM     27  C   UNL     1      -6.269   4.209 124.373  0.00  0.00    +0.000 C 
ATOM     28  C   UNL     1      -5.266   3.538 125.283  0.00  0.00    +0.000 C 
ATOM     29  C   UNL     1      -5.741   4.925 125.604  0.00  0.00    +0.000 C 
ATOM     30  C   UNL     1      -7.749   3.703 124.384  0.00  0.00    +0.000 C 
ATOM     31  H   UNL     1      -6.185   5.592 122.827  0.00  0.00    +0.000 HD
ENDBRANCH   7  23
TORSDOF 2
ENDMDL
MODEL 6
REMARK VINA RESULT:      -9.0      1.612      2.436
REMARK  Name = Risdiplam
REMARK  4 active torsions:
REMARK  status: ('A' for Active; 'I' for Inactive)
REMARK    1  A    between atoms: C_1  and  C_2
REMARK    2  A    between atoms: C_6  and  C_12
REMARK    3  A    between atoms: C_8  and  C_9
REMARK    4  A    between atoms: C_18  and  N_23
REMARK                            x       y       z     vdW  Elec       q    Type
REMARK                         _______ _______ _______ _____ _____    ______ ____
ROOT
ATOM      1  C   UNL     1      -7.078   1.440 129.222  0.00  0.00    +0.000 A 
ATOM      2  C   UNL     1      -8.290   1.679 129.748  0.00  0.00    +0.000 A 
ATOM      3  C   UNL     1      -7.994   2.143 131.125  0.00  0.00    +0.000 A 
ATOM      4  O   UNL     1      -7.685   1.418 132.035  0.00  0.00    +0.000 OA
ATOM      5  N   UNL     1      -7.703   3.467 131.076  0.00  0.00    +0.000 N 
ATOM      6  C   UNL     1      -8.682   4.432 130.896  0.00  0.00    +0.000 A 
ATOM      7  C   UNL     1      -8.437   5.752 130.785  0.00  0.00    +0.000 A 
ATOM      8  C   UNL     1      -7.009   6.079 131.009  0.00  0.00    +0.000 A 
ATOM      9  C   UNL     1      -6.050   5.087 130.956  0.00  0.00    +0.000 A 
ATOM     10  C   UNL     1      -6.509   3.619 130.407  0.00  0.00    +0.000 A 
ATOM     11  N   UNL     1      -6.125   2.682 129.487  0.00  0.00    +0.000 NA
ENDROOT
BRANCH   1  17
ATOM     12  C   UNL     1      -9.563  -3.503 123.449  0.00  0.00    +0.000 C 
ATOM     13  C   UNL     1      -9.205  -2.458 124.501  0.00  0.00    +0.000 A 
ATOM     14  C   UNL     1      -8.668  -2.587 125.789  0.00  0.00    +0.000 A 
ATOM     15  N   UNL     1      -8.438  -1.292 126.319  0.00  0.00    +0.000 N 
ATOM     16  N   UNL     1      -7.778  -0.822 127.613  0.00  0.00    +0.000 NA
ATOM     17  C   UNL     1      -7.643   0.513 127.774  0.00  0.00    +0.000 A 
ATOM     18  C   UNL     1      -8.317   1.380 126.722  0.00  0.00    +0.000 A 
ATOM     19  C   UNL     1      -8.892   0.931 125.581  0.00  0.00    +0.000 A 
ATOM     20  C   UNL     1      -9.438   1.910 124.570  0.00  0.00    +0.000 C 
ATOM     21  C   UNL     1      -8.935  -0.464 125.324  0.00  0.00    +0.000 A 
ATOM     22  N   UNL     1      -9.381  -1.115 124.253  0.00  0.00    +0.000 NA
ENDBRANCH   1  17
BRANCH   7  23
ATOM     23  N   UNL     1      -9.493   6.705 130.822  0.00  0.00    +0.000 N 
ATOM     24  C   UNL     1     -10.833   6.379 131.433  0.00  0.00    +0.000 C 
ATOM     25  C   UNL     1     -11.899   6.003 130.374  0.00  0.00    +0.000 C 
ATOM     26  N   UNL     1     -12.128   7.096 129.422  0.00  0.00    +0.000 NA
ATOM     27  C   UNL     1     -10.824   7.507 128.823  0.00  0.00    +0.000 C 
ATOM     28  C   UNL     1     -10.499   6.910 127.473  0.00  0.00    +0.000 C 
ATOM     29  C   UNL     1     -10.928   8.346 127.561  0.00  0.00    +0.000 C 
ATOM     30  C   UNL     1      -9.652   7.799 129.817  0.00  0.00    +0.000 C 
ATOM     31  H   UNL     1     -12.554   7.887 129.906  0.00  0.00    +0.000 HD
ENDBRANCH   7  23
TORSDOF 2
ENDMDL
MODEL 7
REMARK VINA RESULT:      -8.9      4.709      9.007
REMARK  Name = Risdiplam
REMARK  4 active torsions:
REMARK  status: ('A' for Active; 'I' for Inactive)
REMARK    1  A    between atoms: C_1  and  C_2
REMARK    2  A    between atoms: C_6  and  C_12
REMARK    3  A    between atoms: C_8  and  C_9
REMARK    4  A    between atoms: C_18  and  N_23
REMARK                            x       y       z     vdW  Elec       q    Type
REMARK                         _______ _______ _______ _____ _____    ______ ____
ROOT
ATOM      1  C   UNL     1      -6.050   4.622 126.437  0.00  0.00    +0.000 A 
ATOM      2  C   UNL     1      -7.068   3.785 126.691  0.00  0.00    +0.000 A 
ATOM      3  C   UNL     1      -8.027   4.047 125.590  0.00  0.00    +0.000 A 
ATOM      4  O   UNL     1      -8.757   5.003 125.536  0.00  0.00    +0.000 OA
ATOM      5  N   UNL     1      -7.642   3.324 124.509  0.00  0.00    +0.000 N 
ATOM      6  C   UNL     1      -7.833   1.953 124.432  0.00  0.00    +0.000 A 
ATOM      7  C   UNL     1      -7.419   1.184 123.406  0.00  0.00    +0.000 A 
ATOM      8  C   UNL     1      -6.847   1.986 122.298  0.00  0.00    +0.000 A 
ATOM      9  C   UNL     1      -6.471   3.297 122.509  0.00  0.00    +0.000 A 
ATOM     10  C   UNL     1      -6.452   3.842 124.048  0.00  0.00    +0.000 A 
ATOM     11  N   UNL     1      -5.615   4.488 124.916  0.00  0.00    +0.000 NA
ENDROOT
BRANCH   1  17
ATOM     12  C   UNL     1      -2.922   3.042 133.624  0.00  0.00    +0.000 C 
ATOM     13  C   UNL     1      -3.371   3.392 132.209  0.00  0.00    +0.000 A 
ATOM     14  C   UNL     1      -4.374   2.849 131.394  0.00  0.00    +0.000 A 
ATOM     15  N   UNL     1      -4.444   3.601 130.194  0.00  0.00    +0.000 N 
ATOM     16  N   UNL     1      -5.403   3.541 129.007  0.00  0.00    +0.000 NA
ATOM     17  C   UNL     1      -5.235   4.477 128.047  0.00  0.00    +0.000 A 
ATOM     18  C   UNL     1      -4.009   5.365 128.189  0.00  0.00    +0.000 A 
ATOM     19  C   UNL     1      -3.179   5.396 129.260  0.00  0.00    +0.000 A 
ATOM     20  C   UNL     1      -2.053   6.398 129.317  0.00  0.00    +0.000 C 
ATOM     21  C   UNL     1      -3.406   4.509 130.344  0.00  0.00    +0.000 A 
ATOM     22  N   UNL     1      -2.770   4.414 131.509  0.00  0.00    +0.000 NA
ENDBRANCH   1  17
BRANCH   7  23
ATOM     23  N   UNL     1      -7.835  -0.171 123.282  0.00  0.00    +0.000 N 
ATOM     24  C   UNL     1      -8.954  -0.735 124.124  0.00  0.00    +0.000 C 
ATOM     25  C   UNL     1      -8.440  -1.541 125.341  0.00  0.00    +0.000 C 
ATOM     26  N   UNL     1      -7.611  -2.680 124.929  0.00  0.00    +0.000 NA
ATOM     27  C   UNL     1      -6.515  -2.193 124.041  0.00  0.00    +0.000 C 
ATOM     28  C   UNL     1      -5.179  -1.954 124.709  0.00  0.00    +0.000 C 
ATOM     29  C   UNL     1      -5.365  -3.165 123.841  0.00  0.00    +0.000 C 
ATOM     30  C   UNL     1      -6.930  -1.275 122.844  0.00  0.00    +0.000 C 
ATOM     31  H   UNL     1      -8.187  -3.359 124.431  0.00  0.00    +0.000 HD
ENDBRANCH   7  23
TORSDOF 2
ENDMDL
MODEL 8
REMARK VINA RESULT:      -8.6      3.644      5.538
REMARK  Name = Risdiplam
REMARK  4 active torsions:
REMARK  status: ('A' for Active; 'I' for Inactive)
REMARK    1  A    between atoms: C_1  and  C_2
REMARK    2  A    between atoms: C_6  and  C_12
REMARK    3  A    between atoms: C_8  and  C_9
REMARK    4  A    between atoms: C_18  and  N_23
REMARK                            x       y       z     vdW  Elec       q    Type
REMARK                         _______ _______ _______ _____ _____    ______ ____
ROOT
ATOM      1  C   UNL     1      -8.195   1.780 126.753  0.00  0.00    +0.000 A 
ATOM      2  C   UNL     1      -7.178   2.627 126.526  0.00  0.00    +0.000 A 
ATOM      3  C   UNL     1      -7.725   3.950 126.914  0.00  0.00    +0.000 A 
ATOM      4  O   UNL     1      -8.483   4.598 126.239  0.00  0.00    +0.000 OA
ATOM      5  N   UNL     1      -7.600   4.086 128.258  0.00  0.00    +0.000 N 
ATOM      6  C   UNL     1      -6.380   4.345 128.863  0.00  0.00    +0.000 A 
ATOM      7  C   UNL     1      -6.195   4.433 130.195  0.00  0.00    +0.000 A 
ATOM      8  C   UNL     1      -7.471   4.353 130.945  0.00  0.00    +0.000 A 
ATOM      9  C   UNL     1      -8.611   3.873 130.332  0.00  0.00    +0.000 A 
ATOM     10  C   UNL     1      -8.447   3.184 128.861  0.00  0.00    +0.000 A 
ATOM     11  N   UNL     1      -8.790   2.034 128.203  0.00  0.00    +0.000 NA
ENDROOT
BRANCH   1  17
ATOM     12  C   UNL     1      -4.586  -4.625 123.610  0.00  0.00    +0.000 C 
ATOM     13  C   UNL     1      -5.413  -3.466 124.155  0.00  0.00    +0.000 A 
ATOM     14  C   UNL     1      -5.222  -2.633 125.266  0.00  0.00    +0.000 A 
ATOM     15  N   UNL     1      -6.239  -1.646 125.277  0.00  0.00    +0.000 N 
ATOM     16  N   UNL     1      -6.470  -0.429 126.170  0.00  0.00    +0.000 NA
ATOM     17  C   UNL     1      -7.513   0.368 125.849  0.00  0.00    +0.000 A 
ATOM     18  C   UNL     1      -8.424  -0.142 124.742  0.00  0.00    +0.000 A 
ATOM     19  C   UNL     1      -8.187  -1.226 123.965  0.00  0.00    +0.000 A 
ATOM     20  C   UNL     1      -9.125  -1.566 122.832  0.00  0.00    +0.000 C 
ATOM     21  C   UNL     1      -7.029  -2.012 124.198  0.00  0.00    +0.000 A 
ATOM     22  N   UNL     1      -6.568  -3.062 123.524  0.00  0.00    +0.000 NA
ENDBRANCH   1  17
BRANCH   7  23
ATOM     23  N   UNL     1      -4.973   4.915 130.742  0.00  0.00    +0.000 N 
ATOM     24  C   UNL     1      -4.947   6.021 131.767  0.00  0.00    +0.000 C 
ATOM     25  C   UNL     1      -4.619   7.403 131.150  0.00  0.00    +0.000 C 
ATOM     26  N   UNL     1      -3.306   7.408 130.495  0.00  0.00    +0.000 NA
ATOM     27  C   UNL     1      -3.247   6.293 129.504  0.00  0.00    +0.000 C 
ATOM     28  C   UNL     1      -3.540   6.668 128.069  0.00  0.00    +0.000 C 
ATOM     29  C   UNL     1      -2.125   6.391 128.486  0.00  0.00    +0.000 C 
ATOM     30  C   UNL     1      -3.671   4.875 130.011  0.00  0.00    +0.000 C 
ATOM     31  H   UNL     1      -2.574   7.290 131.195  0.00  0.00    +0.000 HD
ENDBRANCH   7  23
TORSDOF 2
ENDMDL
MODEL 9
REMARK VINA RESULT:      -8.5      3.691      8.442
REMARK  Name = Risdiplam
REMARK  4 active torsions:
REMARK  status: ('A' for Active; 'I' for Inactive)
REMARK    1  A    between atoms: C_1  and  C_2
REMARK    2  A    between atoms: C_6  and  C_12
REMARK    3  A    between atoms: C_8  and  C_9
REMARK    4  A    between atoms: C_18  and  N_23
REMARK                            x       y       z     vdW  Elec       q    Type
REMARK                         _______ _______ _______ _____ _____    ______ ____
ROOT
ATOM      1  C   UNL     1      -7.444  -1.335 130.873  0.00  0.00    +0.000 A 
ATOM      2  C   UNL     1      -6.766  -0.774 129.858  0.00  0.00    +0.000 A 
ATOM      3  C   UNL     1      -6.166  -1.931 129.150  0.00  0.00    +0.000 A 
ATOM      4  O   UNL     1      -5.198  -2.535 129.532  0.00  0.00    +0.000 OA
ATOM      5  N   UNL     1      -7.097  -2.443 128.306  0.00  0.00    +0.000 N 
ATOM      6  C   UNL     1      -7.441  -1.815 127.119  0.00  0.00    +0.000 A 
ATOM      7  C   UNL     1      -8.397  -2.254 126.276  0.00  0.00    +0.000 A 
ATOM      8  C   UNL     1      -8.956  -3.562 126.693  0.00  0.00    +0.000 A 
ATOM      9  C   UNL     1      -8.754  -4.028 127.977  0.00  0.00    +0.000 A 
ATOM     10  C   UNL     1      -8.103  -2.998 129.064  0.00  0.00    +0.000 A 
ATOM     11  N   UNL     1      -8.344  -2.522 130.323  0.00  0.00    +0.000 NA
ENDROOT
BRANCH   1  17
ATOM     12  C   UNL     1      -7.665   5.259 135.391  0.00  0.00    +0.000 C 
ATOM     13  C   UNL     1      -7.694   4.088 134.414  0.00  0.00    +0.000 A 
ATOM     14  C   UNL     1      -6.835   2.992 134.254  0.00  0.00    +0.000 A 
ATOM     15  N   UNL     1      -7.365   2.139 133.254  0.00  0.00    +0.000 N 
ATOM     16  N   UNL     1      -6.925   0.768 132.745  0.00  0.00    +0.000 NA
ATOM     17  C   UNL     1      -7.719   0.183 131.821  0.00  0.00    +0.000 A 
ATOM     18  C   UNL     1      -8.857   1.037 131.284  0.00  0.00    +0.000 A 
ATOM     19  C   UNL     1      -9.223   2.250 131.762  0.00  0.00    +0.000 A 
ATOM     20  C   UNL     1     -10.438   2.950 131.202  0.00  0.00    +0.000 C 
ATOM     21  C   UNL     1      -8.483   2.836 132.821  0.00  0.00    +0.000 A 
ATOM     22  N   UNL     1      -8.702   3.969 133.483  0.00  0.00    +0.000 NA
ENDBRANCH   1  17
BRANCH   7  23
ATOM     23  N   UNL     1      -8.551  -1.694 124.977  0.00  0.00    +0.000 N 
ATOM     24  C   UNL     1      -7.956  -2.352 123.756  0.00  0.00    +0.000 C 
ATOM     25  C   UNL     1      -6.620  -1.704 123.317  0.00  0.00    +0.000 C 
ATOM     26  N   UNL     1      -6.788  -0.283 122.987  0.00  0.00    +0.000 NA
ATOM     27  C   UNL     1      -7.430   0.415 124.139  0.00  0.00    +0.000 C 
ATOM     28  C   UNL     1      -6.492   1.138 125.080  0.00  0.00    +0.000 C 
ATOM     29  C   UNL     1      -7.326   1.930 124.116  0.00  0.00    +0.000 C 
ATOM     30  C   UNL     1      -8.727  -0.233 124.725  0.00  0.00    +0.000 C 
ATOM     31  H   UNL     1      -7.372  -0.192 122.156  0.00  0.00    +0.000 HD
ENDBRANCH   7  23
TORSDOF 2
ENDMDL
