MODEL 1
REMARK VINA RESULT:      -6.0      0.000      0.000
REMARK  Name = Risedronic acid
REMARK  9 active torsions:
REMARK  status: ('A' for Active; 'I' for Inactive)
REMARK    1  A    between atoms: O_1  and  C_2
REMARK    2  A    between atoms: C_2  and  C_3
REMARK    3  A    between atoms: C_2  and  P_10
REMARK    4  A    between atoms: C_2  and  P_14
REMARK    5  A    between atoms: C_3  and  C_4
REMARK    6  A    between atoms: P_10  and  O_11
REMARK    7  A    between atoms: P_10  and  O_12
REMARK    8  A    between atoms: P_14  and  O_15
REMARK    9  A    between atoms: P_14  and  O_16
REMARK                            x       y       z     vdW  Elec       q    Type
REMARK                         _______ _______ _______ _____ _____    ______ ____
ROOT
ATOM      1  C   UNL     1     -10.862   6.969 129.173  0.00  0.00    +0.000 C 
ENDROOT
BRANCH   1   2
ATOM      2  O   UNL     1     -11.026   5.521 129.246  0.00  0.00    +0.000 OA
ATOM      3  H   UNL     1     -11.877   5.342 129.690  0.00  0.00    +0.000 HD
ENDBRANCH   1   2
BRANCH   1   4
ATOM      4  P   UNL     1     -10.863   7.497 127.421  0.00  0.00    +0.000 P 
ATOM      5  O   UNL     1     -10.864   7.943 125.939  0.00  0.00    +0.000 OA
BRANCH   4   6
ATOM      6  O   UNL     1     -10.166   8.915 127.833  0.00  0.00    +0.000 OA
ATOM      7  H   UNL     1     -10.047   9.687 127.226  0.00  0.00    +0.000 HD
ENDBRANCH   4   6
BRANCH   4   8
ATOM      8  O   UNL     1      -9.658   6.406 127.196  0.00  0.00    +0.000 OA
ATOM      9  H   UNL     1      -9.468   5.952 128.055  0.00  0.00    +0.000 HD
ENDBRANCH   4   8
ENDBRANCH   1   4
BRANCH   1  10
ATOM     10  P   UNL     1     -12.628   7.705 129.928  0.00  0.00    +0.000 P 
ATOM     11  O   UNL     1     -12.880   9.131 130.138  0.00  0.00    +0.000 OA
BRANCH  10  12
ATOM     12  O   UNL     1     -13.797   7.048 129.018  0.00  0.00    +0.000 OA
ATOM     13  H   UNL     1     -14.312   7.753 128.543  0.00  0.00    +0.000 HD
ENDBRANCH  10  12
BRANCH  10  14
ATOM     14  O   UNL     1     -12.667   6.747 131.240  0.00  0.00    +0.000 OA
ATOM     15  H   UNL     1     -12.492   7.269 132.059  0.00  0.00    +0.000 HD
ENDBRANCH  10  14
ENDBRANCH   1  10
BRANCH   1  16
ATOM     16  C   UNL     1      -9.632   7.407 129.994  0.00  0.00    +0.000 C 
BRANCH  16  17
ATOM     17  C   UNL     1      -8.988   6.382 130.896  0.00  0.00    +0.000 A 
ATOM     18  C   UNL     1      -7.907   5.609 130.504  0.00  0.00    +0.000 A 
ATOM     19  N   UNL     1      -7.275   4.715 131.310  0.00  0.00    +0.000 NA
ATOM     20  C   UNL     1      -7.720   4.590 132.582  0.00  0.00    +0.000 A 
ATOM     21  C   UNL     1      -8.759   5.318 133.084  0.00  0.00    +0.000 A 
ATOM     22  C   UNL     1      -9.365   6.206 132.221  0.00  0.00    +0.000 A 
ENDBRANCH  16  17
ENDBRANCH   1  16
TORSDOF 9
ENDMDL
MODEL 2
REMARK VINA RESULT:      -5.9      3.613      5.488
REMARK  Name = Risedronic acid
REMARK  9 active torsions:
REMARK  status: ('A' for Active; 'I' for Inactive)
REMARK    1  A    between atoms: O_1  and  C_2
REMARK    2  A    between atoms: C_2  and  C_3
REMARK    3  A    between atoms: C_2  and  P_10
REMARK    4  A    between atoms: C_2  and  P_14
REMARK    5  A    between atoms: C_3  and  C_4
REMARK    6  A    between atoms: P_10  and  O_11
REMARK    7  A    between atoms: P_10  and  O_12
REMARK    8  A    between atoms: P_14  and  O_15
REMARK    9  A    between atoms: P_14  and  O_16
REMARK                            x       y       z     vdW  Elec       q    Type
REMARK                         _______ _______ _______ _____ _____    ______ ____
ROOT
ATOM      1  C   UNL     1      -9.926   5.417 130.201  0.00  0.00    +0.000 C 
ENDROOT
BRANCH   1   2
ATOM      2  O   UNL     1      -9.837   5.572 128.752  0.00  0.00    +0.000 OA
ATOM      3  H   UNL     1     -10.587   5.089 128.356  0.00  0.00    +0.000 HD
ENDBRANCH   1   2
BRANCH   1   4
ATOM      4  P   UNL     1      -9.764   3.647 130.637  0.00  0.00    +0.000 P 
ATOM      5  O   UNL     1      -9.627   2.151 131.006  0.00  0.00    +0.000 OA
BRANCH   4   6
ATOM      6  O   UNL     1     -11.387   3.470 130.577  0.00  0.00    +0.000 OA
ATOM      7  H   UNL     1     -11.863   2.603 130.570  0.00  0.00    +0.000 HD
ENDBRANCH   4   6
BRANCH   4   8
ATOM      8  O   UNL     1      -9.189   3.428 129.116  0.00  0.00    +0.000 OA
ATOM      9  H   UNL     1      -8.924   2.481 129.004  0.00  0.00    +0.000 HD
ENDBRANCH   4   8
ENDBRANCH   1   4
BRANCH   1  10
ATOM     10  P   UNL     1      -8.189   6.275 130.896  0.00  0.00    +0.000 P 
ATOM     11  O   UNL     1      -7.816   6.299 132.311  0.00  0.00    +0.000 OA
BRANCH  10  12
ATOM     12  O   UNL     1      -7.000   5.630 130.004  0.00  0.00    +0.000 OA
ATOM     13  H   UNL     1      -6.812   4.696 130.289  0.00  0.00    +0.000 HD
ENDBRANCH  10  12
BRANCH  10  14
ATOM     14  O   UNL     1      -8.400   7.709 130.161  0.00  0.00    +0.000 OA
ATOM     15  H   UNL     1      -8.562   8.421 130.825  0.00  0.00    +0.000 HD
ENDBRANCH  10  14
ENDBRANCH   1  10
BRANCH   1  16
ATOM     16  C   UNL     1     -11.192   6.116 130.734  0.00  0.00    +0.000 C 
BRANCH  16  17
ATOM     17  C   UNL     1     -12.007   6.933 129.760  0.00  0.00    +0.000 A 
ATOM     18  C   UNL     1     -12.973   6.379 128.936  0.00  0.00    +0.000 A 
ATOM     19  N   UNL     1     -13.755   7.095 128.087  0.00  0.00    +0.000 NA
ATOM     20  C   UNL     1     -13.593   8.439 128.063  0.00  0.00    +0.000 A 
ATOM     21  C   UNL     1     -12.692   9.095 128.850  0.00  0.00    +0.000 A 
ATOM     22  C   UNL     1     -11.922   8.318 129.688  0.00  0.00    +0.000 A 
ENDBRANCH  16  17
ENDBRANCH   1  16
TORSDOF 9
ENDMDL
MODEL 3
REMARK VINA RESULT:      -5.9      3.549      5.735
REMARK  Name = Risedronic acid
REMARK  9 active torsions:
REMARK  status: ('A' for Active; 'I' for Inactive)
REMARK    1  A    between atoms: O_1  and  C_2
REMARK    2  A    between atoms: C_2  and  C_3
REMARK    3  A    between atoms: C_2  and  P_10
REMARK    4  A    between atoms: C_2  and  P_14
REMARK    5  A    between atoms: C_3  and  C_4
REMARK    6  A    between atoms: P_10  and  O_11
REMARK    7  A    between atoms: P_10  and  O_12
REMARK    8  A    between atoms: P_14  and  O_15
REMARK    9  A    between atoms: P_14  and  O_16
REMARK                            x       y       z     vdW  Elec       q    Type
REMARK                         _______ _______ _______ _____ _____    ______ ____
ROOT
ATOM      1  C   UNL     1      -9.589   5.088 130.684  0.00  0.00    +0.000 C 
ENDROOT
BRANCH   1   2
ATOM      2  O   UNL     1     -10.724   4.532 129.956  0.00  0.00    +0.000 OA
ATOM      3  H   UNL     1     -11.202   5.274 129.540  0.00  0.00    +0.000 HD
ENDBRANCH   1   2
BRANCH   1   4
ATOM      4  P   UNL     1      -9.329   4.141 132.228  0.00  0.00    +0.000 P 
ATOM      5  O   UNL     1      -9.109   3.339 133.533  0.00  0.00    +0.000 OA
BRANCH   4   6
ATOM      6  O   UNL     1     -10.263   5.198 133.050  0.00  0.00    +0.000 OA
ATOM      7  H   UNL     1     -11.048   5.670 132.678  0.00  0.00    +0.000 HD
ENDBRANCH   4   6
BRANCH   4   8
ATOM      8  O   UNL     1     -10.324   3.007 131.581  0.00  0.00    +0.000 OA
ATOM      9  H   UNL     1      -9.781   2.352 131.074  0.00  0.00    +0.000 HD
ENDBRANCH   4   8
ENDBRANCH   1   4
BRANCH   1  10
ATOM     10  P   UNL     1      -7.968   4.607 129.511  0.00  0.00    +0.000 P 
ATOM     11  O   UNL     1      -6.623   5.138 129.743  0.00  0.00    +0.000 OA
BRANCH  10  12
ATOM     12  O   UNL     1      -7.939   2.988 129.453  0.00  0.00    +0.000 OA
ATOM     13  H   UNL     1      -8.408   2.656 128.642  0.00  0.00    +0.000 HD
ENDBRANCH  10  12
BRANCH  10  14
ATOM     14  O   UNL     1      -8.670   4.966 128.091  0.00  0.00    +0.000 OA
ATOM     15  H   UNL     1      -8.040   4.827 127.344  0.00  0.00    +0.000 HD
ENDBRANCH  10  14
ENDBRANCH   1  10
BRANCH   1  16
ATOM     16  C   UNL     1      -9.765   6.609 130.864  0.00  0.00    +0.000 C 
BRANCH  16  17
ATOM     17  C   UNL     1     -10.759   7.312 129.970  0.00  0.00    +0.000 A 
ATOM     18  C   UNL     1     -12.061   7.580 130.358  0.00  0.00    +0.000 A 
ATOM     19  N   UNL     1     -12.962   8.255 129.596  0.00  0.00    +0.000 NA
ATOM     20  C   UNL     1     -12.550   8.710 128.389  0.00  0.00    +0.000 A 
ATOM     21  C   UNL     1     -11.283   8.528 127.916  0.00  0.00    +0.000 A 
ATOM     22  C   UNL     1     -10.413   7.833 128.729  0.00  0.00    +0.000 A 
ENDBRANCH  16  17
ENDBRANCH   1  16
TORSDOF 9
ENDMDL
MODEL 4
REMARK VINA RESULT:      -5.7      3.542      5.179
REMARK  Name = Risedronic acid
REMARK  9 active torsions:
REMARK  status: ('A' for Active; 'I' for Inactive)
REMARK    1  A    between atoms: O_1  and  C_2
REMARK    2  A    between atoms: C_2  and  C_3
REMARK    3  A    between atoms: C_2  and  P_10
REMARK    4  A    between atoms: C_2  and  P_14
REMARK    5  A    between atoms: C_3  and  C_4
REMARK    6  A    between atoms: P_10  and  O_11
REMARK    7  A    between atoms: P_10  and  O_12
REMARK    8  A    between atoms: P_14  and  O_15
REMARK    9  A    between atoms: P_14  and  O_16
REMARK                            x       y       z     vdW  Elec       q    Type
REMARK                         _______ _______ _______ _____ _____    ______ ____
ROOT
ATOM      1  C   UNL     1      -9.749   5.638 130.651  0.00  0.00    +0.000 C 
ENDROOT
BRANCH   1   2
ATOM      2  O   UNL     1      -9.187   6.952 130.355  0.00  0.00    +0.000 OA
ATOM      3  H   UNL     1      -9.025   6.995 129.393  0.00  0.00    +0.000 HD
ENDBRANCH   1   2
BRANCH   1   4
ATOM      4  P   UNL     1      -8.814   4.355 129.741  0.00  0.00    +0.000 P 
ATOM      5  O   UNL     1      -8.023   3.269 128.971  0.00  0.00    +0.000 OA
BRANCH   4   6
ATOM      6  O   UNL     1     -10.128   3.385 129.732  0.00  0.00    +0.000 OA
ATOM      7  H   UNL     1     -10.443   2.863 128.953  0.00  0.00    +0.000 HD
ENDBRANCH   4   6
BRANCH   4   8
ATOM      8  O   UNL     1      -8.924   5.343 128.436  0.00  0.00    +0.000 OA
ATOM      9  H   UNL     1      -9.052   6.274 128.745  0.00  0.00    +0.000 HD
ENDBRANCH   4   8
ENDBRANCH   1   4
BRANCH   1  10
ATOM     10  P   UNL     1      -9.256   5.325 132.624  0.00  0.00    +0.000 P 
ATOM     11  O   UNL     1      -9.367   4.022 133.283  0.00  0.00    +0.000 OA
BRANCH  10  12
ATOM     12  O   UNL     1      -7.761   5.925 132.799  0.00  0.00    +0.000 OA
ATOM     13  H   UNL     1      -7.794   6.896 133.011  0.00  0.00    +0.000 HD
ENDBRANCH  10  12
BRANCH  10  14
ATOM     14  O   UNL     1     -10.160   6.536 133.221  0.00  0.00    +0.000 OA
ATOM     15  H   UNL     1     -10.030   7.361 132.695  0.00  0.00    +0.000 HD
ENDBRANCH  10  14
ENDBRANCH   1  10
BRANCH   1  16
ATOM     16  C   UNL     1     -11.271   5.643 130.409  0.00  0.00    +0.000 C 
BRANCH  16  17
ATOM     17  C   UNL     1     -11.877   6.869 129.769  0.00  0.00    +0.000 A 
ATOM     18  C   UNL     1     -12.104   6.972 128.406  0.00  0.00    +0.000 A 
ATOM     19  N   UNL     1     -12.693   8.041 127.808  0.00  0.00    +0.000 NA
ATOM     20  C   UNL     1     -13.102   9.059 128.601  0.00  0.00    +0.000 A 
ATOM     21  C   UNL     1     -12.954   9.054 129.958  0.00  0.00    +0.000 A 
ATOM     22  C   UNL     1     -12.346   7.947 130.509  0.00  0.00    +0.000 A 
ENDBRANCH  16  17
ENDBRANCH   1  16
TORSDOF 9
ENDMDL
MODEL 5
REMARK VINA RESULT:      -5.7      3.678      5.442
REMARK  Name = Risedronic acid
REMARK  9 active torsions:
REMARK  status: ('A' for Active; 'I' for Inactive)
REMARK    1  A    between atoms: O_1  and  C_2
REMARK    2  A    between atoms: C_2  and  C_3
REMARK    3  A    between atoms: C_2  and  P_10
REMARK    4  A    between atoms: C_2  and  P_14
REMARK    5  A    between atoms: C_3  and  C_4
REMARK    6  A    between atoms: P_10  and  O_11
REMARK    7  A    between atoms: P_10  and  O_12
REMARK    8  A    between atoms: P_14  and  O_15
REMARK    9  A    between atoms: P_14  and  O_16
REMARK                            x       y       z     vdW  Elec       q    Type
REMARK                         _______ _______ _______ _____ _____    ______ ____
ROOT
ATOM      1  C   UNL     1      -9.989   5.540 130.746  0.00  0.00    +0.000 C 
ENDROOT
BRANCH   1   2
ATOM      2  O   UNL     1     -11.137   5.916 131.565  0.00  0.00    +0.000 OA
ATOM      3  H   UNL     1     -11.771   6.384 130.990  0.00  0.00    +0.000 HD
ENDBRANCH   1   2
BRANCH   1   4
ATOM      4  P   UNL     1      -8.444   5.906 131.655  0.00  0.00    +0.000 P 
ATOM      5  O   UNL     1      -7.136   6.215 132.424  0.00  0.00    +0.000 OA
BRANCH   4   6
ATOM      6  O   UNL     1      -8.158   7.186 130.682  0.00  0.00    +0.000 OA
ATOM      7  H   UNL     1      -8.572   7.327 129.795  0.00  0.00    +0.000 HD
ENDBRANCH   4   6
BRANCH   4   8
ATOM      8  O   UNL     1      -9.405   6.424 132.879  0.00  0.00    +0.000 OA
ATOM      9  H   UNL     1     -10.293   6.664 132.514  0.00  0.00    +0.000 HD
ENDBRANCH   4   8
ENDBRANCH   1   4
BRANCH   1  10
ATOM     10  P   UNL     1     -10.075   3.485 130.692  0.00  0.00    +0.000 P 
ATOM     11  O   UNL     1      -9.129   2.661 129.938  0.00  0.00    +0.000 OA
BRANCH  10  12
ATOM     12  O   UNL     1     -10.133   3.011 132.241  0.00  0.00    +0.000 OA
ATOM     13  H   UNL     1      -9.391   3.419 132.762  0.00  0.00    +0.000 HD
ENDBRANCH  10  12
BRANCH  10  14
ATOM     14  O   UNL     1     -11.641   3.389 130.268  0.00  0.00    +0.000 OA
ATOM     15  H   UNL     1     -11.777   2.683 129.592  0.00  0.00    +0.000 HD
ENDBRANCH  10  14
ENDBRANCH   1  10
BRANCH   1  16
ATOM     16  C   UNL     1     -10.100   6.179 129.348  0.00  0.00    +0.000 C 
BRANCH  16  17
ATOM     17  C   UNL     1     -11.322   7.016 129.053  0.00  0.00    +0.000 A 
ATOM     18  C   UNL     1     -11.314   8.401 129.094  0.00  0.00    +0.000 A 
ATOM     19  N   UNL     1     -12.383   9.181 128.785  0.00  0.00    +0.000 NA
ATOM     20  C   UNL     1     -13.521   8.562 128.392  0.00  0.00    +0.000 A 
ATOM     21  C   UNL     1     -13.636   7.206 128.290  0.00  0.00    +0.000 A 
ATOM     22  C   UNL     1     -12.522   6.465 128.621  0.00  0.00    +0.000 A 
ENDBRANCH  16  17
ENDBRANCH   1  16
TORSDOF 9
ENDMDL
MODEL 6
REMARK VINA RESULT:      -5.5      7.550      8.671
REMARK  Name = Risedronic acid
REMARK  9 active torsions:
REMARK  status: ('A' for Active; 'I' for Inactive)
REMARK    1  A    between atoms: O_1  and  C_2
REMARK    2  A    between atoms: C_2  and  C_3
REMARK    3  A    between atoms: C_2  and  P_10
REMARK    4  A    between atoms: C_2  and  P_14
REMARK    5  A    between atoms: C_3  and  C_4
REMARK    6  A    between atoms: P_10  and  O_11
REMARK    7  A    between atoms: P_10  and  O_12
REMARK    8  A    between atoms: P_14  and  O_15
REMARK    9  A    between atoms: P_14  and  O_16
REMARK                            x       y       z     vdW  Elec       q    Type
REMARK                         _______ _______ _______ _____ _____    ______ ____
ROOT
ATOM      1  C   UNL     1      -9.076   0.438 124.926  0.00  0.00    +0.000 C 
ENDROOT
BRANCH   1   2
ATOM      2  O   UNL     1     -10.201   0.298 125.845  0.00  0.00    +0.000 OA
ATOM      3  H   UNL     1     -10.716  -0.483 125.566  0.00  0.00    +0.000 HD
ENDBRANCH   1   2
BRANCH   1   4
ATOM      4  P   UNL     1      -9.704   0.751 123.236  0.00  0.00    +0.000 P 
ATOM      5  O   UNL     1     -10.235   1.016 121.806  0.00  0.00    +0.000 OA
BRANCH   4   6
ATOM      6  O   UNL     1      -9.862  -0.855 122.982  0.00  0.00    +0.000 OA
ATOM      7  H   UNL     1     -10.381  -1.265 122.247  0.00  0.00    +0.000 HD
ENDBRANCH   4   6
BRANCH   4   8
ATOM      8  O   UNL     1     -11.085   1.272 123.953  0.00  0.00    +0.000 OA
ATOM      9  H   UNL     1     -11.770   0.560 123.892  0.00  0.00    +0.000 HD
ENDBRANCH   4   8
ENDBRANCH   1   4
BRANCH   1  10
ATOM     10  P   UNL     1      -8.204   2.216 125.483  0.00  0.00    +0.000 P 
ATOM     11  O   UNL     1      -6.835   2.588 125.119  0.00  0.00    +0.000 OA
BRANCH  10  12
ATOM     12  O   UNL     1      -9.247   3.372 125.033  0.00  0.00    +0.000 OA
ATOM     13  H   UNL     1      -9.782   3.686 125.810  0.00  0.00    +0.000 HD
ENDBRANCH  10  12
BRANCH  10  14
ATOM     14  O   UNL     1      -8.538   2.083 127.068  0.00  0.00    +0.000 OA
ATOM     15  H   UNL     1      -7.977   2.700 127.596  0.00  0.00    +0.000 HD
ENDBRANCH  10  14
ENDBRANCH   1  10
BRANCH   1  16
ATOM     16  C   UNL     1      -8.122  -0.765 125.064  0.00  0.00    +0.000 C 
BRANCH  16  17
ATOM     17  C   UNL     1      -8.302  -1.671 126.258  0.00  0.00    +0.000 A 
ATOM     18  C   UNL     1      -8.973  -2.881 126.191  0.00  0.00    +0.000 A 
ATOM     19  N   UNL     1      -9.107  -3.740 127.236  0.00  0.00    +0.000 NA
ATOM     20  C   UNL     1      -8.529  -3.397 128.411  0.00  0.00    +0.000 A 
ATOM     21  C   UNL     1      -7.821  -2.243 128.585  0.00  0.00    +0.000 A 
ATOM     22  C   UNL     1      -7.721  -1.408 127.493  0.00  0.00    +0.000 A 
ENDBRANCH  16  17
ENDBRANCH   1  16
TORSDOF 9
ENDMDL
MODEL 7
REMARK VINA RESULT:      -5.4      5.974      7.700
REMARK  Name = Risedronic acid
REMARK  9 active torsions:
REMARK  status: ('A' for Active; 'I' for Inactive)
REMARK    1  A    between atoms: O_1  and  C_2
REMARK    2  A    between atoms: C_2  and  C_3
REMARK    3  A    between atoms: C_2  and  P_10
REMARK    4  A    between atoms: C_2  and  P_14
REMARK    5  A    between atoms: C_3  and  C_4
REMARK    6  A    between atoms: P_10  and  O_11
REMARK    7  A    between atoms: P_10  and  O_12
REMARK    8  A    between atoms: P_14  and  O_15
REMARK    9  A    between atoms: P_14  and  O_16
REMARK                            x       y       z     vdW  Elec       q    Type
REMARK                         _______ _______ _______ _____ _____    ______ ____
ROOT
ATOM      1  C   UNL     1      -8.634   2.070 124.195  0.00  0.00    +0.000 C 
ENDROOT
BRANCH   1   2
ATOM      2  O   UNL     1      -9.426   3.125 124.817  0.00  0.00    +0.000 OA
ATOM      3  H   UNL     1     -10.336   3.056 124.469  0.00  0.00    +0.000 HD
ENDBRANCH   1   2
BRANCH   1   4
ATOM      4  P   UNL     1      -9.726   0.992 123.197  0.00  0.00    +0.000 P 
ATOM      5  O   UNL     1     -10.650   0.081 122.354  0.00  0.00    +0.000 OA
BRANCH   4   6
ATOM      6  O   UNL     1      -9.049  -0.336 123.865  0.00  0.00    +0.000 OA
ATOM      7  H   UNL     1      -8.090  -0.434 124.085  0.00  0.00    +0.000 HD
ENDBRANCH   4   6
BRANCH   4   8
ATOM      8  O   UNL     1     -10.940   1.475 124.189  0.00  0.00    +0.000 OA
ATOM      9  H   UNL     1     -10.729   1.200 125.117  0.00  0.00    +0.000 HD
ENDBRANCH   4   8
ENDBRANCH   1   4
BRANCH   1  10
ATOM     10  P   UNL     1      -7.492   3.066 122.803  0.00  0.00    +0.000 P 
ATOM     11  O   UNL     1      -6.442   2.420 122.014  0.00  0.00    +0.000 OA
BRANCH  10  12
ATOM     12  O   UNL     1      -8.549   3.822 121.834  0.00  0.00    +0.000 OA
ATOM     13  H   UNL     1      -8.229   3.819 120.893  0.00  0.00    +0.000 HD
ENDBRANCH  10  12
BRANCH  10  14
ATOM     14  O   UNL     1      -7.038   4.276 123.788  0.00  0.00    +0.000 OA
ATOM     15  H   UNL     1      -6.095   4.171 124.058  0.00  0.00    +0.000 HD
ENDBRANCH  10  14
ENDBRANCH   1  10
BRANCH   1  16
ATOM     16  C   UNL     1      -7.783   1.345 125.257  0.00  0.00    +0.000 C 
BRANCH  16  17
ATOM     17  C   UNL     1      -7.760   1.924 126.652  0.00  0.00    +0.000 A 
ATOM     18  C   UNL     1      -6.946   2.985 127.013  0.00  0.00    +0.000 A 
ATOM     19  N   UNL     1      -6.940   3.559 128.245  0.00  0.00    +0.000 NA
ATOM     20  C   UNL     1      -7.801   3.072 129.170  0.00  0.00    +0.000 A 
ATOM     21  C   UNL     1      -8.667   2.048 128.918  0.00  0.00    +0.000 A 
ATOM     22  C   UNL     1      -8.626   1.501 127.653  0.00  0.00    +0.000 A 
ENDBRANCH  16  17
ENDBRANCH   1  16
TORSDOF 9
ENDMDL
MODEL 8
REMARK VINA RESULT:      -5.2      4.000      5.435
REMARK  Name = Risedronic acid
REMARK  9 active torsions:
REMARK  status: ('A' for Active; 'I' for Inactive)
REMARK    1  A    between atoms: O_1  and  C_2
REMARK    2  A    between atoms: C_2  and  C_3
REMARK    3  A    between atoms: C_2  and  P_10
REMARK    4  A    between atoms: C_2  and  P_14
REMARK    5  A    between atoms: C_3  and  C_4
REMARK    6  A    between atoms: P_10  and  O_11
REMARK    7  A    between atoms: P_10  and  O_12
REMARK    8  A    between atoms: P_14  and  O_15
REMARK    9  A    between atoms: P_14  and  O_16
REMARK                            x       y       z     vdW  Elec       q    Type
REMARK                         _______ _______ _______ _____ _____    ______ ____
ROOT
ATOM      1  C   UNL     1      -9.095   5.215 131.617  0.00  0.00    +0.000 C 
ENDROOT
BRANCH   1   2
ATOM      2  O   UNL     1      -9.150   6.415 132.445  0.00  0.00    +0.000 OA
ATOM      3  H   UNL     1     -10.072   6.734 132.443  0.00  0.00    +0.000 HD
ENDBRANCH   1   2
BRANCH   1   4
ATOM      4  P   UNL     1      -7.597   5.265 130.566  0.00  0.00    +0.000 P 
ATOM      5  O   UNL     1      -6.330   5.307 129.679  0.00  0.00    +0.000 OA
BRANCH   4   6
ATOM      6  O   UNL     1      -8.457   4.720 129.289  0.00  0.00    +0.000 OA
ATOM      7  H   UNL     1      -9.335   5.074 129.005  0.00  0.00    +0.000 HD
ENDBRANCH   4   6
BRANCH   4   8
ATOM      8  O   UNL     1      -7.750   6.898 130.601  0.00  0.00    +0.000 OA
ATOM      9  H   UNL     1      -8.428   7.145 131.278  0.00  0.00    +0.000 HD
ENDBRANCH   4   8
ENDBRANCH   1   4
BRANCH   1  10
ATOM     10  P   UNL     1      -8.724   3.703 132.962  0.00  0.00    +0.000 P 
ATOM     11  O   UNL     1      -8.561   2.302 132.572  0.00  0.00    +0.000 OA
BRANCH  10  12
ATOM     12  O   UNL     1      -7.453   4.202 133.836  0.00  0.00    +0.000 OA
ATOM     13  H   UNL     1      -7.749   4.558 134.716  0.00  0.00    +0.000 HD
ENDBRANCH  10  12
BRANCH  10  14
ATOM     14  O   UNL     1      -9.957   4.055 133.960  0.00  0.00    +0.000 OA
ATOM     15  H   UNL     1     -10.575   4.699 133.538  0.00  0.00    +0.000 HD
ENDBRANCH  10  14
ENDBRANCH   1  10
BRANCH   1  16
ATOM     16  C   UNL     1     -10.425   5.028 130.860  0.00  0.00    +0.000 C 
BRANCH  16  17
ATOM     17  C   UNL     1     -11.258   6.258 130.589  0.00  0.00    +0.000 A 
ATOM     18  C   UNL     1     -12.239   6.709 131.457  0.00  0.00    +0.000 A 
ATOM     19  N   UNL     1     -12.969   7.839 131.265  0.00  0.00    +0.000 NA
ATOM     20  C   UNL     1     -12.702   8.581 130.164  0.00  0.00    +0.000 A 
ATOM     21  C   UNL     1     -11.740   8.248 129.255  0.00  0.00    +0.000 A 
ATOM     22  C   UNL     1     -11.034   7.090 129.498  0.00  0.00    +0.000 A 
ENDBRANCH  16  17
ENDBRANCH   1  16
TORSDOF 9
ENDMDL
MODEL 9
REMARK VINA RESULT:      -5.2      2.339      3.642
REMARK  Name = Risedronic acid
REMARK  9 active torsions:
REMARK  status: ('A' for Active; 'I' for Inactive)
REMARK    1  A    between atoms: O_1  and  C_2
REMARK    2  A    between atoms: C_2  and  C_3
REMARK    3  A    between atoms: C_2  and  P_10
REMARK    4  A    between atoms: C_2  and  P_14
REMARK    5  A    between atoms: C_3  and  C_4
REMARK    6  A    between atoms: P_10  and  O_11
REMARK    7  A    between atoms: P_10  and  O_12
REMARK    8  A    between atoms: P_14  and  O_15
REMARK    9  A    between atoms: P_14  and  O_16
REMARK                            x       y       z     vdW  Elec       q    Type
REMARK                         _______ _______ _______ _____ _____    ______ ____
ROOT
ATOM      1  C   UNL     1     -10.596   5.671 131.124  0.00  0.00    +0.000 C 
ENDROOT
BRANCH   1   2
ATOM      2  O   UNL     1     -11.960   5.597 131.637  0.00  0.00    +0.000 OA
ATOM      3  H   UNL     1     -12.513   6.191 131.096  0.00  0.00    +0.000 HD
ENDBRANCH   1   2
BRANCH   1   4
ATOM      4  P   UNL     1     -10.020   3.993 130.675  0.00  0.00    +0.000 P 
ATOM      5  O   UNL     1      -9.532   2.574 130.296  0.00  0.00    +0.000 OA
BRANCH   4   6
ATOM      6  O   UNL     1      -9.898   3.598 132.255  0.00  0.00    +0.000 OA
ATOM      7  H   UNL     1     -10.466   2.936 132.720  0.00  0.00    +0.000 HD
ENDBRANCH   4   6
BRANCH   4   8
ATOM      8  O   UNL     1     -11.565   3.695 130.212  0.00  0.00    +0.000 OA
ATOM      9  H   UNL     1     -11.557   3.207 129.351  0.00  0.00    +0.000 HD
ENDBRANCH   4   8
ENDBRANCH   1   4
BRANCH   1  10
ATOM     10  P   UNL     1     -10.801   6.639 129.320  0.00  0.00    +0.000 P 
ATOM     11  O   UNL     1      -9.735   6.705 128.318  0.00  0.00    +0.000 OA
BRANCH  10  12
ATOM     12  O   UNL     1     -12.163   6.054 128.665  0.00  0.00    +0.000 OA
ATOM     13  H   UNL     1     -12.401   6.556 127.840  0.00  0.00    +0.000 HD
ENDBRANCH  10  12
BRANCH  10  14
ATOM     14  O   UNL     1     -11.322   8.048 129.939  0.00  0.00    +0.000 OA
ATOM     15  H   UNL     1     -10.576   8.687 130.030  0.00  0.00    +0.000 HD
ENDBRANCH  10  14
ENDBRANCH   1  10
BRANCH   1  16
ATOM     16  C   UNL     1      -9.695   6.436 132.113  0.00  0.00    +0.000 C 
BRANCH  16  17
ATOM     17  C   UNL     1      -8.203   6.397 131.879  0.00  0.00    +0.000 A 
ATOM     18  C   UNL     1      -7.583   7.099 130.858  0.00  0.00    +0.000 A 
ATOM     19  N   UNL     1      -6.240   7.123 130.653  0.00  0.00    +0.000 NA
ATOM     20  C   UNL     1      -5.459   6.434 131.518  0.00  0.00    +0.000 A 
ATOM     21  C   UNL     1      -5.958   5.729 132.576  0.00  0.00    +0.000 A 
ATOM     22  C   UNL     1      -7.327   5.736 132.731  0.00  0.00    +0.000 A 
ENDBRANCH  16  17
ENDBRANCH   1  16
TORSDOF 9
ENDMDL
