MODEL 1
REMARK VINA RESULT:      -9.7      0.000      0.000
REMARK  Name = Risperidone
REMARK  5 active torsions:
REMARK  status: ('A' for Active; 'I' for Inactive)
REMARK    1  A    between atoms: C_1  and  C_2
REMARK    2  A    between atoms: C_3  and  C_4
REMARK    3  A    between atoms: C_4  and  C_5
REMARK    4  A    between atoms: C_5  and  N_6
REMARK    5  A    between atoms: C_9  and  C_12
REMARK                            x       y       z     vdW  Elec       q    Type
REMARK                         _______ _______ _______ _____ _____    ______ ____
ROOT
ATOM      1  N   UNL     1      -8.391  -0.203 123.655  0.00  0.00    +0.000 NA
ATOM      2  C   UNL     1      -7.108   0.333 123.210  0.00  0.00    +0.000 C 
ATOM      3  C   UNL     1      -6.792   1.642 123.876  0.00  0.00    +0.000 C 
ATOM      4  C   UNL     1      -7.950   2.637 123.724  0.00  0.00    +0.000 C 
ATOM      5  C   UNL     1      -9.233   2.036 124.325  0.00  0.00    +0.000 C 
ATOM      6  C   UNL     1      -9.568   0.702 123.694  0.00  0.00    +0.000 C 
ENDROOT
BRANCH   4   7
ATOM      7  C   UNL     1      -8.136   3.128 122.285  0.00  0.00    +0.000 A 
ATOM      8  N   UNL     1      -9.330   2.973 121.683  0.00  0.00    +0.000 NA
ATOM      9  O   UNL     1      -9.193   3.495 120.398  0.00  0.00    +0.000 OA
ATOM     10  C   UNL     1      -7.928   3.965 120.217  0.00  0.00    +0.000 A 
ATOM     11  C   UNL     1      -7.221   3.763 121.380  0.00  0.00    +0.000 A 
ATOM     12  C   UNL     1      -5.891   4.211 121.353  0.00  0.00    +0.000 A 
ATOM     13  C   UNL     1      -5.271   4.798 120.276  0.00  0.00    +0.000 A 
ATOM     14  C   UNL     1      -6.023   4.970 119.147  0.00  0.00    +0.000 A 
ATOM     15  F   UNL     1      -5.435   5.552 118.096  0.00  0.00    +0.000 F 
ATOM     16  C   UNL     1      -7.367   4.564 119.079  0.00  0.00    +0.000 A 
ENDBRANCH   4   7
BRANCH   1  17
ATOM     17  C   UNL     1      -8.735  -1.430 122.951  0.00  0.00    +0.000 C 
BRANCH  17  18
ATOM     18  C   UNL     1      -8.406  -2.802 123.534  0.00  0.00    +0.000 C 
BRANCH  18  21
ATOM     19  C   UNL     1      -5.157  -2.501 123.906  0.00  0.00    +0.000 C 
ATOM     20  C   UNL     1      -6.255  -2.604 124.949  0.00  0.00    +0.000 A 
ATOM     21  C   UNL     1      -7.592  -2.723 124.795  0.00  0.00    +0.000 A 
ATOM     22  C   UNL     1      -8.426  -2.770 126.038  0.00  0.00    +0.000 A 
ATOM     23  O   UNL     1      -9.665  -2.758 125.960  0.00  0.00    +0.000 OA
ATOM     24  N   UNL     1      -7.749  -2.811 127.235  0.00  0.00    +0.000 N 
ATOM     25  C   UNL     1      -8.540  -2.784 128.460  0.00  0.00    +0.000 C 
ATOM     26  C   UNL     1      -7.756  -3.097 129.725  0.00  0.00    +0.000 C 
ATOM     27  C   UNL     1      -6.431  -2.361 129.735  0.00  0.00    +0.000 C 
ATOM     28  C   UNL     1      -5.623  -2.763 128.528  0.00  0.00    +0.000 C 
ATOM     29  C   UNL     1      -6.389  -2.689 127.237  0.00  0.00    +0.000 A 
ATOM     30  N   UNL     1      -5.669  -2.584 126.179  0.00  0.00    +0.000 NA
ENDBRANCH  18  21
ENDBRANCH  17  18
ENDBRANCH   1  17
TORSDOF 4
ENDMDL
MODEL 2
REMARK VINA RESULT:      -9.6      9.145     11.446
REMARK  Name = Risperidone
REMARK  5 active torsions:
REMARK  status: ('A' for Active; 'I' for Inactive)
REMARK    1  A    between atoms: C_1  and  C_2
REMARK    2  A    between atoms: C_3  and  C_4
REMARK    3  A    between atoms: C_4  and  C_5
REMARK    4  A    between atoms: C_5  and  N_6
REMARK    5  A    between atoms: C_9  and  C_12
REMARK                            x       y       z     vdW  Elec       q    Type
REMARK                         _______ _______ _______ _____ _____    ______ ____
ROOT
ATOM      1  N   UNL     1      -8.083   3.524 133.355  0.00  0.00    +0.000 NA
ATOM      2  C   UNL     1      -7.212   3.120 132.256  0.00  0.00    +0.000 C 
ATOM      3  C   UNL     1      -5.932   2.510 132.755  0.00  0.00    +0.000 C 
ATOM      4  C   UNL     1      -5.239   3.427 133.771  0.00  0.00    +0.000 C 
ATOM      5  C   UNL     1      -6.187   3.704 134.951  0.00  0.00    +0.000 C 
ATOM      6  C   UNL     1      -7.498   4.296 134.481  0.00  0.00    +0.000 C 
ENDROOT
BRANCH   4   7
ATOM      7  C   UNL     1      -4.678   4.706 133.142  0.00  0.00    +0.000 A 
ATOM      8  N   UNL     1      -4.814   5.876 133.790  0.00  0.00    +0.000 NA
ATOM      9  O   UNL     1      -4.225   6.846 132.980  0.00  0.00    +0.000 OA
ATOM     10  C   UNL     1      -3.733   6.272 131.848  0.00  0.00    +0.000 A 
ATOM     11  C   UNL     1      -3.987   4.921 131.903  0.00  0.00    +0.000 A 
ATOM     12  C   UNL     1      -3.523   4.184 130.801  0.00  0.00    +0.000 A 
ATOM     13  C   UNL     1      -2.874   4.708 129.709  0.00  0.00    +0.000 A 
ATOM     14  C   UNL     1      -2.652   6.058 129.710  0.00  0.00    +0.000 A 
ATOM     15  F   UNL     1      -2.011   6.579 128.658  0.00  0.00    +0.000 F 
ATOM     16  C   UNL     1      -3.070   6.880 130.771  0.00  0.00    +0.000 A 
ENDBRANCH   4   7
BRANCH   1  17
ATOM     17  C   UNL     1      -9.286   4.188 132.873  0.00  0.00    +0.000 C 
BRANCH  17  18
ATOM     18  C   UNL     1      -9.477   5.695 133.024  0.00  0.00    +0.000 C 
BRANCH  18  21
ATOM     19  C   UNL     1      -7.193   6.836 130.959  0.00  0.00    +0.000 C 
ATOM     20  C   UNL     1      -8.708   6.873 130.859  0.00  0.00    +0.000 A 
ATOM     21  C   UNL     1      -9.646   6.399 131.707  0.00  0.00    +0.000 A 
ATOM     22  C   UNL     1     -11.081   6.563 131.307  0.00  0.00    +0.000 A 
ATOM     23  O   UNL     1     -11.982   6.044 131.985  0.00  0.00    +0.000 OA
ATOM     24  N   UNL     1     -11.324   7.293 130.167  0.00  0.00    +0.000 N 
ATOM     25  C   UNL     1     -12.708   7.406 129.718  0.00  0.00    +0.000 C 
ATOM     26  C   UNL     1     -12.934   8.433 128.620  0.00  0.00    +0.000 C 
ATOM     27  C   UNL     1     -11.862   8.326 127.553  0.00  0.00    +0.000 C 
ATOM     28  C   UNL     1     -10.508   8.545 128.176  0.00  0.00    +0.000 C 
ATOM     29  C   UNL     1     -10.271   7.719 129.410  0.00  0.00    +0.000 A 
ATOM     30  N   UNL     1      -9.037   7.528 129.711  0.00  0.00    +0.000 NA
ENDBRANCH  18  21
ENDBRANCH  17  18
ENDBRANCH   1  17
TORSDOF 4
ENDMDL
MODEL 3
REMARK VINA RESULT:      -9.5      5.945      7.544
REMARK  Name = Risperidone
REMARK  5 active torsions:
REMARK  status: ('A' for Active; 'I' for Inactive)
REMARK    1  A    between atoms: C_1  and  C_2
REMARK    2  A    between atoms: C_3  and  C_4
REMARK    3  A    between atoms: C_4  and  C_5
REMARK    4  A    between atoms: C_5  and  N_6
REMARK    5  A    between atoms: C_9  and  C_12
REMARK                            x       y       z     vdW  Elec       q    Type
REMARK                         _______ _______ _______ _____ _____    ______ ____
ROOT
ATOM      1  N   UNL     1      -8.486   2.700 129.871  0.00  0.00    +0.000 NA
ATOM      2  C   UNL     1      -7.600   3.718 129.315  0.00  0.00    +0.000 C 
ATOM      3  C   UNL     1      -7.489   4.913 130.219  0.00  0.00    +0.000 C 
ATOM      4  C   UNL     1      -8.875   5.455 130.595  0.00  0.00    +0.000 C 
ATOM      5  C   UNL     1      -9.696   4.349 131.280  0.00  0.00    +0.000 C 
ATOM      6  C   UNL     1      -9.806   3.119 130.406  0.00  0.00    +0.000 C 
ENDROOT
BRANCH   4   7
ATOM      7  C   UNL     1      -9.608   6.102 129.415  0.00  0.00    +0.000 A 
ATOM      8  N   UNL     1      -9.188   5.855 128.161  0.00  0.00    +0.000 NA
ATOM      9  O   UNL     1     -10.027   6.579 127.316  0.00  0.00    +0.000 OA
ATOM     10  C   UNL     1     -10.952   7.259 128.047  0.00  0.00    +0.000 A 
ATOM     11  C   UNL     1     -10.735   6.988 129.378  0.00  0.00    +0.000 A 
ATOM     12  C   UNL     1     -11.626   7.614 130.265  0.00  0.00    +0.000 A 
ATOM     13  C   UNL     1     -12.647   8.460 129.903  0.00  0.00    +0.000 A 
ATOM     14  C   UNL     1     -12.812   8.693 128.566  0.00  0.00    +0.000 A 
ATOM     15  F   UNL     1     -13.810   9.505 128.199  0.00  0.00    +0.000 F 
ATOM     16  C   UNL     1     -11.978   8.105 127.599  0.00  0.00    +0.000 A 
ENDBRANCH   4   7
BRANCH   1  17
ATOM     17  C   UNL     1      -8.656   1.578 128.958  0.00  0.00    +0.000 C 
BRANCH  17  18
ATOM     18  C   UNL     1      -7.516   1.102 128.061  0.00  0.00    +0.000 C 
BRANCH  18  21
ATOM     19  C   UNL     1      -7.590  -1.997 129.145  0.00  0.00    +0.000 C 
ATOM     20  C   UNL     1      -7.869  -1.438 127.762  0.00  0.00    +0.000 A 
ATOM     21  C   UNL     1      -7.843  -0.162 127.318  0.00  0.00    +0.000 A 
ATOM     22  C   UNL     1      -8.203   0.075 125.884  0.00  0.00    +0.000 A 
ATOM     23  O   UNL     1      -8.313   1.233 125.450  0.00  0.00    +0.000 OA
ATOM     24  N   UNL     1      -8.412  -1.041 125.107  0.00  0.00    +0.000 N 
ATOM     25  C   UNL     1      -8.834  -0.835 123.726  0.00  0.00    +0.000 C 
ATOM     26  C   UNL     1      -8.788  -2.083 122.858  0.00  0.00    +0.000 C 
ATOM     27  C   UNL     1      -9.371  -3.273 123.594  0.00  0.00    +0.000 C 
ATOM     28  C   UNL     1      -8.592  -3.512 124.861  0.00  0.00    +0.000 C 
ATOM     29  C   UNL     1      -8.399  -2.274 125.693  0.00  0.00    +0.000 A 
ATOM     30  N   UNL     1      -8.153  -2.484 126.936  0.00  0.00    +0.000 NA
ENDBRANCH  18  21
ENDBRANCH  17  18
ENDBRANCH   1  17
TORSDOF 4
ENDMDL
MODEL 4
REMARK VINA RESULT:      -9.3      8.095     10.555
REMARK  Name = Risperidone
REMARK  5 active torsions:
REMARK  status: ('A' for Active; 'I' for Inactive)
REMARK    1  A    between atoms: C_1  and  C_2
REMARK    2  A    between atoms: C_3  and  C_4
REMARK    3  A    between atoms: C_4  and  C_5
REMARK    4  A    between atoms: C_5  and  N_6
REMARK    5  A    between atoms: C_9  and  C_12
REMARK                            x       y       z     vdW  Elec       q    Type
REMARK                         _______ _______ _______ _____ _____    ______ ____
ROOT
ATOM      1  N   UNL     1      -7.486   3.559 133.022  0.00  0.00    +0.000 NA
ATOM      2  C   UNL     1      -7.320   2.549 131.981  0.00  0.00    +0.000 C 
ATOM      3  C   UNL     1      -5.938   1.962 131.990  0.00  0.00    +0.000 C 
ATOM      4  C   UNL     1      -4.867   3.060 131.943  0.00  0.00    +0.000 C 
ATOM      5  C   UNL     1      -5.045   4.009 133.142  0.00  0.00    +0.000 C 
ATOM      6  C   UNL     1      -6.438   4.600 133.178  0.00  0.00    +0.000 C 
ENDROOT
BRANCH   4   7
ATOM      7  C   UNL     1      -4.818   3.795 130.600  0.00  0.00    +0.000 A 
ATOM      8  N   UNL     1      -5.768   3.553 129.680  0.00  0.00    +0.000 NA
ATOM      9  O   UNL     1      -5.457   4.345 128.575  0.00  0.00    +0.000 OA
ATOM     10  C   UNL     1      -4.328   5.065 128.821  0.00  0.00    +0.000 A 
ATOM     11  C   UNL     1      -3.887   4.759 130.088  0.00  0.00    +0.000 A 
ATOM     12  C   UNL     1      -2.727   5.439 130.494  0.00  0.00    +0.000 A 
ATOM     13  C   UNL     1      -2.024   6.339 129.730  0.00  0.00    +0.000 A 
ATOM     14  C   UNL     1      -2.509   6.601 128.478  0.00  0.00    +0.000 A 
ATOM     15  F   UNL     1      -1.840   7.484 127.729  0.00  0.00    +0.000 F 
ATOM     16  C   UNL     1      -3.669   5.978 127.984  0.00  0.00    +0.000 A 
ENDBRANCH   4   7
BRANCH   1  17
ATOM     17  C   UNL     1      -8.799   4.185 132.961  0.00  0.00    +0.000 C 
BRANCH  17  18
ATOM     18  C   UNL     1      -8.968   5.695 133.110  0.00  0.00    +0.000 C 
BRANCH  18  21
ATOM     19  C   UNL     1      -6.932   6.989 130.882  0.00  0.00    +0.000 C 
ATOM     20  C   UNL     1      -8.448   6.918 130.897  0.00  0.00    +0.000 A 
ATOM     21  C   UNL     1      -9.285   6.381 131.812  0.00  0.00    +0.000 A 
ATOM     22  C   UNL     1     -10.753   6.441 131.520  0.00  0.00    +0.000 A 
ATOM     23  O   UNL     1     -11.561   5.861 132.262  0.00  0.00    +0.000 OA
ATOM     24  N   UNL     1     -11.133   7.148 130.402  0.00  0.00    +0.000 N 
ATOM     25  C   UNL     1     -12.550   7.160 130.059  0.00  0.00    +0.000 C 
ATOM     26  C   UNL     1     -12.931   8.164 128.983  0.00  0.00    +0.000 C 
ATOM     27  C   UNL     1     -11.937   8.130 127.838  0.00  0.00    +0.000 C 
ATOM     28  C   UNL     1     -10.559   8.448 128.359  0.00  0.00    +0.000 C 
ATOM     29  C   UNL     1     -10.172   7.645 129.569  0.00  0.00    +0.000 A 
ATOM     30  N   UNL     1      -8.909   7.543 129.777  0.00  0.00    +0.000 NA
ENDBRANCH  18  21
ENDBRANCH  17  18
ENDBRANCH   1  17
TORSDOF 4
ENDMDL
MODEL 5
REMARK VINA RESULT:      -9.2      5.928      7.565
REMARK  Name = Risperidone
REMARK  5 active torsions:
REMARK  status: ('A' for Active; 'I' for Inactive)
REMARK    1  A    between atoms: C_1  and  C_2
REMARK    2  A    between atoms: C_3  and  C_4
REMARK    3  A    between atoms: C_4  and  C_5
REMARK    4  A    between atoms: C_5  and  N_6
REMARK    5  A    between atoms: C_9  and  C_12
REMARK                            x       y       z     vdW  Elec       q    Type
REMARK                         _______ _______ _______ _____ _____    ______ ____
ROOT
ATOM      1  N   UNL     1      -8.464   2.675 129.963  0.00  0.00    +0.000 NA
ATOM      2  C   UNL     1      -7.575   3.679 129.386  0.00  0.00    +0.000 C 
ATOM      3  C   UNL     1      -7.457   4.891 130.267  0.00  0.00    +0.000 C 
ATOM      4  C   UNL     1      -8.839   5.446 130.635  0.00  0.00    +0.000 C 
ATOM      5  C   UNL     1      -9.664   4.357 131.344  0.00  0.00    +0.000 C 
ATOM      6  C   UNL     1      -9.781   3.110 130.493  0.00  0.00    +0.000 C 
ENDROOT
BRANCH   4   7
ATOM      7  C   UNL     1      -9.572   6.073 129.445  0.00  0.00    +0.000 A 
ATOM      8  N   UNL     1      -9.146   5.813 128.196  0.00  0.00    +0.000 NA
ATOM      9  O   UNL     1      -9.987   6.521 127.338  0.00  0.00    +0.000 OA
ATOM     10  C   UNL     1     -10.919   7.205 128.058  0.00  0.00    +0.000 A 
ATOM     11  C   UNL     1     -10.705   6.952 129.393  0.00  0.00    +0.000 A 
ATOM     12  C   UNL     1     -11.603   7.583 130.269  0.00  0.00    +0.000 A 
ATOM     13  C   UNL     1     -12.628   8.418 129.893  0.00  0.00    +0.000 A 
ATOM     14  C   UNL     1     -12.790   8.633 128.552  0.00  0.00    +0.000 A 
ATOM     15  F   UNL     1     -13.792   9.434 128.171  0.00  0.00    +0.000 F 
ATOM     16  C   UNL     1     -11.948   8.039 127.595  0.00  0.00    +0.000 A 
ENDBRANCH   4   7
BRANCH   1  17
ATOM     17  C   UNL     1      -8.642   1.537 129.072  0.00  0.00    +0.000 C 
BRANCH  17  18
ATOM     18  C   UNL     1      -7.460   0.912 128.335  0.00  0.00    +0.000 C 
BRANCH  18  21
ATOM     19  C   UNL     1      -7.742   2.707 125.600  0.00  0.00    +0.000 C 
ATOM     20  C   UNL     1      -7.925   1.215 125.814  0.00  0.00    +0.000 A 
ATOM     21  C   UNL     1      -7.804   0.477 126.939  0.00  0.00    +0.000 A 
ATOM     22  C   UNL     1      -8.019  -1.001 126.819  0.00  0.00    +0.000 A 
ATOM     23  O   UNL     1      -7.805  -1.744 127.789  0.00  0.00    +0.000 OA
ATOM     24  N   UNL     1      -8.442  -1.466 125.595  0.00  0.00    +0.000 N 
ATOM     25  C   UNL     1      -8.590  -2.908 125.434  0.00  0.00    +0.000 C 
ATOM     26  C   UNL     1      -9.307  -3.331 124.161  0.00  0.00    +0.000 C 
ATOM     27  C   UNL     1      -8.799  -2.545 122.969  0.00  0.00    +0.000 C 
ATOM     28  C   UNL     1      -9.019  -1.073 123.206  0.00  0.00    +0.000 C 
ATOM     29  C   UNL     1      -8.528  -0.598 124.545  0.00  0.00    +0.000 A 
ATOM     30  N   UNL     1      -8.284   0.661 124.622  0.00  0.00    +0.000 NA
ENDBRANCH  18  21
ENDBRANCH  17  18
ENDBRANCH   1  17
TORSDOF 4
ENDMDL
MODEL 6
REMARK VINA RESULT:      -9.1      3.097      5.086
REMARK  Name = Risperidone
REMARK  5 active torsions:
REMARK  status: ('A' for Active; 'I' for Inactive)
REMARK    1  A    between atoms: C_1  and  C_2
REMARK    2  A    between atoms: C_3  and  C_4
REMARK    3  A    between atoms: C_4  and  C_5
REMARK    4  A    between atoms: C_5  and  N_6
REMARK    5  A    between atoms: C_9  and  C_12
REMARK                            x       y       z     vdW  Elec       q    Type
REMARK                         _______ _______ _______ _____ _____    ______ ____
ROOT
ATOM      1  N   UNL     1      -8.084  -3.224 125.738  0.00  0.00    +0.000 NA
ATOM      2  C   UNL     1      -9.429  -3.208 125.170  0.00  0.00    +0.000 C 
ATOM      3  C   UNL     1      -9.406  -3.396 123.680  0.00  0.00    +0.000 C 
ATOM      4  C   UNL     1      -8.453  -2.397 123.009  0.00  0.00    +0.000 C 
ATOM      5  C   UNL     1      -7.036  -2.566 123.584  0.00  0.00    +0.000 C 
ATOM      6  C   UNL     1      -7.027  -2.408 125.089  0.00  0.00    +0.000 C 
ENDROOT
BRANCH   4   7
ATOM      7  C   UNL     1      -8.956  -0.952 123.070  0.00  0.00    +0.000 A 
ATOM      8  N   UNL     1     -10.222  -0.677 122.709  0.00  0.00    +0.000 NA
ATOM      9  O   UNL     1     -10.383   0.700 122.856  0.00  0.00    +0.000 OA
ATOM     10  C   UNL     1      -9.227   1.260 123.305  0.00  0.00    +0.000 A 
ATOM     11  C   UNL     1      -8.295   0.260 123.463  0.00  0.00    +0.000 A 
ATOM     12  C   UNL     1      -7.043   0.683 123.936  0.00  0.00    +0.000 A 
ATOM     13  C   UNL     1      -6.698   1.982 124.224  0.00  0.00    +0.000 A 
ATOM     14  C   UNL     1      -7.665   2.933 124.045  0.00  0.00    +0.000 A 
ATOM     15  F   UNL     1      -7.346   4.200 124.332  0.00  0.00    +0.000 F 
ATOM     16  C   UNL     1      -8.953   2.607 123.584  0.00  0.00    +0.000 A 
ENDBRANCH   4   7
BRANCH   1  17
ATOM     17  C   UNL     1      -8.101  -2.961 127.170  0.00  0.00    +0.000 C 
BRANCH  17  18
ATOM     18  C   UNL     1      -6.996  -2.151 127.844  0.00  0.00    +0.000 C 
BRANCH  18  21
ATOM     19  C   UNL     1      -7.426  -2.991 130.989  0.00  0.00    +0.000 C 
ATOM     20  C   UNL     1      -7.676  -1.669 130.288  0.00  0.00    +0.000 A 
ATOM     21  C   UNL     1      -7.494  -1.323 128.994  0.00  0.00    +0.000 A 
ATOM     22  C   UNL     1      -7.807   0.091 128.609  0.00  0.00    +0.000 A 
ATOM     23  O   UNL     1      -7.547   0.499 127.466  0.00  0.00    +0.000 OA
ATOM     24  N   UNL     1      -8.370   0.885 129.581  0.00  0.00    +0.000 N 
ATOM     25  C   UNL     1      -8.617   2.285 129.252  0.00  0.00    +0.000 C 
ATOM     26  C   UNL     1      -9.474   3.030 130.263  0.00  0.00    +0.000 C 
ATOM     27  C   UNL     1      -9.034   2.715 131.679  0.00  0.00    +0.000 C 
ATOM     28  C   UNL     1      -9.144   1.232 131.922  0.00  0.00    +0.000 C 
ATOM     29  C   UNL     1      -8.502   0.396 130.849  0.00  0.00    +0.000 A 
ATOM     30  N   UNL     1      -8.178  -0.795 131.205  0.00  0.00    +0.000 NA
ENDBRANCH  18  21
ENDBRANCH  17  18
ENDBRANCH   1  17
TORSDOF 4
ENDMDL
MODEL 7
REMARK VINA RESULT:      -9.1      6.719      8.797
REMARK  Name = Risperidone
REMARK  5 active torsions:
REMARK  status: ('A' for Active; 'I' for Inactive)
REMARK    1  A    between atoms: C_1  and  C_2
REMARK    2  A    between atoms: C_3  and  C_4
REMARK    3  A    between atoms: C_4  and  C_5
REMARK    4  A    between atoms: C_5  and  N_6
REMARK    5  A    between atoms: C_9  and  C_12
REMARK                            x       y       z     vdW  Elec       q    Type
REMARK                         _______ _______ _______ _____ _____    ______ ____
ROOT
ATOM      1  N   UNL     1      -8.367   3.428 130.136  0.00  0.00    +0.000 NA
ATOM      2  C   UNL     1      -8.296   4.713 129.445  0.00  0.00    +0.000 C 
ATOM      3  C   UNL     1      -7.773   5.799 130.343  0.00  0.00    +0.000 C 
ATOM      4  C   UNL     1      -8.562   5.861 131.657  0.00  0.00    +0.000 C 
ATOM      5  C   UNL     1      -8.484   4.501 132.374  0.00  0.00    +0.000 C 
ATOM      6  C   UNL     1      -8.980   3.379 131.487  0.00  0.00    +0.000 C 
ENDROOT
BRANCH   4   7
ATOM      7  C   UNL     1      -9.999   6.359 131.474  0.00  0.00    +0.000 A 
ATOM      8  N   UNL     1     -10.932   6.038 132.388  0.00  0.00    +0.000 NA
ATOM      9  O   UNL     1     -12.124   6.613 131.952  0.00  0.00    +0.000 OA
ATOM     10  C   UNL     1     -11.921   7.280 130.783  0.00  0.00    +0.000 A 
ATOM     11  C   UNL     1     -10.595   7.156 130.440  0.00  0.00    +0.000 A 
ATOM     12  C   UNL     1     -10.224   7.808 129.252  0.00  0.00    +0.000 A 
ATOM     13  C   UNL     1     -11.073   8.517 128.436  0.00  0.00    +0.000 A 
ATOM     14  C   UNL     1     -12.380   8.603 128.828  0.00  0.00    +0.000 A 
ATOM     15  F   UNL     1     -13.214   9.301 128.048  0.00  0.00    +0.000 F 
ATOM     16  C   UNL     1     -12.846   7.993 130.006  0.00  0.00    +0.000 A 
ENDBRANCH   4   7
BRANCH   1  17
ATOM     17  C   UNL     1      -8.949   2.395 129.291  0.00  0.00    +0.000 C 
BRANCH  17  18
ATOM     18  C   UNL     1      -8.074   1.385 128.553  0.00  0.00    +0.000 C 
BRANCH  18  21
ATOM     19  C   UNL     1      -5.157   2.808 128.055  0.00  0.00    +0.000 C 
ATOM     20  C   UNL     1      -6.286   2.526 127.081  0.00  0.00    +0.000 A 
ATOM     21  C   UNL     1      -7.484   1.936 127.286  0.00  0.00    +0.000 A 
ATOM     22  C   UNL     1      -8.382   1.772 126.098  0.00  0.00    +0.000 A 
ATOM     23  O   UNL     1      -9.442   1.133 126.199  0.00  0.00    +0.000 OA
ATOM     24  N   UNL     1      -7.961   2.347 124.921  0.00  0.00    +0.000 N 
ATOM     25  C   UNL     1      -8.784   2.139 123.735  0.00  0.00    +0.000 C 
ATOM     26  C   UNL     1      -8.410   3.010 122.546  0.00  0.00    +0.000 C 
ATOM     27  C   UNL     1      -6.906   3.044 122.354  0.00  0.00    +0.000 C 
ATOM     28  C   UNL     1      -6.252   3.583 123.600  0.00  0.00    +0.000 C 
ATOM     29  C   UNL     1      -6.723   2.920 124.864  0.00  0.00    +0.000 A 
ATOM     30  N   UNL     1      -5.919   3.009 125.861  0.00  0.00    +0.000 NA
ENDBRANCH  18  21
ENDBRANCH  17  18
ENDBRANCH   1  17
TORSDOF 4
ENDMDL
MODEL 8
REMARK VINA RESULT:      -9.0      6.623      8.225
REMARK  Name = Risperidone
REMARK  5 active torsions:
REMARK  status: ('A' for Active; 'I' for Inactive)
REMARK    1  A    between atoms: C_1  and  C_2
REMARK    2  A    between atoms: C_3  and  C_4
REMARK    3  A    between atoms: C_4  and  C_5
REMARK    4  A    between atoms: C_5  and  N_6
REMARK    5  A    between atoms: C_9  and  C_12
REMARK                            x       y       z     vdW  Elec       q    Type
REMARK                         _______ _______ _______ _____ _____    ______ ____
ROOT
ATOM      1  N   UNL     1      -7.998   3.726 131.184  0.00  0.00    +0.000 NA
ATOM      2  C   UNL     1      -8.111   4.661 130.069  0.00  0.00    +0.000 C 
ATOM      3  C   UNL     1      -7.856   6.077 130.502  0.00  0.00    +0.000 C 
ATOM      4  C   UNL     1      -8.734   6.457 131.702  0.00  0.00    +0.000 C 
ATOM      5  C   UNL     1      -8.462   5.492 132.869  0.00  0.00    +0.000 C 
ATOM      6  C   UNL     1      -8.684   4.052 132.460  0.00  0.00    +0.000 C 
ENDROOT
BRANCH   4   7
ATOM      7  C   UNL     1     -10.220   6.567 131.349  0.00  0.00    +0.000 A 
ATOM      8  N   UNL     1     -11.143   6.246 132.272  0.00  0.00    +0.000 NA
ATOM      9  O   UNL     1     -12.386   6.430 131.667  0.00  0.00    +0.000 OA
ATOM     10  C   UNL     1     -12.221   6.862 130.387  0.00  0.00    +0.000 A 
ATOM     11  C   UNL     1     -10.873   6.971 130.137  0.00  0.00    +0.000 A 
ATOM     12  C   UNL     1     -10.541   7.421 128.849  0.00  0.00    +0.000 A 
ATOM     13  C   UNL     1     -11.442   7.731 127.858  0.00  0.00    +0.000 A 
ATOM     14  C   UNL     1     -12.768   7.601 128.164  0.00  0.00    +0.000 A 
ATOM     15  F   UNL     1     -13.655   7.910 127.212  0.00  0.00    +0.000 F 
ATOM     16  C   UNL     1     -13.201   7.166 129.429  0.00  0.00    +0.000 A 
ENDBRANCH   4   7
BRANCH   1  17
ATOM     17  C   UNL     1      -8.324   2.365 130.782  0.00  0.00    +0.000 C 
BRANCH  17  18
ATOM     18  C   UNL     1      -7.232   1.350 130.451  0.00  0.00    +0.000 C 
BRANCH  18  21
ATOM     19  C   UNL     1      -7.587   2.205 127.301  0.00  0.00    +0.000 C 
ATOM     20  C   UNL     1      -7.717   0.847 127.966  0.00  0.00    +0.000 A 
ATOM     21  C   UNL     1      -7.566   0.495 129.262  0.00  0.00    +0.000 A 
ATOM     22  C   UNL     1      -7.732  -0.953 129.605  0.00  0.00    +0.000 A 
ATOM     23  O   UNL     1      -7.489  -1.355 130.755  0.00  0.00    +0.000 OA
ATOM     24  N   UNL     1      -8.144  -1.786 128.591  0.00  0.00    +0.000 N 
ATOM     25  C   UNL     1      -8.243  -3.211 128.883  0.00  0.00    +0.000 C 
ATOM     26  C   UNL     1      -8.951  -4.028 127.813  0.00  0.00    +0.000 C 
ATOM     27  C   UNL     1      -8.475  -3.632 126.430  0.00  0.00    +0.000 C 
ATOM     28  C   UNL     1      -8.744  -2.167 126.205  0.00  0.00    +0.000 C 
ATOM     29  C   UNL     1      -8.264  -1.287 127.325  0.00  0.00    +0.000 A 
ATOM     30  N   UNL     1      -8.063  -0.059 127.008  0.00  0.00    +0.000 NA
ENDBRANCH  18  21
ENDBRANCH  17  18
ENDBRANCH   1  17
TORSDOF 4
ENDMDL
MODEL 9
REMARK VINA RESULT:      -9.0      3.648      7.558
REMARK  Name = Risperidone
REMARK  5 active torsions:
REMARK  status: ('A' for Active; 'I' for Inactive)
REMARK    1  A    between atoms: C_1  and  C_2
REMARK    2  A    between atoms: C_3  and  C_4
REMARK    3  A    between atoms: C_4  and  C_5
REMARK    4  A    between atoms: C_5  and  N_6
REMARK    5  A    between atoms: C_9  and  C_12
REMARK                            x       y       z     vdW  Elec       q    Type
REMARK                         _______ _______ _______ _____ _____    ______ ____
ROOT
ATOM      1  N   UNL     1      -8.577  -1.507 122.998  0.00  0.00    +0.000 NA
ATOM      2  C   UNL     1      -7.143  -1.233 122.992  0.00  0.00    +0.000 C 
ATOM      3  C   UNL     1      -6.338  -2.478 123.238  0.00  0.00    +0.000 C 
ATOM      4  C   UNL     1      -6.810  -3.204 124.505  0.00  0.00    +0.000 C 
ATOM      5  C   UNL     1      -8.302  -3.558 124.373  0.00  0.00    +0.000 C 
ATOM      6  C   UNL     1      -9.141  -2.328 124.099  0.00  0.00    +0.000 C 
ENDROOT
BRANCH   4   7
ATOM      7  C   UNL     1      -6.487  -2.439 125.792  0.00  0.00    +0.000 A 
ATOM      8  N   UNL     1      -5.510  -1.515 125.784  0.00  0.00    +0.000 NA
ATOM      9  O   UNL     1      -5.440  -1.005 127.079  0.00  0.00    +0.000 OA
ATOM     10  C   UNL     1      -6.367  -1.611 127.870  0.00  0.00    +0.000 A 
ATOM     11  C   UNL     1      -7.060  -2.521 127.105  0.00  0.00    +0.000 A 
ATOM     12  C   UNL     1      -8.068  -3.223 127.784  0.00  0.00    +0.000 A 
ATOM     13  C   UNL     1      -8.382  -3.078 129.114  0.00  0.00    +0.000 A 
ATOM     14  C   UNL     1      -7.658  -2.160 129.824  0.00  0.00    +0.000 A 
ATOM     15  F   UNL     1      -7.962  -2.000 131.116  0.00  0.00    +0.000 F 
ATOM     16  C   UNL     1      -6.634  -1.400 129.231  0.00  0.00    +0.000 A 
ENDBRANCH   4   7
BRANCH   1  17
ATOM     17  C   UNL     1      -9.358  -0.288 122.841  0.00  0.00    +0.000 C 
BRANCH  17  18
ATOM     18  C   UNL     1      -9.588   0.666 124.011  0.00  0.00    +0.000 C 
BRANCH  18  21
ATOM     19  C   UNL     1      -8.652   3.064 121.972  0.00  0.00    +0.000 C 
ATOM     20  C   UNL     1      -8.099   2.661 123.327  0.00  0.00    +0.000 A 
ATOM     21  C   UNL     1      -8.488   1.678 124.167  0.00  0.00    +0.000 A 
ATOM     22  C   UNL     1      -7.753   1.551 125.466  0.00  0.00    +0.000 A 
ATOM     23  O   UNL     1      -8.141   0.746 126.328  0.00  0.00    +0.000 OA
ATOM     24  N   UNL     1      -6.661   2.370 125.640  0.00  0.00    +0.000 N 
ATOM     25  C   UNL     1      -5.973   2.316 126.925  0.00  0.00    +0.000 C 
ATOM     26  C   UNL     1      -4.636   3.039 126.956  0.00  0.00    +0.000 C 
ATOM     27  C   UNL     1      -4.738   4.391 126.277  0.00  0.00    +0.000 C 
ATOM     28  C   UNL     1      -5.176   4.204 124.848  0.00  0.00    +0.000 C 
ATOM     29  C   UNL     1      -6.381   3.317 124.698  0.00  0.00    +0.000 A 
ATOM     30  N   UNL     1      -7.045   3.477 123.610  0.00  0.00    +0.000 NA
ENDBRANCH  18  21
ENDBRANCH  17  18
ENDBRANCH   1  17
TORSDOF 4
ENDMDL
