MODEL 1
REMARK VINA RESULT:      -4.6      0.000      0.000
REMARK  Name = Ritiometan
REMARK  12 active torsions:
REMARK  status: ('A' for Active; 'I' for Inactive)
REMARK    1  A    between atoms: O_1  and  C_2
REMARK    2  A    between atoms: C_2  and  C_4
REMARK    3  A    between atoms: C_4  and  S_5
REMARK    4  A    between atoms: S_5  and  C_6
REMARK    5  A    between atoms: C_6  and  S_7
REMARK    6  A    between atoms: C_6  and  S_12
REMARK    7  A    between atoms: S_7  and  C_8
REMARK    8  A    between atoms: C_8  and  C_9
REMARK    9  A    between atoms: C_9  and  O_10
REMARK   10  A    between atoms: S_12  and  C_13
REMARK   11  A    between atoms: C_13  and  C_14
REMARK   12  A    between atoms: C_14  and  O_15
REMARK                            x       y       z     vdW  Elec       q    Type
REMARK                         _______ _______ _______ _____ _____    ______ ____
ROOT
ATOM      1  C   UNL     1      -8.532   0.836 125.559  0.00  0.00    +0.000 C 
ENDROOT
BRANCH   1   2
ATOM      2  S   UNL     1      -7.809  -0.837 125.892  0.00  0.00    +0.000 S 
BRANCH   2   3
ATOM      3  C   UNL     1      -9.146  -2.061 125.659  0.00  0.00    +0.000 C 
BRANCH   3   4
ATOM      4  C   UNL     1      -8.871  -2.959 124.461  0.00  0.00    +0.000 C 
ATOM      5  O   UNL     1      -7.789  -3.454 124.171  0.00  0.00    +0.000 OA
BRANCH   4   6
ATOM      6  O   UNL     1      -9.979  -3.245 123.730  0.00  0.00    +0.000 OA
ATOM      7  H   UNL     1      -9.936  -3.122 122.763  0.00  0.00    +0.000 HD
ENDBRANCH   4   6
ENDBRANCH   3   4
ENDBRANCH   2   3
ENDBRANCH   1   2
BRANCH   1   8
ATOM      8  S   UNL     1      -7.861   2.167 126.632  0.00  0.00    +0.000 S 
BRANCH   8   9
ATOM      9  C   UNL     1      -7.065   3.298 125.449  0.00  0.00    +0.000 C 
BRANCH   9  10
ATOM     10  C   UNL     1      -7.709   4.661 125.376  0.00  0.00    +0.000 C 
ATOM     11  O   UNL     1      -8.883   4.834 125.681  0.00  0.00    +0.000 OA
BRANCH  10  12
ATOM     12  O   UNL     1      -6.892   5.674 125.031  0.00  0.00    +0.000 OA
ATOM     13  H   UNL     1      -6.065   5.342 124.618  0.00  0.00    +0.000 HD
ENDBRANCH  10  12
ENDBRANCH   9  10
ENDBRANCH   8   9
ENDBRANCH   1   8
BRANCH   1  14
ATOM     14  S   UNL     1      -7.882   1.159 123.793  0.00  0.00    +0.000 S 
BRANCH  14  15
ATOM     15  C   UNL     1      -9.362   1.692 122.856  0.00  0.00    +0.000 C 
BRANCH  15  16
ATOM     16  C   UNL     1     -10.392   0.570 122.725  0.00  0.00    +0.000 C 
ATOM     17  O   UNL     1     -10.089  -0.558 122.357  0.00  0.00    +0.000 OA
BRANCH  16  18
ATOM     18  O   UNL     1     -11.670   0.882 123.042  0.00  0.00    +0.000 OA
ATOM     19  H   UNL     1     -12.267   0.105 122.979  0.00  0.00    +0.000 HD
ENDBRANCH  16  18
ENDBRANCH  15  16
ENDBRANCH  14  15
ENDBRANCH   1  14
TORSDOF 12
ENDMDL
MODEL 2
REMARK VINA RESULT:      -4.5      0.886      3.388
REMARK  Name = Ritiometan
REMARK  12 active torsions:
REMARK  status: ('A' for Active; 'I' for Inactive)
REMARK    1  A    between atoms: O_1  and  C_2
REMARK    2  A    between atoms: C_2  and  C_4
REMARK    3  A    between atoms: C_4  and  S_5
REMARK    4  A    between atoms: S_5  and  C_6
REMARK    5  A    between atoms: C_6  and  S_7
REMARK    6  A    between atoms: C_6  and  S_12
REMARK    7  A    between atoms: S_7  and  C_8
REMARK    8  A    between atoms: C_8  and  C_9
REMARK    9  A    between atoms: C_9  and  O_10
REMARK   10  A    between atoms: S_12  and  C_13
REMARK   11  A    between atoms: C_13  and  C_14
REMARK   12  A    between atoms: C_14  and  O_15
REMARK                            x       y       z     vdW  Elec       q    Type
REMARK                         _______ _______ _______ _____ _____    ______ ____
ROOT
ATOM      1  C   UNL     1      -7.048   0.672 125.143  0.00  0.00    +0.000 C 
ENDROOT
BRANCH   1   2
ATOM      2  S   UNL     1      -7.436   0.824 123.339  0.00  0.00    +0.000 S 
BRANCH   2   3
ATOM      3  C   UNL     1      -8.877   1.938 123.187  0.00  0.00    +0.000 C 
BRANCH   3   4
ATOM      4  C   UNL     1     -10.186   1.162 123.250  0.00  0.00    +0.000 C 
ATOM      5  O   UNL     1     -11.002   1.211 124.161  0.00  0.00    +0.000 OA
BRANCH   4   6
ATOM      6  O   UNL     1     -10.433   0.421 122.140  0.00  0.00    +0.000 OA
ATOM      7  H   UNL     1     -10.097  -0.494 122.114  0.00  0.00    +0.000 HD
ENDBRANCH   4   6
ENDBRANCH   3   4
ENDBRANCH   2   3
ENDBRANCH   1   2
BRANCH   1   8
ATOM      8  S   UNL     1      -7.782   1.998 126.181  0.00  0.00    +0.000 S 
BRANCH   8   9
ATOM      9  C   UNL     1      -6.760   3.451 125.788  0.00  0.00    +0.000 C 
BRANCH   9  10
ATOM     10  C   UNL     1      -7.557   4.689 125.453  0.00  0.00    +0.000 C 
ATOM     11  O   UNL     1      -8.773   4.728 125.599  0.00  0.00    +0.000 OA
BRANCH  10  12
ATOM     12  O   UNL     1      -6.838   5.759 125.065  0.00  0.00    +0.000 OA
ATOM     13  H   UNL     1      -6.022   5.487 124.590  0.00  0.00    +0.000 HD
ENDBRANCH  10  12
ENDBRANCH   9  10
ENDBRANCH   8   9
ENDBRANCH   1   8
BRANCH   1  14
ATOM     14  S   UNL     1      -7.969  -0.947 125.569  0.00  0.00    +0.000 S 
BRANCH  14  15
ATOM     15  C   UNL     1      -8.228  -1.761 123.950  0.00  0.00    +0.000 C 
BRANCH  15  16
ATOM     16  C   UNL     1      -8.896  -3.128 124.096  0.00  0.00    +0.000 C 
ATOM     17  O   UNL     1      -8.399  -4.032 124.757  0.00  0.00    +0.000 OA
BRANCH  16  18
ATOM     18  O   UNL     1     -10.077  -3.296 123.459  0.00  0.00    +0.000 OA
ATOM     19  H   UNL     1     -10.814  -3.466 124.085  0.00  0.00    +0.000 HD
ENDBRANCH  16  18
ENDBRANCH  15  16
ENDBRANCH  14  15
ENDBRANCH   1  14
TORSDOF 12
ENDMDL
MODEL 3
REMARK VINA RESULT:      -4.4      0.856      5.215
REMARK  Name = Ritiometan
REMARK  12 active torsions:
REMARK  status: ('A' for Active; 'I' for Inactive)
REMARK    1  A    between atoms: O_1  and  C_2
REMARK    2  A    between atoms: C_2  and  C_4
REMARK    3  A    between atoms: C_4  and  S_5
REMARK    4  A    between atoms: S_5  and  C_6
REMARK    5  A    between atoms: C_6  and  S_7
REMARK    6  A    between atoms: C_6  and  S_12
REMARK    7  A    between atoms: S_7  and  C_8
REMARK    8  A    between atoms: C_8  and  C_9
REMARK    9  A    between atoms: C_9  and  O_10
REMARK   10  A    between atoms: S_12  and  C_13
REMARK   11  A    between atoms: C_13  and  C_14
REMARK   12  A    between atoms: C_14  and  O_15
REMARK                            x       y       z     vdW  Elec       q    Type
REMARK                         _______ _______ _______ _____ _____    ______ ____
ROOT
ATOM      1  C   UNL     1      -7.685   1.127 125.293  0.00  0.00    +0.000 C 
ENDROOT
BRANCH   1   2
ATOM      2  S   UNL     1      -6.273   1.978 126.135  0.00  0.00    +0.000 S 
BRANCH   2   3
ATOM      3  C   UNL     1      -6.842   3.656 126.584  0.00  0.00    +0.000 C 
BRANCH   3   4
ATOM      4  C   UNL     1      -7.655   4.284 125.460  0.00  0.00    +0.000 C 
ATOM      5  O   UNL     1      -8.859   4.508 125.488  0.00  0.00    +0.000 OA
BRANCH   4   6
ATOM      6  O   UNL     1      -6.907   4.659 124.391  0.00  0.00    +0.000 OA
ATOM      7  H   UNL     1      -7.014   4.162 123.559  0.00  0.00    +0.000 HD
ENDBRANCH   4   6
ENDBRANCH   3   4
ENDBRANCH   2   3
ENDBRANCH   1   2
BRANCH   1   8
ATOM      8  S   UNL     1      -7.556   1.097 123.461  0.00  0.00    +0.000 S 
BRANCH   8   9
ATOM      9  C   UNL     1      -9.084   1.922 122.919  0.00  0.00    +0.000 C 
BRANCH   9  10
ATOM     10  C   UNL     1     -10.327   1.083 123.087  0.00  0.00    +0.000 C 
ATOM     11  O   UNL     1     -10.563   0.129 122.354  0.00  0.00    +0.000 OA
BRANCH  10  12
ATOM     12  O   UNL     1     -11.110   1.402 124.135  0.00  0.00    +0.000 OA
ATOM     13  H   UNL     1     -11.223   0.638 124.742  0.00  0.00    +0.000 HD
ENDBRANCH  10  12
ENDBRANCH   9  10
ENDBRANCH   8   9
ENDBRANCH   1   8
BRANCH   1  14
ATOM     14  S   UNL     1      -7.433  -0.666 125.901  0.00  0.00    +0.000 S 
BRANCH  14  15
ATOM     15  C   UNL     1      -9.012  -1.506 125.505  0.00  0.00    +0.000 C 
BRANCH  15  16
ATOM     16  C   UNL     1      -8.862  -2.490 124.346  0.00  0.00    +0.000 C 
ATOM     17  O   UNL     1      -7.942  -3.297 124.287  0.00  0.00    +0.000 OA
BRANCH  16  18
ATOM     18  O   UNL     1      -9.805  -2.432 123.378  0.00  0.00    +0.000 OA
ATOM     19  H   UNL     1     -10.235  -1.550 123.334  0.00  0.00    +0.000 HD
ENDBRANCH  16  18
ENDBRANCH  15  16
ENDBRANCH  14  15
ENDBRANCH   1  14
TORSDOF 12
ENDMDL
MODEL 4
REMARK VINA RESULT:      -4.4      2.192      5.092
REMARK  Name = Ritiometan
REMARK  12 active torsions:
REMARK  status: ('A' for Active; 'I' for Inactive)
REMARK    1  A    between atoms: O_1  and  C_2
REMARK    2  A    between atoms: C_2  and  C_4
REMARK    3  A    between atoms: C_4  and  S_5
REMARK    4  A    between atoms: S_5  and  C_6
REMARK    5  A    between atoms: C_6  and  S_7
REMARK    6  A    between atoms: C_6  and  S_12
REMARK    7  A    between atoms: S_7  and  C_8
REMARK    8  A    between atoms: C_8  and  C_9
REMARK    9  A    between atoms: C_9  and  O_10
REMARK   10  A    between atoms: S_12  and  C_13
REMARK   11  A    between atoms: C_13  and  C_14
REMARK   12  A    between atoms: C_14  and  O_15
REMARK                            x       y       z     vdW  Elec       q    Type
REMARK                         _______ _______ _______ _____ _____    ______ ____
ROOT
ATOM      1  C   UNL     1      -8.831   2.406 124.642  0.00  0.00    +0.000 C 
ENDROOT
BRANCH   1   2
ATOM      2  S   UNL     1      -7.304   2.434 125.690  0.00  0.00    +0.000 S 
BRANCH   2   3
ATOM      3  C   UNL     1      -7.352   3.971 126.677  0.00  0.00    +0.000 C 
BRANCH   3   4
ATOM      4  C   UNL     1      -7.878   5.140 125.855  0.00  0.00    +0.000 C 
ATOM      5  O   UNL     1      -8.994   5.636 125.949  0.00  0.00    +0.000 OA
BRANCH   4   6
ATOM      6  O   UNL     1      -6.956   5.669 125.010  0.00  0.00    +0.000 OA
ATOM      7  H   UNL     1      -7.260   6.316 124.346  0.00  0.00    +0.000 HD
ENDBRANCH   4   6
ENDBRANCH   3   4
ENDBRANCH   2   3
ENDBRANCH   1   2
BRANCH   1   8
ATOM      8  S   UNL     1      -8.519   2.702 122.857  0.00  0.00    +0.000 S 
BRANCH   8   9
ATOM      9  C   UNL     1      -6.704   2.657 122.735  0.00  0.00    +0.000 C 
BRANCH   9  10
ATOM     10  C   UNL     1      -6.101   3.887 122.101  0.00  0.00    +0.000 C 
ATOM     11  O   UNL     1      -5.384   4.652 122.736  0.00  0.00    +0.000 OA
BRANCH  10  12
ATOM     12  O   UNL     1      -6.339   4.041 120.785  0.00  0.00    +0.000 OA
ATOM     13  H   UNL     1      -5.709   4.676 120.380  0.00  0.00    +0.000 HD
ENDBRANCH  10  12
ENDBRANCH   9  10
ENDBRANCH   8   9
ENDBRANCH   1   8
BRANCH   1  14
ATOM     14  S   UNL     1      -9.352   0.577 124.823  0.00  0.00    +0.000 S 
BRANCH  14  15
ATOM     15  C   UNL     1      -9.307  -0.079 123.114  0.00  0.00    +0.000 C 
BRANCH  15  16
ATOM     16  C   UNL     1      -8.948  -1.564 123.080  0.00  0.00    +0.000 C 
ATOM     17  O   UNL     1      -8.021  -1.998 122.407  0.00  0.00    +0.000 OA
BRANCH  16  18
ATOM     18  O   UNL     1      -9.707  -2.387 123.838  0.00  0.00    +0.000 OA
ATOM     19  H   UNL     1      -9.214  -3.189 124.120  0.00  0.00    +0.000 HD
ENDBRANCH  16  18
ENDBRANCH  15  16
ENDBRANCH  14  15
ENDBRANCH   1  14
TORSDOF 12
ENDMDL
MODEL 5
REMARK VINA RESULT:      -4.4      0.944      5.660
REMARK  Name = Ritiometan
REMARK  12 active torsions:
REMARK  status: ('A' for Active; 'I' for Inactive)
REMARK    1  A    between atoms: O_1  and  C_2
REMARK    2  A    between atoms: C_2  and  C_4
REMARK    3  A    between atoms: C_4  and  S_5
REMARK    4  A    between atoms: S_5  and  C_6
REMARK    5  A    between atoms: C_6  and  S_7
REMARK    6  A    between atoms: C_6  and  S_12
REMARK    7  A    between atoms: S_7  and  C_8
REMARK    8  A    between atoms: C_8  and  C_9
REMARK    9  A    between atoms: C_9  and  O_10
REMARK   10  A    between atoms: S_12  and  C_13
REMARK   11  A    between atoms: C_13  and  C_14
REMARK   12  A    between atoms: C_14  and  O_15
REMARK                            x       y       z     vdW  Elec       q    Type
REMARK                         _______ _______ _______ _____ _____    ______ ____
ROOT
ATOM      1  C   UNL     1      -6.932   0.261 125.258  0.00  0.00    +0.000 C 
ENDROOT
BRANCH   1   2
ATOM      2  S   UNL     1      -8.146   1.495 125.916  0.00  0.00    +0.000 S 
BRANCH   2   3
ATOM      3  C   UNL     1      -7.244   3.064 126.165  0.00  0.00    +0.000 C 
BRANCH   3   4
ATOM      4  C   UNL     1      -8.072   4.257 125.710  0.00  0.00    +0.000 C 
ATOM      5  O   UNL     1      -8.526   5.132 126.437  0.00  0.00    +0.000 OA
BRANCH   4   6
ATOM      6  O   UNL     1      -8.229   4.329 124.363  0.00  0.00    +0.000 OA
ATOM      7  H   UNL     1      -9.086   4.057 123.986  0.00  0.00    +0.000 HD
ENDBRANCH   4   6
ENDBRANCH   3   4
ENDBRANCH   2   3
ENDBRANCH   1   2
BRANCH   1   8
ATOM      8  S   UNL     1      -7.125  -1.425 125.959  0.00  0.00    +0.000 S 
BRANCH   8   9
ATOM      9  C   UNL     1      -8.836  -1.867 125.523  0.00  0.00    +0.000 C 
BRANCH   9  10
ATOM     10  C   UNL     1      -8.956  -3.148 124.733  0.00  0.00    +0.000 C 
ATOM     11  O   UNL     1      -8.197  -4.092 124.920  0.00  0.00    +0.000 OA
BRANCH  10  12
ATOM     12  O   UNL     1      -9.993  -3.210 123.876  0.00  0.00    +0.000 OA
ATOM     13  H   UNL     1     -10.209  -4.139 123.644  0.00  0.00    +0.000 HD
ENDBRANCH  10  12
ENDBRANCH   9  10
ENDBRANCH   8   9
ENDBRANCH   1   8
BRANCH   1  14
ATOM     14  S   UNL     1      -7.471   0.172 123.428  0.00  0.00    +0.000 S 
BRANCH  14  15
ATOM     15  C   UNL     1      -9.014   1.156 123.362  0.00  0.00    +0.000 C 
BRANCH  15  16
ATOM     16  C   UNL     1     -10.194   0.337 122.839  0.00  0.00    +0.000 C 
ATOM     17  O   UNL     1     -10.049  -0.765 122.323  0.00  0.00    +0.000 OA
BRANCH  16  18
ATOM     18  O   UNL     1     -11.422   0.888 122.979  0.00  0.00    +0.000 OA
ATOM     19  H   UNL     1     -11.536   1.318 123.855  0.00  0.00    +0.000 HD
ENDBRANCH  16  18
ENDBRANCH  15  16
ENDBRANCH  14  15
ENDBRANCH   1  14
TORSDOF 12
ENDMDL
MODEL 6
REMARK VINA RESULT:      -4.4      1.489      4.668
REMARK  Name = Ritiometan
REMARK  12 active torsions:
REMARK  status: ('A' for Active; 'I' for Inactive)
REMARK    1  A    between atoms: O_1  and  C_2
REMARK    2  A    between atoms: C_2  and  C_4
REMARK    3  A    between atoms: C_4  and  S_5
REMARK    4  A    between atoms: S_5  and  C_6
REMARK    5  A    between atoms: C_6  and  S_7
REMARK    6  A    between atoms: C_6  and  S_12
REMARK    7  A    between atoms: S_7  and  C_8
REMARK    8  A    between atoms: C_8  and  C_9
REMARK    9  A    between atoms: C_9  and  O_10
REMARK   10  A    between atoms: S_12  and  C_13
REMARK   11  A    between atoms: C_13  and  C_14
REMARK   12  A    between atoms: C_14  and  O_15
REMARK                            x       y       z     vdW  Elec       q    Type
REMARK                         _______ _______ _______ _____ _____    ______ ____
ROOT
ATOM      1  C   UNL     1      -7.443   1.433 124.880  0.00  0.00    +0.000 C 
ENDROOT
BRANCH   1   2
ATOM      2  S   UNL     1      -8.242   0.281 126.090  0.00  0.00    +0.000 S 
BRANCH   2   3
ATOM      3  C   UNL     1      -7.790  -1.420 125.598  0.00  0.00    +0.000 C 
BRANCH   3   4
ATOM      4  C   UNL     1      -9.027  -2.261 125.312  0.00  0.00    +0.000 C 
ATOM      5  O   UNL     1      -9.592  -2.996 126.111  0.00  0.00    +0.000 OA
BRANCH   4   6
ATOM      6  O   UNL     1      -9.529  -2.082 124.063  0.00  0.00    +0.000 OA
ATOM      7  H   UNL     1     -10.351  -1.566 123.968  0.00  0.00    +0.000 HD
ENDBRANCH   4   6
ENDBRANCH   3   4
ENDBRANCH   2   3
ENDBRANCH   1   2
BRANCH   1   8
ATOM      8  S   UNL     1      -8.549   2.769 124.278  0.00  0.00    +0.000 S 
BRANCH   8   9
ATOM      9  C   UNL     1      -9.270   2.066 122.762  0.00  0.00    +0.000 C 
BRANCH   9  10
ATOM     10  C   UNL     1     -10.401   1.099 123.013  0.00  0.00    +0.000 C 
ATOM     11  O   UNL     1     -10.547   0.090 122.332  0.00  0.00    +0.000 OA
BRANCH  10  12
ATOM     12  O   UNL     1     -11.183   1.378 124.073  0.00  0.00    +0.000 OA
ATOM     13  H   UNL     1     -11.485   0.557 124.520  0.00  0.00    +0.000 HD
ENDBRANCH  10  12
ENDBRANCH   9  10
ENDBRANCH   8   9
ENDBRANCH   1   8
BRANCH   1  14
ATOM     14  S   UNL     1      -6.123   2.255 125.989  0.00  0.00    +0.000 S 
BRANCH  14  15
ATOM     15  C   UNL     1      -5.480   3.639 124.978  0.00  0.00    +0.000 C 
BRANCH  15  16
ATOM     16  C   UNL     1      -5.747   4.997 125.628  0.00  0.00    +0.000 C 
ATOM     17  O   UNL     1      -5.229   5.328 126.688  0.00  0.00    +0.000 OA
BRANCH  16  18
ATOM     18  O   UNL     1      -6.589   5.827 124.971  0.00  0.00    +0.000 OA
ATOM     19  H   UNL     1      -7.263   6.218 125.568  0.00  0.00    +0.000 HD
ENDBRANCH  16  18
ENDBRANCH  15  16
ENDBRANCH  14  15
ENDBRANCH   1  14
TORSDOF 12
ENDMDL
MODEL 7
REMARK VINA RESULT:      -4.3      2.296      4.223
REMARK  Name = Ritiometan
REMARK  12 active torsions:
REMARK  status: ('A' for Active; 'I' for Inactive)
REMARK    1  A    between atoms: O_1  and  C_2
REMARK    2  A    between atoms: C_2  and  C_4
REMARK    3  A    between atoms: C_4  and  S_5
REMARK    4  A    between atoms: S_5  and  C_6
REMARK    5  A    between atoms: C_6  and  S_7
REMARK    6  A    between atoms: C_6  and  S_12
REMARK    7  A    between atoms: S_7  and  C_8
REMARK    8  A    between atoms: C_8  and  C_9
REMARK    9  A    between atoms: C_9  and  O_10
REMARK   10  A    between atoms: S_12  and  C_13
REMARK   11  A    between atoms: C_13  and  C_14
REMARK   12  A    between atoms: C_14  and  O_15
REMARK                            x       y       z     vdW  Elec       q    Type
REMARK                         _______ _______ _______ _____ _____    ______ ____
ROOT
ATOM      1  C   UNL     1      -6.213  -1.139 124.819  0.00  0.00    +0.000 C 
ENDROOT
BRANCH   1   2
ATOM      2  S   UNL     1      -7.189  -2.307 125.874  0.00  0.00    +0.000 S 
BRANCH   2   3
ATOM      3  C   UNL     1      -7.919  -3.560 124.762  0.00  0.00    +0.000 C 
BRANCH   3   4
ATOM      4  C   UNL     1      -9.383  -3.257 124.473  0.00  0.00    +0.000 C 
ATOM      5  O   UNL     1      -9.934  -3.366 123.384  0.00  0.00    +0.000 OA
BRANCH   4   6
ATOM      6  O   UNL     1     -10.093  -2.901 125.574  0.00  0.00    +0.000 OA
ATOM      7  H   UNL     1      -9.978  -3.430 126.385  0.00  0.00    +0.000 HD
ENDBRANCH   4   6
ENDBRANCH   3   4
ENDBRANCH   2   3
ENDBRANCH   1   2
BRANCH   1   8
ATOM      8  S   UNL     1      -6.947  -0.836 123.163  0.00  0.00    +0.000 S 
BRANCH   8   9
ATOM      9  C   UNL     1      -8.010   0.617 123.434  0.00  0.00    +0.000 C 
BRANCH   9  10
ATOM     10  C   UNL     1      -9.479   0.290 123.545  0.00  0.00    +0.000 C 
ATOM     11  O   UNL     1     -10.174   0.749 124.443  0.00  0.00    +0.000 OA
BRANCH  10  12
ATOM     12  O   UNL     1      -9.984  -0.469 122.553  0.00  0.00    +0.000 OA
ATOM     13  H   UNL     1     -10.190  -1.376 122.867  0.00  0.00    +0.000 HD
ENDBRANCH  10  12
ENDBRANCH   9  10
ENDBRANCH   8   9
ENDBRANCH   1   8
BRANCH   1  14
ATOM     14  S   UNL     1      -6.397   0.479 125.817  0.00  0.00    +0.000 S 
BRANCH  14  15
ATOM     15  C   UNL     1      -7.708   0.111 127.041  0.00  0.00    +0.000 C 
BRANCH  15  16
ATOM     16  C   UNL     1      -8.423   1.376 127.513  0.00  0.00    +0.000 C 
ATOM     17  O   UNL     1      -8.666   1.590 128.695  0.00  0.00    +0.000 OA
BRANCH  16  18
ATOM     18  O   UNL     1      -8.778   2.263 126.555  0.00  0.00    +0.000 OA
ATOM     19  H   UNL     1      -8.021   2.819 126.268  0.00  0.00    +0.000 HD
ENDBRANCH  16  18
ENDBRANCH  15  16
ENDBRANCH  14  15
ENDBRANCH   1  14
TORSDOF 12
ENDMDL
MODEL 8
REMARK VINA RESULT:      -4.3      1.528      5.566
REMARK  Name = Ritiometan
REMARK  12 active torsions:
REMARK  status: ('A' for Active; 'I' for Inactive)
REMARK    1  A    between atoms: O_1  and  C_2
REMARK    2  A    between atoms: C_2  and  C_4
REMARK    3  A    between atoms: C_4  and  S_5
REMARK    4  A    between atoms: S_5  and  C_6
REMARK    5  A    between atoms: C_6  and  S_7
REMARK    6  A    between atoms: C_6  and  S_12
REMARK    7  A    between atoms: S_7  and  C_8
REMARK    8  A    between atoms: C_8  and  C_9
REMARK    9  A    between atoms: C_9  and  O_10
REMARK   10  A    between atoms: S_12  and  C_13
REMARK   11  A    between atoms: C_13  and  C_14
REMARK   12  A    between atoms: C_14  and  O_15
REMARK                            x       y       z     vdW  Elec       q    Type
REMARK                         _______ _______ _______ _____ _____    ______ ____
ROOT
ATOM      1  C   UNL     1      -6.933   1.313 125.047  0.00  0.00    +0.000 C 
ENDROOT
BRANCH   1   2
ATOM      2  S   UNL     1      -6.198   2.552 126.211  0.00  0.00    +0.000 S 
BRANCH   2   3
ATOM      3  C   UNL     1      -5.086   3.622 125.233  0.00  0.00    +0.000 C 
BRANCH   3   4
ATOM      4  C   UNL     1      -5.861   4.433 124.204  0.00  0.00    +0.000 C 
ATOM      5  O   UNL     1      -6.057   4.110 123.039  0.00  0.00    +0.000 OA
BRANCH   4   6
ATOM      6  O   UNL     1      -6.409   5.569 124.707  0.00  0.00    +0.000 OA
ATOM      7  H   UNL     1      -7.328   5.784 124.460  0.00  0.00    +0.000 HD
ENDBRANCH   4   6
ENDBRANCH   3   4
ENDBRANCH   2   3
ENDBRANCH   1   2
BRANCH   1   8
ATOM      8  S   UNL     1      -6.730  -0.431 125.585  0.00  0.00    +0.000 S 
BRANCH   8   9
ATOM      9  C   UNL     1      -8.359  -1.167 125.245  0.00  0.00    +0.000 C 
BRANCH   9  10
ATOM     10  C   UNL     1      -8.439  -1.896 123.926  0.00  0.00    +0.000 C 
ATOM     11  O   UNL     1      -7.435  -2.160 123.275  0.00  0.00    +0.000 OA
BRANCH  10  12
ATOM     12  O   UNL     1      -9.670  -2.300 123.556  0.00  0.00    +0.000 OA
ATOM     13  H   UNL     1      -9.930  -1.909 122.693  0.00  0.00    +0.000 HD
ENDBRANCH  10  12
ENDBRANCH   9  10
ENDBRANCH   8   9
ENDBRANCH   1   8
BRANCH   1  14
ATOM     14  S   UNL     1      -8.789   1.735 125.203  0.00  0.00    +0.000 S 
BRANCH  14  15
ATOM     15  C   UNL     1      -9.360   1.918 123.473  0.00  0.00    +0.000 C 
BRANCH  15  16
ATOM     16  C   UNL     1     -10.615   1.091 123.193  0.00  0.00    +0.000 C 
ATOM     17  O   UNL     1     -10.653   0.235 122.318  0.00  0.00    +0.000 OA
BRANCH  16  18
ATOM     18  O   UNL     1     -11.693   1.347 123.968  0.00  0.00    +0.000 OA
ATOM     19  H   UNL     1     -12.158   2.169 123.695  0.00  0.00    +0.000 HD
ENDBRANCH  16  18
ENDBRANCH  15  16
ENDBRANCH  14  15
ENDBRANCH   1  14
TORSDOF 12
ENDMDL
MODEL 9
REMARK VINA RESULT:      -4.2      6.551      8.621
REMARK  Name = Ritiometan
REMARK  12 active torsions:
REMARK  status: ('A' for Active; 'I' for Inactive)
REMARK    1  A    between atoms: O_1  and  C_2
REMARK    2  A    between atoms: C_2  and  C_4
REMARK    3  A    between atoms: C_4  and  S_5
REMARK    4  A    between atoms: S_5  and  C_6
REMARK    5  A    between atoms: C_6  and  S_7
REMARK    6  A    between atoms: C_6  and  S_12
REMARK    7  A    between atoms: S_7  and  C_8
REMARK    8  A    between atoms: C_8  and  C_9
REMARK    9  A    between atoms: C_9  and  O_10
REMARK   10  A    between atoms: S_12  and  C_13
REMARK   11  A    between atoms: C_13  and  C_14
REMARK   12  A    between atoms: C_14  and  O_15
REMARK                            x       y       z     vdW  Elec       q    Type
REMARK                         _______ _______ _______ _____ _____    ______ ____
ROOT
ATOM      1  C   UNL     1      -9.727   6.309 130.272  0.00  0.00    +0.000 C 
ENDROOT
BRANCH   1   2
ATOM      2  S   UNL     1      -8.975   4.665 129.871  0.00  0.00    +0.000 S 
BRANCH   2   3
ATOM      3  C   UNL     1     -10.170   3.383 130.387  0.00  0.00    +0.000 C 
BRANCH   3   4
ATOM      4  C   UNL     1      -9.476   2.244 131.123  0.00  0.00    +0.000 C 
ATOM      5  O   UNL     1      -9.916   1.651 132.100  0.00  0.00    +0.000 OA
BRANCH   4   6
ATOM      6  O   UNL     1      -8.303   1.865 130.556  0.00  0.00    +0.000 OA
ATOM      7  H   UNL     1      -7.844   2.504 129.978  0.00  0.00    +0.000 HD
ENDBRANCH   4   6
ENDBRANCH   3   4
ENDBRANCH   2   3
ENDBRANCH   1   2
BRANCH   1   8
ATOM      8  S   UNL     1     -11.267   6.675 129.340  0.00  0.00    +0.000 S 
BRANCH   8   9
ATOM      9  C   UNL     1     -10.710   7.829 128.047  0.00  0.00    +0.000 C 
BRANCH   9  10
ATOM     10  C   UNL     1     -10.491   7.183 126.701  0.00  0.00    +0.000 C 
ATOM     11  O   UNL     1      -9.716   6.245 126.557  0.00  0.00    +0.000 OA
BRANCH  10  12
ATOM     12  O   UNL     1     -11.258   7.651 125.698  0.00  0.00    +0.000 OA
ATOM     13  H   UNL     1     -11.755   6.926 125.260  0.00  0.00    +0.000 HD
ENDBRANCH  10  12
ENDBRANCH   9  10
ENDBRANCH   8   9
ENDBRANCH   1   8
BRANCH   1  14
ATOM     14  S   UNL     1     -10.228   6.036 132.095  0.00  0.00    +0.000 S 
BRANCH  14  15
ATOM     15  C   UNL     1      -8.652   5.661 132.947  0.00  0.00    +0.000 C 
BRANCH  15  16
ATOM     16  C   UNL     1      -8.803   4.521 133.955  0.00  0.00    +0.000 C 
ATOM     17  O   UNL     1      -7.874   4.142 134.658  0.00  0.00    +0.000 OA
BRANCH  16  18
ATOM     18  O   UNL     1     -10.024   3.946 134.039  0.00  0.00    +0.000 OA
ATOM     19  H   UNL     1     -10.023   3.162 134.631  0.00  0.00    +0.000 HD
ENDBRANCH  16  18
ENDBRANCH  15  16
ENDBRANCH  14  15
ENDBRANCH   1  14
TORSDOF 12
ENDMDL
