MODEL 1
REMARK VINA RESULT:      -7.0      0.000      0.000
REMARK  Name = Ritodrine
REMARK  10 active torsions:
REMARK  status: ('A' for Active; 'I' for Inactive)
REMARK    1  A    between atoms: C_1  and  C_2
REMARK    2  A    between atoms: C_2  and  N_3
REMARK    3  A    between atoms: C_2  and  C_13
REMARK    4  A    between atoms: N_3  and  C_4
REMARK    5  A    between atoms: C_4  and  C_5
REMARK    6  A    between atoms: C_5  and  C_6
REMARK    7  A    between atoms: C_9  and  O_10
REMARK    8  A    between atoms: C_13  and  O_14
REMARK    9  A    between atoms: C_13  and  C_15
REMARK   10  A    between atoms: C_18  and  O_19
REMARK                            x       y       z     vdW  Elec       q    Type
REMARK                         _______ _______ _______ _____ _____    ______ ____
ROOT
ATOM      1  C   UNL     1     -10.281   1.322 123.797  0.00  0.00    +0.000 C 
ATOM      2  C   UNL     1      -8.781   1.208 124.104  0.00  0.00    +0.000 C 
ENDROOT
BRANCH   2   3
ATOM      3  N   UNL     1      -8.241   2.487 124.625  0.00  0.00    +0.000 NA
ATOM      4  H   UNL     1      -7.410   2.284 125.188  0.00  0.00    +0.000 HD
BRANCH   3   5
ATOM      5  C   UNL     1      -7.842   3.372 123.539  0.00  0.00    +0.000 C 
BRANCH   5   6
ATOM      6  C   UNL     1      -6.685   2.808 122.713  0.00  0.00    +0.000 C 
BRANCH   6   7
ATOM      7  C   UNL     1      -6.425   3.657 121.487  0.00  0.00    +0.000 A 
ATOM      8  C   UNL     1      -5.227   4.370 121.371  0.00  0.00    +0.000 A 
ATOM      9  C   UNL     1      -4.975   5.151 120.238  0.00  0.00    +0.000 A 
ATOM     10  C   UNL     1      -5.929   5.216 119.223  0.00  0.00    +0.000 A 
ATOM     11  C   UNL     1      -7.118   4.522 119.320  0.00  0.00    +0.000 A 
ATOM     12  C   UNL     1      -7.361   3.734 120.438  0.00  0.00    +0.000 A 
BRANCH  10  13
ATOM     13  O   UNL     1      -5.730   5.953 118.093  0.00  0.00    +0.000 OA
ATOM     14  H   UNL     1      -4.793   5.901 117.853  0.00  0.00    +0.000 HD
ENDBRANCH  10  13
ENDBRANCH   6   7
ENDBRANCH   5   6
ENDBRANCH   3   5
ENDBRANCH   2   3
BRANCH   2  15
ATOM     15  C   UNL     1      -8.532   0.048 125.116  0.00  0.00    +0.000 C 
BRANCH  15  16
ATOM     16  C   UNL     1      -7.414  -0.873 124.653  0.00  0.00    +0.000 A 
ATOM     17  C   UNL     1      -6.669  -1.650 125.553  0.00  0.00    +0.000 A 
ATOM     18  C   UNL     1      -5.686  -2.530 125.093  0.00  0.00    +0.000 A 
ATOM     19  C   UNL     1      -5.464  -2.648 123.724  0.00  0.00    +0.000 A 
ATOM     20  C   UNL     1      -6.200  -1.902 122.815  0.00  0.00    +0.000 A 
ATOM     21  C   UNL     1      -7.171  -1.015 123.276  0.00  0.00    +0.000 A 
BRANCH  19  22
ATOM     22  O   UNL     1      -4.526  -3.505 123.229  0.00  0.00    +0.000 OA
ATOM     23  H   UNL     1      -3.828  -3.618 123.894  0.00  0.00    +0.000 HD
ENDBRANCH  19  22
ENDBRANCH  15  16
BRANCH  15  24
ATOM     24  O   UNL     1      -9.720  -0.715 125.336  0.00  0.00    +0.000 OA
ATOM     25  H   UNL     1     -10.073  -0.971 124.470  0.00  0.00    +0.000 HD
ENDBRANCH  15  24
ENDBRANCH   2  15
TORSDOF 9
ENDMDL
MODEL 2
REMARK VINA RESULT:      -7.0      3.885      6.630
REMARK  Name = Ritodrine
REMARK  10 active torsions:
REMARK  status: ('A' for Active; 'I' for Inactive)
REMARK    1  A    between atoms: C_1  and  C_2
REMARK    2  A    between atoms: C_2  and  N_3
REMARK    3  A    between atoms: C_2  and  C_13
REMARK    4  A    between atoms: N_3  and  C_4
REMARK    5  A    between atoms: C_4  and  C_5
REMARK    6  A    between atoms: C_5  and  C_6
REMARK    7  A    between atoms: C_9  and  O_10
REMARK    8  A    between atoms: C_13  and  O_14
REMARK    9  A    between atoms: C_13  and  C_15
REMARK   10  A    between atoms: C_18  and  O_19
REMARK                            x       y       z     vdW  Elec       q    Type
REMARK                         _______ _______ _______ _____ _____    ______ ____
ROOT
ATOM      1  C   UNL     1      -4.218   2.344 126.426  0.00  0.00    +0.000 C 
ATOM      2  C   UNL     1      -5.298   1.252 126.411  0.00  0.00    +0.000 C 
ENDROOT
BRANCH   2   3
ATOM      3  N   UNL     1      -4.924   0.117 127.289  0.00  0.00    +0.000 NA
ATOM      4  H   UNL     1      -5.248   0.320 128.239  0.00  0.00    +0.000 HD
BRANCH   3   5
ATOM      5  C   UNL     1      -5.560  -1.119 126.853  0.00  0.00    +0.000 C 
BRANCH   5   6
ATOM      6  C   UNL     1      -5.482  -1.321 125.339  0.00  0.00    +0.000 C 
BRANCH   6   7
ATOM      7  C   UNL     1      -6.765  -1.916 124.801  0.00  0.00    +0.000 A 
ATOM      8  C   UNL     1      -7.649  -2.572 125.665  0.00  0.00    +0.000 A 
ATOM      9  C   UNL     1      -8.841  -3.119 125.177  0.00  0.00    +0.000 A 
ATOM     10  C   UNL     1      -9.142  -3.009 123.820  0.00  0.00    +0.000 A 
ATOM     11  C   UNL     1      -8.281  -2.369 122.952  0.00  0.00    +0.000 A 
ATOM     12  C   UNL     1      -7.106  -1.811 123.440  0.00  0.00    +0.000 A 
BRANCH  10  13
ATOM     13  O   UNL     1     -10.293  -3.514 123.295  0.00  0.00    +0.000 OA
ATOM     14  H   UNL     1     -10.182  -4.468 123.169  0.00  0.00    +0.000 HD
ENDBRANCH  10  13
ENDBRANCH   6   7
ENDBRANCH   5   6
ENDBRANCH   3   5
ENDBRANCH   2   3
BRANCH   2  15
ATOM     15  C   UNL     1      -6.671   1.856 126.838  0.00  0.00    +0.000 C 
BRANCH  15  16
ATOM     16  C   UNL     1      -7.755   1.570 125.812  0.00  0.00    +0.000 A 
ATOM     17  C   UNL     1      -7.595   1.881 124.453  0.00  0.00    +0.000 A 
ATOM     18  C   UNL     1      -8.586   1.555 123.525  0.00  0.00    +0.000 A 
ATOM     19  C   UNL     1      -9.732   0.894 123.955  0.00  0.00    +0.000 A 
ATOM     20  C   UNL     1      -9.904   0.560 125.290  0.00  0.00    +0.000 A 
ATOM     21  C   UNL     1      -8.922   0.898 126.218  0.00  0.00    +0.000 A 
BRANCH  19  22
ATOM     22  O   UNL     1     -10.718   0.541 123.081  0.00  0.00    +0.000 OA
ATOM     23  H   UNL     1     -11.408   0.064 123.568  0.00  0.00    +0.000 HD
ENDBRANCH  19  22
ENDBRANCH  15  16
BRANCH  15  24
ATOM     24  O   UNL     1      -6.575   3.266 127.054  0.00  0.00    +0.000 OA
ATOM     25  H   UNL     1      -7.332   3.684 126.616  0.00  0.00    +0.000 HD
ENDBRANCH  15  24
ENDBRANCH   2  15
TORSDOF 9
ENDMDL
MODEL 3
REMARK VINA RESULT:      -6.9      9.245     10.520
REMARK  Name = Ritodrine
REMARK  10 active torsions:
REMARK  status: ('A' for Active; 'I' for Inactive)
REMARK    1  A    between atoms: C_1  and  C_2
REMARK    2  A    between atoms: C_2  and  N_3
REMARK    3  A    between atoms: C_2  and  C_13
REMARK    4  A    between atoms: N_3  and  C_4
REMARK    5  A    between atoms: C_4  and  C_5
REMARK    6  A    between atoms: C_5  and  C_6
REMARK    7  A    between atoms: C_9  and  O_10
REMARK    8  A    between atoms: C_13  and  O_14
REMARK    9  A    between atoms: C_13  and  C_15
REMARK   10  A    between atoms: C_18  and  O_19
REMARK                            x       y       z     vdW  Elec       q    Type
REMARK                         _______ _______ _______ _____ _____    ______ ____
ROOT
ATOM      1  C   UNL     1     -10.110   4.777 130.909  0.00  0.00    +0.000 C 
ATOM      2  C   UNL     1      -9.711   6.054 131.663  0.00  0.00    +0.000 C 
ENDROOT
BRANCH   2   3
ATOM      3  N   UNL     1     -10.900   6.731 132.237  0.00  0.00    +0.000 NA
ATOM      4  H   UNL     1     -10.777   7.743 132.139  0.00  0.00    +0.000 HD
BRANCH   3   5
ATOM      5  C   UNL     1     -12.115   6.356 131.527  0.00  0.00    +0.000 C 
BRANCH   5   6
ATOM      6  C   UNL     1     -12.757   7.533 130.793  0.00  0.00    +0.000 C 
BRANCH   6   7
ATOM      7  C   UNL     1     -12.260   7.622 129.366  0.00  0.00    +0.000 A 
ATOM      8  C   UNL     1     -13.010   7.058 128.327  0.00  0.00    +0.000 A 
ATOM      9  C   UNL     1     -12.563   7.143 127.004  0.00  0.00    +0.000 A 
ATOM     10  C   UNL     1     -11.361   7.793 126.726  0.00  0.00    +0.000 A 
ATOM     11  C   UNL     1     -10.606   8.353 127.737  0.00  0.00    +0.000 A 
ATOM     12  C   UNL     1     -11.059   8.283 129.048  0.00  0.00    +0.000 A 
BRANCH  10  13
ATOM     13  O   UNL     1     -10.884   7.913 125.455  0.00  0.00    +0.000 OA
ATOM     14  H   UNL     1     -11.503   8.456 124.944  0.00  0.00    +0.000 HD
ENDBRANCH  10  13
ENDBRANCH   6   7
ENDBRANCH   5   6
ENDBRANCH   3   5
ENDBRANCH   2   3
BRANCH   2  15
ATOM     15  C   UNL     1      -8.675   5.713 132.778  0.00  0.00    +0.000 C 
BRANCH  15  16
ATOM     16  C   UNL     1      -7.258   6.065 132.356  0.00  0.00    +0.000 A 
ATOM     17  C   UNL     1      -6.989   6.791 131.185  0.00  0.00    +0.000 A 
ATOM     18  C   UNL     1      -5.680   7.149 130.853  0.00  0.00    +0.000 A 
ATOM     19  C   UNL     1      -4.640   6.799 131.707  0.00  0.00    +0.000 A 
ATOM     20  C   UNL     1      -4.884   6.097 132.879  0.00  0.00    +0.000 A 
ATOM     21  C   UNL     1      -6.188   5.727 133.202  0.00  0.00    +0.000 A 
BRANCH  19  22
ATOM     22  O   UNL     1      -3.348   7.141 131.431  0.00  0.00    +0.000 OA
ATOM     23  H   UNL     1      -2.786   6.361 131.560  0.00  0.00    +0.000 HD
ENDBRANCH  19  22
ENDBRANCH  15  16
BRANCH  15  24
ATOM     24  O   UNL     1      -8.737   4.331 133.140  0.00  0.00    +0.000 OA
ATOM     25  H   UNL     1      -8.647   4.274 134.103  0.00  0.00    +0.000 HD
ENDBRANCH  15  24
ENDBRANCH   2  15
TORSDOF 9
ENDMDL
MODEL 4
REMARK VINA RESULT:      -6.9      2.249      7.451
REMARK  Name = Ritodrine
REMARK  10 active torsions:
REMARK  status: ('A' for Active; 'I' for Inactive)
REMARK    1  A    between atoms: C_1  and  C_2
REMARK    2  A    between atoms: C_2  and  N_3
REMARK    3  A    between atoms: C_2  and  C_13
REMARK    4  A    between atoms: N_3  and  C_4
REMARK    5  A    between atoms: C_4  and  C_5
REMARK    6  A    between atoms: C_5  and  C_6
REMARK    7  A    between atoms: C_9  and  O_10
REMARK    8  A    between atoms: C_13  and  O_14
REMARK    9  A    between atoms: C_13  and  C_15
REMARK   10  A    between atoms: C_18  and  O_19
REMARK                            x       y       z     vdW  Elec       q    Type
REMARK                         _______ _______ _______ _____ _____    ______ ____
ROOT
ATOM      1  C   UNL     1      -9.260   0.757 125.732  0.00  0.00    +0.000 C 
ATOM      2  C   UNL     1      -8.462   1.133 124.475  0.00  0.00    +0.000 C 
ENDROOT
BRANCH   2   3
ATOM      3  N   UNL     1      -8.496   0.040 123.472  0.00  0.00    +0.000 NA
ATOM      4  H   UNL     1      -8.776   0.436 122.570  0.00  0.00    +0.000 HD
BRANCH   3   5
ATOM      5  C   UNL     1      -7.181  -0.565 123.308  0.00  0.00    +0.000 C 
BRANCH   5   6
ATOM      6  C   UNL     1      -7.197  -2.078 123.522  0.00  0.00    +0.000 C 
BRANCH   6   7
ATOM      7  C   UNL     1      -7.567  -2.424 124.948  0.00  0.00    +0.000 A 
ATOM      8  C   UNL     1      -6.724  -2.049 126.000  0.00  0.00    +0.000 A 
ATOM      9  C   UNL     1      -7.061  -2.358 127.323  0.00  0.00    +0.000 A 
ATOM     10  C   UNL     1      -8.245  -3.046 127.586  0.00  0.00    +0.000 A 
ATOM     11  C   UNL     1      -9.087  -3.428 126.562  0.00  0.00    +0.000 A 
ATOM     12  C   UNL     1      -8.760  -3.106 125.251  0.00  0.00    +0.000 A 
BRANCH  10  13
ATOM     13  O   UNL     1      -8.626  -3.363 128.856  0.00  0.00    +0.000 OA
ATOM     14  H   UNL     1      -9.558  -3.631 128.840  0.00  0.00    +0.000 HD
ENDBRANCH  10  13
ENDBRANCH   6   7
ENDBRANCH   5   6
ENDBRANCH   3   5
ENDBRANCH   2   3
BRANCH   2  15
ATOM     15  C   UNL     1      -9.017   2.458 123.870  0.00  0.00    +0.000 C 
BRANCH  15  16
ATOM     16  C   UNL     1      -8.124   2.987 122.759  0.00  0.00    +0.000 A 
ATOM     17  C   UNL     1      -8.630   3.323 121.494  0.00  0.00    +0.000 A 
ATOM     18  C   UNL     1      -7.795   3.860 120.511  0.00  0.00    +0.000 A 
ATOM     19  C   UNL     1      -6.453   4.083 120.804  0.00  0.00    +0.000 A 
ATOM     20  C   UNL     1      -5.935   3.775 122.054  0.00  0.00    +0.000 A 
ATOM     21  C   UNL     1      -6.765   3.226 123.029  0.00  0.00    +0.000 A 
BRANCH  19  22
ATOM     22  O   UNL     1      -5.604   4.619 119.881  0.00  0.00    +0.000 OA
ATOM     23  H   UNL     1      -6.043   4.611 119.016  0.00  0.00    +0.000 HD
ENDBRANCH  19  22
ENDBRANCH  15  16
BRANCH  15  24
ATOM     24  O   UNL     1      -9.177   3.463 124.875  0.00  0.00    +0.000 OA
ATOM     25  H   UNL     1      -8.321   3.901 124.994  0.00  0.00    +0.000 HD
ENDBRANCH  15  24
ENDBRANCH   2  15
TORSDOF 9
ENDMDL
MODEL 5
REMARK VINA RESULT:      -6.7      9.395     12.463
REMARK  Name = Ritodrine
REMARK  10 active torsions:
REMARK  status: ('A' for Active; 'I' for Inactive)
REMARK    1  A    between atoms: C_1  and  C_2
REMARK    2  A    between atoms: C_2  and  N_3
REMARK    3  A    between atoms: C_2  and  C_13
REMARK    4  A    between atoms: N_3  and  C_4
REMARK    5  A    between atoms: C_4  and  C_5
REMARK    6  A    between atoms: C_5  and  C_6
REMARK    7  A    between atoms: C_9  and  O_10
REMARK    8  A    between atoms: C_13  and  O_14
REMARK    9  A    between atoms: C_13  and  C_15
REMARK   10  A    between atoms: C_18  and  O_19
REMARK                            x       y       z     vdW  Elec       q    Type
REMARK                         _______ _______ _______ _____ _____    ______ ____
ROOT
ATOM      1  C   UNL     1      -8.572   4.687 130.094  0.00  0.00    +0.000 C 
ATOM      2  C   UNL     1     -10.091   4.833 130.265  0.00  0.00    +0.000 C 
ENDROOT
BRANCH   2   3
ATOM      3  N   UNL     1     -10.695   3.583 130.788  0.00  0.00    +0.000 NA
ATOM      4  H   UNL     1     -11.371   3.237 130.101  0.00  0.00    +0.000 HD
BRANCH   3   5
ATOM      5  C   UNL     1      -9.686   2.553 130.985  0.00  0.00    +0.000 C 
BRANCH   5   6
ATOM      6  C   UNL     1      -9.678   1.998 132.410  0.00  0.00    +0.000 C 
BRANCH   6   7
ATOM      7  C   UNL     1      -8.683   2.738 133.278  0.00  0.00    +0.000 A 
ATOM      8  C   UNL     1      -9.071   3.904 133.948  0.00  0.00    +0.000 A 
ATOM      9  C   UNL     1      -8.160   4.590 134.759  0.00  0.00    +0.000 A 
ATOM     10  C   UNL     1      -6.860   4.105 134.894  0.00  0.00    +0.000 A 
ATOM     11  C   UNL     1      -6.458   2.959 134.238  0.00  0.00    +0.000 A 
ATOM     12  C   UNL     1      -7.367   2.269 133.447  0.00  0.00    +0.000 A 
BRANCH  10  13
ATOM     13  O   UNL     1      -5.936   4.728 135.679  0.00  0.00    +0.000 OA
ATOM     14  H   UNL     1      -5.077   4.301 135.543  0.00  0.00    +0.000 HD
ENDBRANCH  10  13
ENDBRANCH   6   7
ENDBRANCH   5   6
ENDBRANCH   3   5
ENDBRANCH   2   3
BRANCH   2  15
ATOM     15  C   UNL     1     -10.408   6.038 131.204  0.00  0.00    +0.000 C 
BRANCH  15  16
ATOM     16  C   UNL     1     -11.247   7.093 130.502  0.00  0.00    +0.000 A 
ATOM     17  C   UNL     1     -12.432   7.595 131.062  0.00  0.00    +0.000 A 
ATOM     18  C   UNL     1     -13.152   8.606 130.421  0.00  0.00    +0.000 A 
ATOM     19  C   UNL     1     -12.671   9.132 129.225  0.00  0.00    +0.000 A 
ATOM     20  C   UNL     1     -11.493   8.663 128.662  0.00  0.00    +0.000 A 
ATOM     21  C   UNL     1     -10.783   7.645 129.295  0.00  0.00    +0.000 A 
BRANCH  19  22
ATOM     22  O   UNL     1     -13.333  10.130 128.573  0.00  0.00    +0.000 OA
ATOM     23  H   UNL     1     -14.267   9.881 128.492  0.00  0.00    +0.000 HD
ENDBRANCH  19  22
ENDBRANCH  15  16
BRANCH  15  24
ATOM     24  O   UNL     1      -9.209   6.634 131.706  0.00  0.00    +0.000 OA
ATOM     25  H   UNL     1      -8.801   7.132 130.982  0.00  0.00    +0.000 HD
ENDBRANCH  15  24
ENDBRANCH   2  15
TORSDOF 9
ENDMDL
MODEL 6
REMARK VINA RESULT:      -6.7      2.433      3.667
REMARK  Name = Ritodrine
REMARK  10 active torsions:
REMARK  status: ('A' for Active; 'I' for Inactive)
REMARK    1  A    between atoms: C_1  and  C_2
REMARK    2  A    between atoms: C_2  and  N_3
REMARK    3  A    between atoms: C_2  and  C_13
REMARK    4  A    between atoms: N_3  and  C_4
REMARK    5  A    between atoms: C_4  and  C_5
REMARK    6  A    between atoms: C_5  and  C_6
REMARK    7  A    between atoms: C_9  and  O_10
REMARK    8  A    between atoms: C_13  and  O_14
REMARK    9  A    between atoms: C_13  and  C_15
REMARK   10  A    between atoms: C_18  and  O_19
REMARK                            x       y       z     vdW  Elec       q    Type
REMARK                         _______ _______ _______ _____ _____    ______ ____
ROOT
ATOM      1  C   UNL     1      -6.788  -2.035 123.335  0.00  0.00    +0.000 C 
ATOM      2  C   UNL     1      -7.741  -1.140 124.141  0.00  0.00    +0.000 C 
ENDROOT
BRANCH   2   3
ATOM      3  N   UNL     1      -8.268  -0.031 123.309  0.00  0.00    +0.000 NA
ATOM      4  H   UNL     1      -9.242  -0.238 123.070  0.00  0.00    +0.000 HD
BRANCH   3   5
ATOM      5  C   UNL     1      -8.242   1.231 124.035  0.00  0.00    +0.000 C 
BRANCH   5   6
ATOM      6  C   UNL     1      -8.997   2.345 123.310  0.00  0.00    +0.000 C 
BRANCH   6   7
ATOM      7  C   UNL     1      -8.124   3.008 122.267  0.00  0.00    +0.000 A 
ATOM      8  C   UNL     1      -8.689   3.478 121.076  0.00  0.00    +0.000 A 
ATOM      9  C   UNL     1      -7.890   4.099 120.110  0.00  0.00    +0.000 A 
ATOM     10  C   UNL     1      -6.523   4.246 120.341  0.00  0.00    +0.000 A 
ATOM     11  C   UNL     1      -5.947   3.786 121.507  0.00  0.00    +0.000 A 
ATOM     12  C   UNL     1      -6.743   3.184 122.474  0.00  0.00    +0.000 A 
BRANCH  10  13
ATOM     13  O   UNL     1      -5.701   4.852 119.438  0.00  0.00    +0.000 OA
ATOM     14  H   UNL     1      -6.064   5.727 119.231  0.00  0.00    +0.000 HD
ENDBRANCH  10  13
ENDBRANCH   6   7
ENDBRANCH   5   6
ENDBRANCH   3   5
ENDBRANCH   2   3
BRANCH   2  15
ATOM     15  C   UNL     1      -8.907  -1.996 124.726  0.00  0.00    +0.000 C 
BRANCH  15  16
ATOM     16  C   UNL     1      -8.677  -2.334 126.191  0.00  0.00    +0.000 A 
ATOM     17  C   UNL     1      -9.085  -3.556 126.746  0.00  0.00    +0.000 A 
ATOM     18  C   UNL     1      -8.809  -3.862 128.080  0.00  0.00    +0.000 A 
ATOM     19  C   UNL     1      -8.102  -2.949 128.856  0.00  0.00    +0.000 A 
ATOM     20  C   UNL     1      -7.673  -1.742 128.324  0.00  0.00    +0.000 A 
ATOM     21  C   UNL     1      -7.961  -1.432 126.997  0.00  0.00    +0.000 A 
BRANCH  19  22
ATOM     22  O   UNL     1      -7.797  -3.211 130.159  0.00  0.00    +0.000 OA
ATOM     23  H   UNL     1      -8.537  -2.922 130.716  0.00  0.00    +0.000 HD
ENDBRANCH  19  22
ENDBRANCH  15  16
BRANCH  15  24
ATOM     24  O   UNL     1      -9.093  -3.201 123.980  0.00  0.00    +0.000 OA
ATOM     25  H   UNL     1      -9.445  -2.959 123.110  0.00  0.00    +0.000 HD
ENDBRANCH  15  24
ENDBRANCH   2  15
TORSDOF 9
ENDMDL
MODEL 7
REMARK VINA RESULT:      -6.6      8.087      9.331
REMARK  Name = Ritodrine
REMARK  10 active torsions:
REMARK  status: ('A' for Active; 'I' for Inactive)
REMARK    1  A    between atoms: C_1  and  C_2
REMARK    2  A    between atoms: C_2  and  N_3
REMARK    3  A    between atoms: C_2  and  C_13
REMARK    4  A    between atoms: N_3  and  C_4
REMARK    5  A    between atoms: C_4  and  C_5
REMARK    6  A    between atoms: C_5  and  C_6
REMARK    7  A    between atoms: C_9  and  O_10
REMARK    8  A    between atoms: C_13  and  O_14
REMARK    9  A    between atoms: C_13  and  C_15
REMARK   10  A    between atoms: C_18  and  O_19
REMARK                            x       y       z     vdW  Elec       q    Type
REMARK                         _______ _______ _______ _____ _____    ______ ____
ROOT
ATOM      1  C   UNL     1      -9.079   4.689 130.144  0.00  0.00    +0.000 C 
ATOM      2  C   UNL     1      -9.609   5.215 131.486  0.00  0.00    +0.000 C 
ENDROOT
BRANCH   2   3
ATOM      3  N   UNL     1     -11.091   5.268 131.493  0.00  0.00    +0.000 NA
ATOM      4  H   UNL     1     -11.435   4.645 132.230  0.00  0.00    +0.000 HD
BRANCH   3   5
ATOM      5  C   UNL     1     -11.569   6.613 131.783  0.00  0.00    +0.000 C 
BRANCH   5   6
ATOM      6  C   UNL     1     -12.711   7.044 130.862  0.00  0.00    +0.000 C 
BRANCH   6   7
ATOM      7  C   UNL     1     -12.213   7.294 129.455  0.00  0.00    +0.000 A 
ATOM      8  C   UNL     1     -12.921   6.784 128.361  0.00  0.00    +0.000 A 
ATOM      9  C   UNL     1     -12.472   7.016 127.056  0.00  0.00    +0.000 A 
ATOM     10  C   UNL     1     -11.310   7.759 126.852  0.00  0.00    +0.000 A 
ATOM     11  C   UNL     1     -10.597   8.268 127.918  0.00  0.00    +0.000 A 
ATOM     12  C   UNL     1     -11.052   8.051 129.212  0.00  0.00    +0.000 A 
BRANCH  10  13
ATOM     13  O   UNL     1     -10.835   8.024 125.602  0.00  0.00    +0.000 OA
ATOM     14  H   UNL     1     -10.445   8.911 125.602  0.00  0.00    +0.000 HD
ENDBRANCH  10  13
ENDBRANCH   6   7
ENDBRANCH   5   6
ENDBRANCH   3   5
ENDBRANCH   2   3
BRANCH   2  15
ATOM     15  C   UNL     1      -9.080   4.325 132.652  0.00  0.00    +0.000 C 
BRANCH  15  16
ATOM     16  C   UNL     1      -8.772   2.911 132.186  0.00  0.00    +0.000 A 
ATOM     17  C   UNL     1      -7.463   2.488 131.906  0.00  0.00    +0.000 A 
ATOM     18  C   UNL     1      -7.205   1.167 131.534  0.00  0.00    +0.000 A 
ATOM     19  C   UNL     1      -8.258   0.260 131.465  0.00  0.00    +0.000 A 
ATOM     20  C   UNL     1      -9.557   0.651 131.754  0.00  0.00    +0.000 A 
ATOM     21  C   UNL     1      -9.816   1.973 132.111  0.00  0.00    +0.000 A 
BRANCH  19  22
ATOM     22  O   UNL     1      -8.050  -1.044 131.121  0.00  0.00    +0.000 OA
ATOM     23  H   UNL     1      -7.180  -1.118 130.699  0.00  0.00    +0.000 HD
ENDBRANCH  19  22
ENDBRANCH  15  16
BRANCH  15  24
ATOM     24  O   UNL     1     -10.011   4.280 133.736  0.00  0.00    +0.000 OA
ATOM     25  H   UNL     1     -10.413   3.398 133.745  0.00  0.00    +0.000 HD
ENDBRANCH  15  24
ENDBRANCH   2  15
TORSDOF 9
ENDMDL
MODEL 8
REMARK VINA RESULT:      -6.5      1.579      7.242
REMARK  Name = Ritodrine
REMARK  10 active torsions:
REMARK  status: ('A' for Active; 'I' for Inactive)
REMARK    1  A    between atoms: C_1  and  C_2
REMARK    2  A    between atoms: C_2  and  N_3
REMARK    3  A    between atoms: C_2  and  C_13
REMARK    4  A    between atoms: N_3  and  C_4
REMARK    5  A    between atoms: C_4  and  C_5
REMARK    6  A    between atoms: C_5  and  C_6
REMARK    7  A    between atoms: C_9  and  O_10
REMARK    8  A    between atoms: C_13  and  O_14
REMARK    9  A    between atoms: C_13  and  C_15
REMARK   10  A    between atoms: C_18  and  O_19
REMARK                            x       y       z     vdW  Elec       q    Type
REMARK                         _______ _______ _______ _____ _____    ______ ____
ROOT
ATOM      1  C   UNL     1      -7.858   3.774 124.975  0.00  0.00    +0.000 C 
ATOM      2  C   UNL     1      -6.928   3.034 124.003  0.00  0.00    +0.000 C 
ENDROOT
BRANCH   2   3
ATOM      3  N   UNL     1      -6.435   1.766 124.593  0.00  0.00    +0.000 NA
ATOM      4  H   UNL     1      -6.656   1.765 125.593  0.00  0.00    +0.000 HD
BRANCH   3   5
ATOM      5  C   UNL     1      -7.087   0.613 123.987  0.00  0.00    +0.000 C 
BRANCH   5   6
ATOM      6  C   UNL     1      -7.194  -0.575 124.943  0.00  0.00    +0.000 C 
BRANCH   6   7
ATOM      7  C   UNL     1      -6.322  -1.724 124.485  0.00  0.00    +0.000 A 
ATOM      8  C   UNL     1      -6.080  -1.918 123.120  0.00  0.00    +0.000 A 
ATOM      9  C   UNL     1      -5.269  -2.974 122.688  0.00  0.00    +0.000 A 
ATOM     10  C   UNL     1      -4.705  -3.835 123.628  0.00  0.00    +0.000 A 
ATOM     11  C   UNL     1      -4.935  -3.662 124.978  0.00  0.00    +0.000 A 
ATOM     12  C   UNL     1      -5.726  -2.604 125.407  0.00  0.00    +0.000 A 
BRANCH  10  13
ATOM     13  O   UNL     1      -3.899  -4.872 123.262  0.00  0.00    +0.000 OA
ATOM     14  H   UNL     1      -3.388  -5.152 124.036  0.00  0.00    +0.000 HD
ENDBRANCH  10  13
ENDBRANCH   6   7
ENDBRANCH   5   6
ENDBRANCH   3   5
ENDBRANCH   2   3
BRANCH   2  15
ATOM     15  C   UNL     1      -7.669   2.768 122.656  0.00  0.00    +0.000 C 
BRANCH  15  16
ATOM     16  C   UNL     1      -7.036   3.532 121.505  0.00  0.00    +0.000 A 
ATOM     17  C   UNL     1      -7.745   3.832 120.331  0.00  0.00    +0.000 A 
ATOM     18  C   UNL     1      -7.154   4.585 119.314  0.00  0.00    +0.000 A 
ATOM     19  C   UNL     1      -5.857   5.058 119.481  0.00  0.00    +0.000 A 
ATOM     20  C   UNL     1      -5.143   4.788 120.640  0.00  0.00    +0.000 A 
ATOM     21  C   UNL     1      -5.728   4.025 121.648  0.00  0.00    +0.000 A 
BRANCH  19  22
ATOM     22  O   UNL     1      -5.246   5.809 118.521  0.00  0.00    +0.000 OA
ATOM     23  H   UNL     1      -5.116   6.707 118.865  0.00  0.00    +0.000 HD
ENDBRANCH  19  22
ENDBRANCH  15  16
BRANCH  15  24
ATOM     24  O   UNL     1      -9.055   3.105 122.750  0.00  0.00    +0.000 OA
ATOM     25  H   UNL     1      -9.568   2.321 122.504  0.00  0.00    +0.000 HD
ENDBRANCH  15  24
ENDBRANCH   2  15
TORSDOF 9
ENDMDL
MODEL 9
REMARK VINA RESULT:      -6.5      2.614      8.104
REMARK  Name = Ritodrine
REMARK  10 active torsions:
REMARK  status: ('A' for Active; 'I' for Inactive)
REMARK    1  A    between atoms: C_1  and  C_2
REMARK    2  A    between atoms: C_2  and  N_3
REMARK    3  A    between atoms: C_2  and  C_13
REMARK    4  A    between atoms: N_3  and  C_4
REMARK    5  A    between atoms: C_4  and  C_5
REMARK    6  A    between atoms: C_5  and  C_6
REMARK    7  A    between atoms: C_9  and  O_10
REMARK    8  A    between atoms: C_13  and  O_14
REMARK    9  A    between atoms: C_13  and  C_15
REMARK   10  A    between atoms: C_18  and  O_19
REMARK                            x       y       z     vdW  Elec       q    Type
REMARK                         _______ _______ _______ _____ _____    ______ ____
ROOT
ATOM      1  C   UNL     1      -8.454   1.327 126.103  0.00  0.00    +0.000 C 
ATOM      2  C   UNL     1      -8.169   1.316 124.595  0.00  0.00    +0.000 C 
ENDROOT
BRANCH   2   3
ATOM      3  N   UNL     1      -8.625   0.050 123.972  0.00  0.00    +0.000 NA
ATOM      4  H   UNL     1      -7.822  -0.398 123.521  0.00  0.00    +0.000 HD
BRANCH   3   5
ATOM      5  C   UNL     1      -9.149  -0.871 124.971  0.00  0.00    +0.000 C 
BRANCH   5   6
ATOM      6  C   UNL     1      -8.366  -2.182 125.035  0.00  0.00    +0.000 C 
BRANCH   6   7
ATOM      7  C   UNL     1      -8.041  -2.555 126.465  0.00  0.00    +0.000 A 
ATOM      8  C   UNL     1      -8.850  -3.469 127.151  0.00  0.00    +0.000 A 
ATOM      9  C   UNL     1      -8.553  -3.825 128.471  0.00  0.00    +0.000 A 
ATOM     10  C   UNL     1      -7.445  -3.261 129.102  0.00  0.00    +0.000 A 
ATOM     11  C   UNL     1      -6.638  -2.356 128.443  0.00  0.00    +0.000 A 
ATOM     12  C   UNL     1      -6.923  -2.015 127.127  0.00  0.00    +0.000 A 
BRANCH  10  13
ATOM     13  O   UNL     1      -7.105  -3.581 130.382  0.00  0.00    +0.000 OA
ATOM     14  H   UNL     1      -6.327  -4.159 130.359  0.00  0.00    +0.000 HD
ENDBRANCH  10  13
ENDBRANCH   6   7
ENDBRANCH   5   6
ENDBRANCH   3   5
ENDBRANCH   2   3
BRANCH   2  15
ATOM     15  C   UNL     1      -8.849   2.545 123.916  0.00  0.00    +0.000 C 
BRANCH  15  16
ATOM     16  C   UNL     1      -8.042   3.051 122.731  0.00  0.00    +0.000 A 
ATOM     17  C   UNL     1      -8.641   3.361 121.500  0.00  0.00    +0.000 A 
ATOM     18  C   UNL     1      -7.882   3.878 120.448  0.00  0.00    +0.000 A 
ATOM     19  C   UNL     1      -6.523   4.108 120.636  0.00  0.00    +0.000 A 
ATOM     20  C   UNL     1      -5.913   3.826 121.850  0.00  0.00    +0.000 A 
ATOM     21  C   UNL     1      -6.667   3.297 122.894  0.00  0.00    +0.000 A 
BRANCH  19  22
ATOM     22  O   UNL     1      -5.746   4.627 119.642  0.00  0.00    +0.000 OA
ATOM     23  H   UNL     1      -5.949   5.571 119.550  0.00  0.00    +0.000 HD
ENDBRANCH  19  22
ENDBRANCH  15  16
BRANCH  15  24
ATOM     24  O   UNL     1      -9.050   3.609 124.848  0.00  0.00    +0.000 OA
ATOM     25  H   UNL     1      -9.994   3.832 124.844  0.00  0.00    +0.000 HD
ENDBRANCH  15  24
ENDBRANCH   2  15
TORSDOF 9
ENDMDL
