MODEL 1
REMARK VINA RESULT:      -8.1      0.000      0.000
REMARK  Name = Rivaroxaban
REMARK  5 active torsions:
REMARK  status: ('A' for Active; 'I' for Inactive)
REMARK    1  A    between atoms: C_5  and  C_7
REMARK    2  A    between atoms: N_9  and  C_10
REMARK    3  A    between atoms: C_10  and  C_11
REMARK    4  A    between atoms: N_13  and  C_17
REMARK    5  A    between atoms: C_20  and  N_23
REMARK                            x       y       z     vdW  Elec       q    Type
REMARK                         _______ _______ _______ _____ _____    ______ ____
ROOT
ATOM      1  C   UNL     1      -8.628   2.350 132.714  0.00  0.00    +0.000 C 
ATOM      2  C   UNL     1      -9.257   1.663 131.492  0.00  0.00    +0.000 C 
ATOM      3  N   UNL     1      -8.189   1.687 130.521  0.00  0.00    +0.000 N 
ATOM      4  C   UNL     1      -7.161   2.484 130.946  0.00  0.00    +0.000 C 
ATOM      5  O   UNL     1      -6.200   2.874 130.290  0.00  0.00    +0.000 OA
ATOM      6  O   UNL     1      -7.344   2.821 132.244  0.00  0.00    +0.000 OA
ENDROOT
BRANCH   3   7
ATOM      7  C   UNL     1      -8.071   0.813 129.419  0.00  0.00    +0.000 A 
ATOM      8  C   UNL     1      -8.289   1.280 128.127  0.00  0.00    +0.000 A 
ATOM      9  C   UNL     1      -8.146   0.423 127.027  0.00  0.00    +0.000 A 
ATOM     10  C   UNL     1      -7.766  -0.911 127.196  0.00  0.00    +0.000 A 
ATOM     11  C   UNL     1      -7.575  -1.396 128.495  0.00  0.00    +0.000 A 
ATOM     12  C   UNL     1      -7.696  -0.531 129.598  0.00  0.00    +0.000 A 
BRANCH  10  13
ATOM     13  N   UNL     1      -7.597  -1.753 126.056  0.00  0.00    +0.000 N 
ATOM     14  C   UNL     1      -6.225  -2.024 125.587  0.00  0.00    +0.000 C 
ATOM     15  C   UNL     1      -6.176  -2.790 124.264  0.00  0.00    +0.000 C 
ATOM     16  O   UNL     1      -7.063  -3.905 124.325  0.00  0.00    +0.000 OA
ATOM     17  C   UNL     1      -8.396  -3.422 124.399  0.00  0.00    +0.000 C 
ATOM     18  C   UNL     1      -8.702  -2.398 125.502  0.00  0.00    +0.000 C 
ATOM     19  O   UNL     1      -9.870  -2.118 125.776  0.00  0.00    +0.000 OA
ENDBRANCH  10  13
ENDBRANCH   3   7
BRANCH   1  20
ATOM     20  C   UNL     1      -9.214   3.586 133.422  0.00  0.00    +0.000 C 
BRANCH  20  23
ATOM     21  C   UNL     1      -9.618   5.643 132.103  0.00  0.00    +0.000 C 
ATOM     22  O   UNL     1      -8.447   5.987 132.247  0.00  0.00    +0.000 OA
ATOM     23  N   UNL     1     -10.088   4.444 132.646  0.00  0.00    +0.000 N 
ATOM     24  H   UNL     1     -11.072   4.242 132.615  0.00  0.00    +0.000 HD
BRANCH  21  29
ATOM     25 CL   UNL     1     -12.174   8.786 128.339  0.00  0.00    +0.000 Cl
ATOM     26  C   UNL     1     -11.763   7.828 129.705  0.00  0.00    +0.000 A 
ATOM     27  C   UNL     1     -12.607   7.484 130.725  0.00  0.00    +0.000 A 
ATOM     28  C   UNL     1     -11.951   6.648 131.674  0.00  0.00    +0.000 A 
ATOM     29  C   UNL     1     -10.617   6.423 131.372  0.00  0.00    +0.000 A 
ATOM     30  S   UNL     1     -10.198   7.208 129.892  0.00  0.00    +0.000 S 
ENDBRANCH  21  29
ENDBRANCH  20  23
ENDBRANCH   1  20
TORSDOF 5
ENDMDL
MODEL 2
REMARK VINA RESULT:      -8.0      2.426      2.907
REMARK  Name = Rivaroxaban
REMARK  5 active torsions:
REMARK  status: ('A' for Active; 'I' for Inactive)
REMARK    1  A    between atoms: C_5  and  C_7
REMARK    2  A    between atoms: N_9  and  C_10
REMARK    3  A    between atoms: C_10  and  C_11
REMARK    4  A    between atoms: N_13  and  C_17
REMARK    5  A    between atoms: C_20  and  N_23
REMARK                            x       y       z     vdW  Elec       q    Type
REMARK                         _______ _______ _______ _____ _____    ______ ____
ROOT
ATOM      1  C   UNL     1      -8.166   4.446 130.335  0.00  0.00    +0.000 C 
ATOM      2  C   UNL     1      -8.333   3.014 129.803  0.00  0.00    +0.000 C 
ATOM      3  N   UNL     1      -8.214   3.184 128.374  0.00  0.00    +0.000 N 
ATOM      4  C   UNL     1      -8.241   4.509 128.037  0.00  0.00    +0.000 C 
ATOM      5  O   UNL     1      -8.356   4.990 126.913  0.00  0.00    +0.000 OA
ATOM      6  O   UNL     1      -8.133   5.272 129.150  0.00  0.00    +0.000 OA
ENDROOT
BRANCH   3   7
ATOM      7  C   UNL     1      -7.845   2.172 127.463  0.00  0.00    +0.000 A 
ATOM      8  C   UNL     1      -6.528   2.070 127.025  0.00  0.00    +0.000 A 
ATOM      9  C   UNL     1      -6.149   1.049 126.142  0.00  0.00    +0.000 A 
ATOM     10  C   UNL     1      -7.074   0.104 125.691  0.00  0.00    +0.000 A 
ATOM     11  C   UNL     1      -8.407   0.220 126.103  0.00  0.00    +0.000 A 
ATOM     12  C   UNL     1      -8.783   1.229 127.008  0.00  0.00    +0.000 A 
BRANCH  10  13
ATOM     13  N   UNL     1      -6.654  -0.943 124.817  0.00  0.00    +0.000 N 
ATOM     14  C   UNL     1      -6.768  -0.725 123.362  0.00  0.00    +0.000 C 
ATOM     15  C   UNL     1      -6.453  -1.972 122.535  0.00  0.00    +0.000 C 
ATOM     16  O   UNL     1      -5.241  -2.560 123.000  0.00  0.00    +0.000 OA
ATOM     17  C   UNL     1      -5.450  -3.057 124.314  0.00  0.00    +0.000 C 
ATOM     18  C   UNL     1      -6.031  -2.075 125.342  0.00  0.00    +0.000 C 
ATOM     19  O   UNL     1      -6.017  -2.358 126.541  0.00  0.00    +0.000 OA
ENDBRANCH  10  13
ENDBRANCH   3   7
BRANCH   1  20
ATOM     20  C   UNL     1      -9.185   5.170 131.235  0.00  0.00    +0.000 C 
BRANCH  20  23
ATOM     21  C   UNL     1     -11.295   5.596 130.010  0.00  0.00    +0.000 C 
ATOM     22  O   UNL     1     -11.583   4.402 130.055  0.00  0.00    +0.000 OA
ATOM     23  N   UNL     1     -10.116   6.075 130.590  0.00  0.00    +0.000 N 
ATOM     24  H   UNL     1      -9.846   7.031 130.439  0.00  0.00    +0.000 HD
BRANCH  21  29
ATOM     25 CL   UNL     1     -13.760  10.367 128.694  0.00  0.00    +0.000 Cl
ATOM     26  C   UNL     1     -13.232   8.734 128.776  0.00  0.00    +0.000 A 
ATOM     27  C   UNL     1     -13.622   7.724 127.941  0.00  0.00    +0.000 A 
ATOM     28  C   UNL     1     -12.959   6.505 128.266  0.00  0.00    +0.000 A 
ATOM     29  C   UNL     1     -12.123   6.615 129.366  0.00  0.00    +0.000 A 
ATOM     30  S   UNL     1     -12.128   8.237 129.960  0.00  0.00    +0.000 S 
ENDBRANCH  21  29
ENDBRANCH  20  23
ENDBRANCH   1  20
TORSDOF 5
ENDMDL
MODEL 3
REMARK VINA RESULT:      -7.6      4.158      8.964
REMARK  Name = Rivaroxaban
REMARK  5 active torsions:
REMARK  status: ('A' for Active; 'I' for Inactive)
REMARK    1  A    between atoms: C_5  and  C_7
REMARK    2  A    between atoms: N_9  and  C_10
REMARK    3  A    between atoms: C_10  and  C_11
REMARK    4  A    between atoms: N_13  and  C_17
REMARK    5  A    between atoms: C_20  and  N_23
REMARK                            x       y       z     vdW  Elec       q    Type
REMARK                         _______ _______ _______ _____ _____    ______ ____
ROOT
ATOM      1  C   UNL     1      -5.719   1.083 130.973  0.00  0.00    +0.000 C 
ATOM      2  C   UNL     1      -6.671   1.875 130.063  0.00  0.00    +0.000 C 
ATOM      3  N   UNL     1      -7.707   2.304 130.974  0.00  0.00    +0.000 N 
ATOM      4  C   UNL     1      -7.584   1.675 132.183  0.00  0.00    +0.000 C 
ATOM      5  O   UNL     1      -8.397   1.662 133.102  0.00  0.00    +0.000 OA
ATOM      6  O   UNL     1      -6.400   1.022 132.246  0.00  0.00    +0.000 OA
ENDROOT
BRANCH   3   7
ATOM      7  C   UNL     1      -8.561   3.408 130.771  0.00  0.00    +0.000 A 
ATOM      8  C   UNL     1      -8.056   4.703 130.821  0.00  0.00    +0.000 A 
ATOM      9  C   UNL     1      -8.895   5.804 130.592  0.00  0.00    +0.000 A 
ATOM     10  C   UNL     1     -10.249   5.630 130.296  0.00  0.00    +0.000 A 
ATOM     11  C   UNL     1     -10.770   4.331 130.276  0.00  0.00    +0.000 A 
ATOM     12  C   UNL     1      -9.925   3.225 130.481  0.00  0.00    +0.000 A 
BRANCH  10  13
ATOM     13  N   UNL     1     -11.072   6.765 130.037  0.00  0.00    +0.000 N 
ATOM     14  C   UNL     1     -10.928   7.451 128.739  0.00  0.00    +0.000 C 
ATOM     15  C   UNL     1     -11.731   8.749 128.645  0.00  0.00    +0.000 C 
ATOM     16  O   UNL     1     -13.062   8.521 129.102  0.00  0.00    +0.000 OA
ATOM     17  C   UNL     1     -13.023   8.235 130.493  0.00  0.00    +0.000 C 
ATOM     18  C   UNL     1     -12.073   7.117 130.944  0.00  0.00    +0.000 C 
ATOM     19  O   UNL     1     -12.159   6.658 132.084  0.00  0.00    +0.000 OA
ENDBRANCH  10  13
ENDBRANCH   3   7
BRANCH   1  20
ATOM     20  C   UNL     1      -5.293  -0.378 130.735  0.00  0.00    +0.000 C 
BRANCH  20  23
ATOM     21  C   UNL     1      -7.163  -1.841 130.030  0.00  0.00    +0.000 C 
ATOM     22  O   UNL     1      -7.616  -1.843 131.172  0.00  0.00    +0.000 OA
ATOM     23  N   UNL     1      -6.007  -1.120 129.715  0.00  0.00    +0.000 N 
ATOM     24  H   UNL     1      -5.592  -1.228 128.805  0.00  0.00    +0.000 HD
BRANCH  21  29
ATOM     25 CL   UNL     1      -8.496  -3.600 124.960  0.00  0.00    +0.000 Cl
ATOM     26  C   UNL     1      -8.366  -3.355 126.656  0.00  0.00    +0.000 A 
ATOM     27  C   UNL     1      -9.030  -4.062 127.620  0.00  0.00    +0.000 A 
ATOM     28  C   UNL     1      -8.658  -3.625 128.924  0.00  0.00    +0.000 A 
ATOM     29  C   UNL     1      -7.760  -2.569 128.910  0.00  0.00    +0.000 A 
ATOM     30  S   UNL     1      -7.348  -2.156 127.284  0.00  0.00    +0.000 S 
ENDBRANCH  21  29
ENDBRANCH  20  23
ENDBRANCH   1  20
TORSDOF 5
ENDMDL
MODEL 4
REMARK VINA RESULT:      -7.6      1.459      1.745
REMARK  Name = Rivaroxaban
REMARK  5 active torsions:
REMARK  status: ('A' for Active; 'I' for Inactive)
REMARK    1  A    between atoms: C_5  and  C_7
REMARK    2  A    between atoms: N_9  and  C_10
REMARK    3  A    between atoms: C_10  and  C_11
REMARK    4  A    between atoms: N_13  and  C_17
REMARK    5  A    between atoms: C_20  and  N_23
REMARK                            x       y       z     vdW  Elec       q    Type
REMARK                         _______ _______ _______ _____ _____    ______ ____
ROOT
ATOM      1  C   UNL     1      -7.681   3.262 131.675  0.00  0.00    +0.000 C 
ATOM      2  C   UNL     1      -8.588   2.509 130.689  0.00  0.00    +0.000 C 
ATOM      3  N   UNL     1      -7.762   2.399 129.510  0.00  0.00    +0.000 N 
ATOM      4  C   UNL     1      -6.641   3.175 129.625  0.00  0.00    +0.000 C 
ATOM      5  O   UNL     1      -5.838   3.460 128.742  0.00  0.00    +0.000 OA
ATOM      6  O   UNL     1      -6.521   3.627 130.895  0.00  0.00    +0.000 OA
ENDROOT
BRANCH   3   7
ATOM      7  C   UNL     1      -7.919   1.432 128.494  0.00  0.00    +0.000 A 
ATOM      8  C   UNL     1      -8.685   1.716 127.368  0.00  0.00    +0.000 A 
ATOM      9  C   UNL     1      -8.821   0.769 126.343  0.00  0.00    +0.000 A 
ATOM     10  C   UNL     1      -8.184  -0.472 126.417  0.00  0.00    +0.000 A 
ATOM     11  C   UNL     1      -7.437  -0.776 127.561  0.00  0.00    +0.000 A 
ATOM     12  C   UNL     1      -7.280   0.182 128.579  0.00  0.00    +0.000 A 
BRANCH  10  13
ATOM     13  N   UNL     1      -8.314  -1.404 125.345  0.00  0.00    +0.000 N 
ATOM     14  C   UNL     1      -9.257  -2.527 125.508  0.00  0.00    +0.000 C 
ATOM     15  C   UNL     1      -9.183  -3.551 124.373  0.00  0.00    +0.000 C 
ATOM     16  O   UNL     1      -9.205  -2.875 123.119  0.00  0.00    +0.000 OA
ATOM     17  C   UNL     1      -8.009  -2.121 122.986  0.00  0.00    +0.000 C 
ATOM     18  C   UNL     1      -7.662  -1.164 124.135  0.00  0.00    +0.000 C 
ATOM     19  O   UNL     1      -6.781  -0.316 123.986  0.00  0.00    +0.000 OA
ENDBRANCH  10  13
ENDBRANCH   3   7
BRANCH   1  20
ATOM     20  C   UNL     1      -8.056   4.581 132.378  0.00  0.00    +0.000 C 
BRANCH  20  23
ATOM     21  C   UNL     1      -9.240   6.225 130.953  0.00  0.00    +0.000 C 
ATOM     22  O   UNL     1      -8.185   6.536 130.404  0.00  0.00    +0.000 OA
ATOM     23  N   UNL     1      -9.272   5.241 131.946  0.00  0.00    +0.000 N 
ATOM     24  H   UNL     1     -10.123   5.088 132.460  0.00  0.00    +0.000 HD
BRANCH  21  29
ATOM     25 CL   UNL     1     -13.317   9.065 128.526  0.00  0.00    +0.000 Cl
ATOM     26  C   UNL     1     -12.356   8.097 129.571  0.00  0.00    +0.000 A 
ATOM     27  C   UNL     1     -12.790   7.477 130.711  0.00  0.00    +0.000 A 
ATOM     28  C   UNL     1     -11.743   6.721 131.313  0.00  0.00    +0.000 A 
ATOM     29  C   UNL     1     -10.536   6.829 130.640  0.00  0.00    +0.000 A 
ATOM     30  S   UNL     1     -10.718   7.825 129.242  0.00  0.00    +0.000 S 
ENDBRANCH  21  29
ENDBRANCH  20  23
ENDBRANCH   1  20
TORSDOF 5
ENDMDL
MODEL 5
REMARK VINA RESULT:      -7.3      5.259      8.770
REMARK  Name = Rivaroxaban
REMARK  5 active torsions:
REMARK  status: ('A' for Active; 'I' for Inactive)
REMARK    1  A    between atoms: C_5  and  C_7
REMARK    2  A    between atoms: N_9  and  C_10
REMARK    3  A    between atoms: C_10  and  C_11
REMARK    4  A    between atoms: N_13  and  C_17
REMARK    5  A    between atoms: C_20  and  N_23
REMARK                            x       y       z     vdW  Elec       q    Type
REMARK                         _______ _______ _______ _____ _____    ______ ____
ROOT
ATOM      1  C   UNL     1      -8.534   3.449 131.899  0.00  0.00    +0.000 C 
ATOM      2  C   UNL     1      -7.387   4.272 131.293  0.00  0.00    +0.000 C 
ATOM      3  N   UNL     1      -7.095   5.233 132.331  0.00  0.00    +0.000 N 
ATOM      4  C   UNL     1      -8.056   5.206 133.305  0.00  0.00    +0.000 C 
ATOM      5  O   UNL     1      -8.216   6.013 134.215  0.00  0.00    +0.000 OA
ATOM      6  O   UNL     1      -8.862   4.133 133.130  0.00  0.00    +0.000 OA
ENDROOT
BRANCH   3   7
ATOM      7  C   UNL     1      -5.868   5.913 132.488  0.00  0.00    +0.000 A 
ATOM      8  C   UNL     1      -5.182   5.851 133.696  0.00  0.00    +0.000 A 
ATOM      9  C   UNL     1      -3.949   6.502 133.848  0.00  0.00    +0.000 A 
ATOM     10  C   UNL     1      -3.373   7.212 132.792  0.00  0.00    +0.000 A 
ATOM     11  C   UNL     1      -4.073   7.304 131.584  0.00  0.00    +0.000 A 
ATOM     12  C   UNL     1      -5.298   6.633 131.422  0.00  0.00    +0.000 A 
BRANCH  10  13
ATOM     13  N   UNL     1      -2.103   7.838 132.966  0.00  0.00    +0.000 N 
ATOM     14  C   UNL     1      -2.073   9.263 133.347  0.00  0.00    +0.000 C 
ATOM     15  C   UNL     1      -0.667   9.866 133.333  0.00  0.00    +0.000 C 
ATOM     16  O   UNL     1       0.230   9.000 134.024  0.00  0.00    +0.000 OA
ATOM     17  C   UNL     1       0.360   7.796 133.284  0.00  0.00    +0.000 C 
ATOM     18  C   UNL     1      -0.939   7.072 132.904  0.00  0.00    +0.000 C 
ATOM     19  O   UNL     1      -0.898   5.917 132.476  0.00  0.00    +0.000 OA
ENDBRANCH  10  13
ENDBRANCH   3   7
BRANCH   1  20
ATOM     20  C   UNL     1      -9.911   3.245 131.238  0.00  0.00    +0.000 C 
BRANCH  20  23
ATOM     21  C   UNL     1     -10.636   5.280 130.026  0.00  0.00    +0.000 C 
ATOM     22  O   UNL     1      -9.812   5.066 129.139  0.00  0.00    +0.000 OA
ATOM     23  N   UNL     1     -10.766   4.409 131.112  0.00  0.00    +0.000 N 
ATOM     24  H   UNL     1     -11.362   4.666 131.880  0.00  0.00    +0.000 HD
BRANCH  21  29
ATOM     25 CL   UNL     1     -13.597   9.719 128.576  0.00  0.00    +0.000 Cl
ATOM     26  C   UNL     1     -12.858   8.411 129.411  0.00  0.00    +0.000 A 
ATOM     27  C   UNL     1     -13.068   8.078 130.721  0.00  0.00    +0.000 A 
ATOM     28  C   UNL     1     -12.327   6.915 131.079  0.00  0.00    +0.000 A 
ATOM     29  C   UNL     1     -11.541   6.429 130.045  0.00  0.00    +0.000 A 
ATOM     30  S   UNL     1     -11.762   7.388 128.625  0.00  0.00    +0.000 S 
ENDBRANCH  21  29
ENDBRANCH  20  23
ENDBRANCH   1  20
TORSDOF 5
ENDMDL
MODEL 6
REMARK VINA RESULT:      -7.2      5.752      8.983
REMARK  Name = Rivaroxaban
REMARK  5 active torsions:
REMARK  status: ('A' for Active; 'I' for Inactive)
REMARK    1  A    between atoms: C_5  and  C_7
REMARK    2  A    between atoms: N_9  and  C_10
REMARK    3  A    between atoms: C_10  and  C_11
REMARK    4  A    between atoms: N_13  and  C_17
REMARK    5  A    between atoms: C_20  and  N_23
REMARK                            x       y       z     vdW  Elec       q    Type
REMARK                         _______ _______ _______ _____ _____    ______ ____
ROOT
ATOM      1  C   UNL     1      -5.108   3.517 133.562  0.00  0.00    +0.000 C 
ATOM      2  C   UNL     1      -5.919   3.641 132.263  0.00  0.00    +0.000 C 
ATOM      3  N   UNL     1      -7.203   4.113 132.726  0.00  0.00    +0.000 N 
ATOM      4  C   UNL     1      -7.285   4.042 134.090  0.00  0.00    +0.000 C 
ATOM      5  O   UNL     1      -8.288   4.179 134.784  0.00  0.00    +0.000 OA
ATOM      6  O   UNL     1      -6.065   3.777 134.613  0.00  0.00    +0.000 OA
ENDROOT
BRANCH   3   7
ATOM      7  C   UNL     1      -8.146   4.809 131.940  0.00  0.00    +0.000 A 
ATOM      8  C   UNL     1      -8.003   6.175 131.722  0.00  0.00    +0.000 A 
ATOM      9  C   UNL     1      -8.921   6.867 130.918  0.00  0.00    +0.000 A 
ATOM     10  C   UNL     1      -9.988   6.204 130.307  0.00  0.00    +0.000 A 
ATOM     11  C   UNL     1     -10.155   4.835 130.548  0.00  0.00    +0.000 A 
ATOM     12  C   UNL     1      -9.221   4.136 131.334  0.00  0.00    +0.000 A 
BRANCH  10  13
ATOM     13  N   UNL     1     -10.889   6.926 129.469  0.00  0.00    +0.000 N 
ATOM     14  C   UNL     1     -12.036   7.606 130.100  0.00  0.00    +0.000 C 
ATOM     15  C   UNL     1     -13.022   8.197 129.091  0.00  0.00    +0.000 C 
ATOM     16  O   UNL     1     -12.308   8.934 128.102  0.00  0.00    +0.000 OA
ATOM     17  C   UNL     1     -11.526   8.029 127.336  0.00  0.00    +0.000 C 
ATOM     18  C   UNL     1     -10.598   7.085 128.114  0.00  0.00    +0.000 C 
ATOM     19  O   UNL     1      -9.729   6.447 127.519  0.00  0.00    +0.000 OA
ENDBRANCH  10  13
ENDBRANCH   3   7
BRANCH   1  20
ATOM     20  C   UNL     1      -4.409   2.230 134.039  0.00  0.00    +0.000 C 
BRANCH  20  23
ATOM     21  C   UNL     1      -5.568   0.152 133.352  0.00  0.00    +0.000 C 
ATOM     22  O   UNL     1      -6.437   0.335 134.202  0.00  0.00    +0.000 OA
ATOM     23  N   UNL     1      -4.519   1.061 133.189  0.00  0.00    +0.000 N 
ATOM     24  H   UNL     1      -3.760   0.831 132.570  0.00  0.00    +0.000 HD
BRANCH  21  29
ATOM     25 CL   UNL     1      -5.454  -4.987 131.315  0.00  0.00    +0.000 Cl
ATOM     26  C   UNL     1      -5.477  -3.283 131.531  0.00  0.00    +0.000 A 
ATOM     27  C   UNL     1      -5.483  -2.349 130.530  0.00  0.00    +0.000 A 
ATOM     28  C   UNL     1      -5.545  -1.029 131.062  0.00  0.00    +0.000 A 
ATOM     29  C   UNL     1      -5.535  -0.998 132.448  0.00  0.00    +0.000 A 
ATOM     30  S   UNL     1      -5.498  -2.604 133.081  0.00  0.00    +0.000 S 
ENDBRANCH  21  29
ENDBRANCH  20  23
ENDBRANCH   1  20
TORSDOF 5
ENDMDL
MODEL 7
REMARK VINA RESULT:      -7.1      6.235      8.765
REMARK  Name = Rivaroxaban
REMARK  5 active torsions:
REMARK  status: ('A' for Active; 'I' for Inactive)
REMARK    1  A    between atoms: C_5  and  C_7
REMARK    2  A    between atoms: N_9  and  C_10
REMARK    3  A    between atoms: C_10  and  C_11
REMARK    4  A    between atoms: N_13  and  C_17
REMARK    5  A    between atoms: C_20  and  N_23
REMARK                            x       y       z     vdW  Elec       q    Type
REMARK                         _______ _______ _______ _____ _____    ______ ____
ROOT
ATOM      1  C   UNL     1      -5.000   3.884 134.164  0.00  0.00    +0.000 C 
ATOM      2  C   UNL     1      -5.946   5.030 133.773  0.00  0.00    +0.000 C 
ATOM      3  N   UNL     1      -6.183   4.790 132.369  0.00  0.00    +0.000 N 
ATOM      4  C   UNL     1      -5.332   3.832 131.887  0.00  0.00    +0.000 C 
ATOM      5  O   UNL     1      -5.136   3.532 130.714  0.00  0.00    +0.000 OA
ATOM      6  O   UNL     1      -4.687   3.229 132.913  0.00  0.00    +0.000 OA
ENDROOT
BRANCH   3   7
ATOM      7  C   UNL     1      -7.300   5.253 131.641  0.00  0.00    +0.000 A 
ATOM      8  C   UNL     1      -8.271   4.359 131.204  0.00  0.00    +0.000 A 
ATOM      9  C   UNL     1      -9.398   4.817 130.505  0.00  0.00    +0.000 A 
ATOM     10  C   UNL     1      -9.581   6.178 130.245  0.00  0.00    +0.000 A 
ATOM     11  C   UNL     1      -8.592   7.079 130.655  0.00  0.00    +0.000 A 
ATOM     12  C   UNL     1      -7.474   6.623 131.377  0.00  0.00    +0.000 A 
BRANCH  10  13
ATOM     13  N   UNL     1     -10.752   6.619 129.560  0.00  0.00    +0.000 N 
ATOM     14  C   UNL     1     -11.955   6.923 130.358  0.00  0.00    +0.000 C 
ATOM     15  C   UNL     1     -13.191   7.217 129.506  0.00  0.00    +0.000 C 
ATOM     16  O   UNL     1     -12.852   8.148 128.480  0.00  0.00    +0.000 OA
ATOM     17  C   UNL     1     -11.948   7.524 127.580  0.00  0.00    +0.000 C 
ATOM     18  C   UNL     1     -10.696   6.879 128.190  0.00  0.00    +0.000 C 
ATOM     19  O   UNL     1      -9.764   6.535 127.463  0.00  0.00    +0.000 OA
ENDBRANCH  10  13
ENDBRANCH   3   7
BRANCH   1  20
ATOM     20  C   UNL     1      -3.616   4.073 134.812  0.00  0.00    +0.000 C 
BRANCH  20  23
ATOM     21  C   UNL     1      -2.017   5.512 133.584  0.00  0.00    +0.000 C 
ATOM     22  O   UNL     1      -1.747   4.589 132.818  0.00  0.00    +0.000 OA
ATOM     23  N   UNL     1      -2.955   5.347 134.607  0.00  0.00    +0.000 N 
ATOM     24  H   UNL     1      -3.072   6.076 135.290  0.00  0.00    +0.000 HD
BRANCH  21  29
ATOM     25 CL   UNL     1      -1.220  10.984 133.543  0.00  0.00    +0.000 Cl
ATOM     26  C   UNL     1      -1.042   9.275 133.489  0.00  0.00    +0.000 A 
ATOM     27  C   UNL     1       0.135   8.599 133.323  0.00  0.00    +0.000 A 
ATOM     28  C   UNL     1      -0.073   7.190 133.367  0.00  0.00    +0.000 A 
ATOM     29  C   UNL     1      -1.406   6.840 133.515  0.00  0.00    +0.000 A 
ATOM     30  S   UNL     1      -2.385   8.257 133.648  0.00  0.00    +0.000 S 
ENDBRANCH  21  29
ENDBRANCH  20  23
ENDBRANCH   1  20
TORSDOF 5
ENDMDL
MODEL 8
REMARK VINA RESULT:      -6.9      7.022      8.609
REMARK  Name = Rivaroxaban
REMARK  5 active torsions:
REMARK  status: ('A' for Active; 'I' for Inactive)
REMARK    1  A    between atoms: C_5  and  C_7
REMARK    2  A    between atoms: N_9  and  C_10
REMARK    3  A    between atoms: C_10  and  C_11
REMARK    4  A    between atoms: N_13  and  C_17
REMARK    5  A    between atoms: C_20  and  N_23
REMARK                            x       y       z     vdW  Elec       q    Type
REMARK                         _______ _______ _______ _____ _____    ______ ____
ROOT
ATOM      1  C   UNL     1      -5.099  -4.312 132.212  0.00  0.00    +0.000 C 
ATOM      2  C   UNL     1      -5.644  -4.703 130.830  0.00  0.00    +0.000 C 
ATOM      3  N   UNL     1      -6.621  -3.673 130.564  0.00  0.00    +0.000 N 
ATOM      4  C   UNL     1      -6.854  -2.921 131.683  0.00  0.00    +0.000 C 
ATOM      5  O   UNL     1      -7.752  -2.103 131.857  0.00  0.00    +0.000 OA
ATOM      6  O   UNL     1      -5.935  -3.210 132.633  0.00  0.00    +0.000 OA
ENDROOT
BRANCH   3   7
ATOM      7  C   UNL     1      -7.077  -3.296 129.283  0.00  0.00    +0.000 A 
ATOM      8  C   UNL     1      -6.291  -2.486 128.470  0.00  0.00    +0.000 A 
ATOM      9  C   UNL     1      -6.727  -2.131 127.184  0.00  0.00    +0.000 A 
ATOM     10  C   UNL     1      -7.947  -2.593 126.683  0.00  0.00    +0.000 A 
ATOM     11  C   UNL     1      -8.756  -3.383 127.508  0.00  0.00    +0.000 A 
ATOM     12  C   UNL     1      -8.310  -3.759 128.787  0.00  0.00    +0.000 A 
BRANCH  10  13
ATOM     13  N   UNL     1      -8.351  -2.242 125.361  0.00  0.00    +0.000 N 
ATOM     14  C   UNL     1      -8.844  -3.314 124.474  0.00  0.00    +0.000 C 
ATOM     15  C   UNL     1      -9.081  -2.851 123.036  0.00  0.00    +0.000 C 
ATOM     16  O   UNL     1      -9.824  -1.634 123.042  0.00  0.00    +0.000 OA
ATOM     17  C   UNL     1      -9.017  -0.612 123.609  0.00  0.00    +0.000 C 
ATOM     18  C   UNL     1      -8.397  -0.900 124.983  0.00  0.00    +0.000 C 
ATOM     19  O   UNL     1      -7.890   0.014 125.635  0.00  0.00    +0.000 OA
ENDBRANCH  10  13
ENDBRANCH   3   7
BRANCH   1  20
ATOM     20  C   UNL     1      -5.094  -5.235 133.445  0.00  0.00    +0.000 C 
BRANCH  20  23
ATOM     21  C   UNL     1      -6.447  -5.204 135.520  0.00  0.00    +0.000 C 
ATOM     22  O   UNL     1      -5.475  -4.828 136.170  0.00  0.00    +0.000 OA
ATOM     23  N   UNL     1      -6.352  -5.420 134.142  0.00  0.00    +0.000 N 
ATOM     24  H   UNL     1      -7.126  -5.838 133.654  0.00  0.00    +0.000 HD
BRANCH  21  29
ATOM     25 CL   UNL     1     -11.431  -4.589 137.835  0.00  0.00    +0.000 Cl
ATOM     26  C   UNL     1      -9.986  -5.198 137.132  0.00  0.00    +0.000 A 
ATOM     27  C   UNL     1      -9.714  -6.514 136.875  0.00  0.00    +0.000 A 
ATOM     28  C   UNL     1      -8.443  -6.662 136.250  0.00  0.00    +0.000 A 
ATOM     29  C   UNL     1      -7.768  -5.461 136.094  0.00  0.00    +0.000 A 
ATOM     30  S   UNL     1      -8.733  -4.154 136.680  0.00  0.00    +0.000 S 
ENDBRANCH  21  29
ENDBRANCH  20  23
ENDBRANCH   1  20
TORSDOF 5
ENDMDL
MODEL 9
REMARK VINA RESULT:      -6.9      5.630      9.331
REMARK  Name = Rivaroxaban
REMARK  5 active torsions:
REMARK  status: ('A' for Active; 'I' for Inactive)
REMARK    1  A    between atoms: C_5  and  C_7
REMARK    2  A    between atoms: N_9  and  C_10
REMARK    3  A    between atoms: C_10  and  C_11
REMARK    4  A    between atoms: N_13  and  C_17
REMARK    5  A    between atoms: C_20  and  N_23
REMARK                            x       y       z     vdW  Elec       q    Type
REMARK                         _______ _______ _______ _____ _____    ______ ____
ROOT
ATOM      1  C   UNL     1      -5.192   0.446 131.274  0.00  0.00    +0.000 C 
ATOM      2  C   UNL     1      -6.253   1.065 130.351  0.00  0.00    +0.000 C 
ATOM      3  N   UNL     1      -7.170   1.682 131.280  0.00  0.00    +0.000 N 
ATOM      4  C   UNL     1      -6.896   1.297 132.564  0.00  0.00    +0.000 C 
ATOM      5  O   UNL     1      -7.589   1.478 133.561  0.00  0.00    +0.000 OA
ATOM      6  O   UNL     1      -5.710   0.645 132.608  0.00  0.00    +0.000 OA
ENDROOT
BRANCH   3   7
ATOM      7  C   UNL     1      -8.048   2.743 130.974  0.00  0.00    +0.000 A 
ATOM      8  C   UNL     1      -9.377   2.483 130.657  0.00  0.00    +0.000 A 
ATOM      9  C   UNL     1     -10.261   3.536 130.379  0.00  0.00    +0.000 A 
ATOM     10  C   UNL     1      -9.837   4.866 130.427  0.00  0.00    +0.000 A 
ATOM     11  C   UNL     1      -8.493   5.133 130.715  0.00  0.00    +0.000 A 
ATOM     12  C   UNL     1      -7.612   4.080 131.017  0.00  0.00    +0.000 A 
BRANCH  10  13
ATOM     13  N   UNL     1     -10.766   5.919 130.171  0.00  0.00    +0.000 N 
ATOM     14  C   UNL     1     -11.753   6.249 131.216  0.00  0.00    +0.000 C 
ATOM     15  C   UNL     1     -12.800   7.268 130.763  0.00  0.00    +0.000 C 
ATOM     16  O   UNL     1     -12.152   8.366 130.126  0.00  0.00    +0.000 OA
ATOM     17  C   UNL     1     -11.564   7.909 128.917  0.00  0.00    +0.000 C 
ATOM     18  C   UNL     1     -10.638   6.688 129.014  0.00  0.00    +0.000 C 
ATOM     19  O   UNL     1      -9.916   6.385 128.064  0.00  0.00    +0.000 OA
ENDBRANCH  10  13
ENDBRANCH   3   7
BRANCH   1  20
ATOM     20  C   UNL     1      -4.792  -1.042 131.275  0.00  0.00    +0.000 C 
BRANCH  20  23
ATOM     21  C   UNL     1      -6.579  -2.560 132.071  0.00  0.00    +0.000 C 
ATOM     22  O   UNL     1      -7.158  -2.475 130.991  0.00  0.00    +0.000 OA
ATOM     23  N   UNL     1      -5.376  -1.886 132.299  0.00  0.00    +0.000 N 
ATOM     24  H   UNL     1      -4.983  -1.877 133.224  0.00  0.00    +0.000 HD
BRANCH  21  29
ATOM     25 CL   UNL     1      -7.069  -6.333 136.084  0.00  0.00    +0.000 Cl
ATOM     26  C   UNL     1      -7.298  -5.029 134.989  0.00  0.00    +0.000 A 
ATOM     27  C   UNL     1      -8.362  -4.169 134.980  0.00  0.00    +0.000 A 
ATOM     28  C   UNL     1      -8.213  -3.180 133.965  0.00  0.00    +0.000 A 
ATOM     29  C   UNL     1      -7.067  -3.349 133.203  0.00  0.00    +0.000 A 
ATOM     30  S   UNL     1      -6.159  -4.700 133.780  0.00  0.00    +0.000 S 
ENDBRANCH  21  29
ENDBRANCH  20  23
ENDBRANCH   1  20
TORSDOF 5
ENDMDL
