MODEL 1
REMARK VINA RESULT:      -5.9      0.000      0.000
REMARK  Name = Rivastigmine
REMARK  10 active torsions:
REMARK  status: ('A' for Active; 'I' for Inactive)
REMARK    1  A    between atoms: C_1  and  C_2
REMARK    2  A    between atoms: C_2  and  N_3
REMARK    3  A    between atoms: N_3  and  C_4
REMARK    4  A    between atoms: C_5  and  O_7
REMARK    5  A    between atoms: O_7  and  C_8
REMARK    6  A    between atoms: C_12  and  C_14
REMARK    7  A    between atoms: C_14  and  C_15
REMARK    8  A    between atoms: C_14  and  N_16
REMARK    9  A    between atoms: N_16  and  C_17
REMARK   10  A    between atoms: N_16  and  C_18
REMARK                            x       y       z     vdW  Elec       q    Type
REMARK                         _______ _______ _______ _____ _____    ______ ____
ROOT
ATOM      1  C   UNL     1     -10.010   6.494 131.578  0.00  0.00    +0.000 A 
ATOM      2  C   UNL     1      -9.030   7.017 130.741  0.00  0.00    +0.000 A 
ATOM      3  C   UNL     1      -7.688   6.728 130.993  0.00  0.00    +0.000 A 
ATOM      4  C   UNL     1      -7.333   5.951 132.098  0.00  0.00    +0.000 A 
ATOM      5  C   UNL     1      -8.297   5.494 133.012  0.00  0.00    +0.000 A 
ATOM      6  C   UNL     1      -9.643   5.740 132.689  0.00  0.00    +0.000 A 
ENDROOT
BRANCH   5   7
ATOM      7  C   UNL     1      -7.904   4.719 134.283  0.00  0.00    +0.000 C 
ATOM      8  C   UNL     1      -7.685   5.711 135.456  0.00  0.00    +0.000 C 
BRANCH   7   9
ATOM      9  N   UNL     1      -6.691   3.856 134.118  0.00  0.00    +0.000 NA
ATOM     10  C   UNL     1      -5.863   3.859 135.331  0.00  0.00    +0.000 C 
ATOM     11  C   UNL     1      -7.008   2.455 133.821  0.00  0.00    +0.000 C 
ENDBRANCH   7   9
ENDBRANCH   5   7
BRANCH   1  12
ATOM     12  O   UNL     1     -11.372   6.655 131.225  0.00  0.00    +0.000 OA
BRANCH  12  15
ATOM     13  N   UNL     1     -12.395   7.269 129.204  0.00  0.00    +0.000 N 
ATOM     14  C   UNL     1     -12.460   8.634 129.704  0.00  0.00    +0.000 C 
ATOM     15  C   UNL     1     -11.817   6.247 129.957  0.00  0.00    +0.000 C 
ATOM     16  O   UNL     1     -11.728   5.094 129.529  0.00  0.00    +0.000 OA
BRANCH  13  18
ATOM     17  C   UNL     1     -12.081   7.194 126.693  0.00  0.00    +0.000 C 
ATOM     18  C   UNL     1     -12.956   6.904 127.899  0.00  0.00    +0.000 C 
ENDBRANCH  13  18
ENDBRANCH  12  15
ENDBRANCH   1  12
TORSDOF 5
ENDMDL
MODEL 2
REMARK VINA RESULT:      -5.8      1.714      2.334
REMARK  Name = Rivastigmine
REMARK  10 active torsions:
REMARK  status: ('A' for Active; 'I' for Inactive)
REMARK    1  A    between atoms: C_1  and  C_2
REMARK    2  A    between atoms: C_2  and  N_3
REMARK    3  A    between atoms: N_3  and  C_4
REMARK    4  A    between atoms: C_5  and  O_7
REMARK    5  A    between atoms: O_7  and  C_8
REMARK    6  A    between atoms: C_12  and  C_14
REMARK    7  A    between atoms: C_14  and  C_15
REMARK    8  A    between atoms: C_14  and  N_16
REMARK    9  A    between atoms: N_16  and  C_17
REMARK   10  A    between atoms: N_16  and  C_18
REMARK                            x       y       z     vdW  Elec       q    Type
REMARK                         _______ _______ _______ _____ _____    ______ ____
ROOT
ATOM      1  C   UNL     1     -10.313   6.000 130.094  0.00  0.00    +0.000 A 
ATOM      2  C   UNL     1      -9.367   7.009 130.247  0.00  0.00    +0.000 A 
ATOM      3  C   UNL     1      -8.320   6.833 131.153  0.00  0.00    +0.000 A 
ATOM      4  C   UNL     1      -8.245   5.669 131.923  0.00  0.00    +0.000 A 
ATOM      5  C   UNL     1      -9.241   4.681 131.855  0.00  0.00    +0.000 A 
ATOM      6  C   UNL     1     -10.241   4.856 130.882  0.00  0.00    +0.000 A 
ENDROOT
BRANCH   5   7
ATOM      7  C   UNL     1      -9.215   3.443 132.769  0.00  0.00    +0.000 C 
ATOM      8  C   UNL     1      -8.675   3.836 134.170  0.00  0.00    +0.000 C 
BRANCH   7   9
ATOM      9  N   UNL     1      -8.417   2.300 132.223  0.00  0.00    +0.000 NA
ATOM     10  C   UNL     1      -7.388   1.862 133.175  0.00  0.00    +0.000 C 
ATOM     11  C   UNL     1      -9.230   1.122 131.902  0.00  0.00    +0.000 C 
ENDBRANCH   7   9
ENDBRANCH   5   7
BRANCH   1  12
ATOM     12  O   UNL     1     -11.275   6.114 129.062  0.00  0.00    +0.000 OA
BRANCH  12  15
ATOM     13  N   UNL     1     -12.292   8.092 128.311  0.00  0.00    +0.000 N 
ATOM     14  C   UNL     1     -11.241   8.200 127.312  0.00  0.00    +0.000 C 
ATOM     15  C   UNL     1     -12.343   7.017 129.198  0.00  0.00    +0.000 C 
ATOM     16  O   UNL     1     -13.248   6.899 130.028  0.00  0.00    +0.000 OA
BRANCH  13  18
ATOM     17  C   UNL     1     -13.112  10.147 129.543  0.00  0.00    +0.000 C 
ATOM     18  C   UNL     1     -13.330   9.119 128.446  0.00  0.00    +0.000 C 
ENDBRANCH  13  18
ENDBRANCH  12  15
ENDBRANCH   1  12
TORSDOF 5
ENDMDL
MODEL 3
REMARK VINA RESULT:      -5.8      2.098      2.863
REMARK  Name = Rivastigmine
REMARK  10 active torsions:
REMARK  status: ('A' for Active; 'I' for Inactive)
REMARK    1  A    between atoms: C_1  and  C_2
REMARK    2  A    between atoms: C_2  and  N_3
REMARK    3  A    between atoms: N_3  and  C_4
REMARK    4  A    between atoms: C_5  and  O_7
REMARK    5  A    between atoms: O_7  and  C_8
REMARK    6  A    between atoms: C_12  and  C_14
REMARK    7  A    between atoms: C_14  and  C_15
REMARK    8  A    between atoms: C_14  and  N_16
REMARK    9  A    between atoms: N_16  and  C_17
REMARK   10  A    between atoms: N_16  and  C_18
REMARK                            x       y       z     vdW  Elec       q    Type
REMARK                         _______ _______ _______ _____ _____    ______ ____
ROOT
ATOM      1  C   UNL     1      -8.986   6.941 130.709  0.00  0.00    +0.000 A 
ATOM      2  C   UNL     1      -9.911   6.462 131.631  0.00  0.00    +0.000 A 
ATOM      3  C   UNL     1      -9.457   5.833 132.791  0.00  0.00    +0.000 A 
ATOM      4  C   UNL     1      -8.088   5.654 133.004  0.00  0.00    +0.000 A 
ATOM      5  C   UNL     1      -7.141   6.042 132.042  0.00  0.00    +0.000 A 
ATOM      6  C   UNL     1      -7.626   6.737 130.920  0.00  0.00    +0.000 A 
ENDROOT
BRANCH   5   7
ATOM      7  C   UNL     1      -5.638   5.761 132.228  0.00  0.00    +0.000 C 
ATOM      8  C   UNL     1      -5.313   5.625 133.739  0.00  0.00    +0.000 C 
BRANCH   7   9
ATOM      9  N   UNL     1      -4.746   6.792 131.610  0.00  0.00    +0.000 NA
ATOM     10  C   UNL     1      -3.613   7.115 132.487  0.00  0.00    +0.000 C 
ATOM     11  C   UNL     1      -4.183   6.378 130.320  0.00  0.00    +0.000 C 
ENDBRANCH   7   9
ENDBRANCH   5   7
BRANCH   1  12
ATOM     12  O   UNL     1      -9.444   7.719 129.618  0.00  0.00    +0.000 OA
BRANCH  12  15
ATOM     13  N   UNL     1     -11.516   7.635 128.516  0.00  0.00    +0.000 N 
ATOM     14  C   UNL     1     -11.960   8.730 129.365  0.00  0.00    +0.000 C 
ATOM     15  C   UNL     1     -10.222   7.122 128.612  0.00  0.00    +0.000 C 
ATOM     16  O   UNL     1      -9.826   6.216 127.876  0.00  0.00    +0.000 OA
BRANCH  13  18
ATOM     17  C   UNL     1     -13.887   6.989 127.909  0.00  0.00    +0.000 C 
ATOM     18  C   UNL     1     -12.413   7.008 127.542  0.00  0.00    +0.000 C 
ENDBRANCH  13  18
ENDBRANCH  12  15
ENDBRANCH   1  12
TORSDOF 5
ENDMDL
MODEL 4
REMARK VINA RESULT:      -5.8      2.986      6.724
REMARK  Name = Rivastigmine
REMARK  10 active torsions:
REMARK  status: ('A' for Active; 'I' for Inactive)
REMARK    1  A    between atoms: C_1  and  C_2
REMARK    2  A    between atoms: C_2  and  N_3
REMARK    3  A    between atoms: N_3  and  C_4
REMARK    4  A    between atoms: C_5  and  O_7
REMARK    5  A    between atoms: O_7  and  C_8
REMARK    6  A    between atoms: C_12  and  C_14
REMARK    7  A    between atoms: C_14  and  C_15
REMARK    8  A    between atoms: C_14  and  N_16
REMARK    9  A    between atoms: N_16  and  C_17
REMARK   10  A    between atoms: N_16  and  C_18
REMARK                            x       y       z     vdW  Elec       q    Type
REMARK                         _______ _______ _______ _____ _____    ______ ____
ROOT
ATOM      1  C   UNL     1      -7.834   6.821 131.192  0.00  0.00    +0.000 A 
ATOM      2  C   UNL     1      -8.033   6.036 132.323  0.00  0.00    +0.000 A 
ATOM      3  C   UNL     1      -9.325   5.627 132.654  0.00  0.00    +0.000 A 
ATOM      4  C   UNL     1     -10.412   6.033 131.875  0.00  0.00    +0.000 A 
ATOM      5  C   UNL     1     -10.246   6.904 130.786  0.00  0.00    +0.000 A 
ATOM      6  C   UNL     1      -8.926   7.238 130.437  0.00  0.00    +0.000 A 
ENDROOT
BRANCH   5   7
ATOM      7  C   UNL     1     -11.449   7.432 129.982  0.00  0.00    +0.000 C 
ATOM      8  C   UNL     1     -12.723   7.408 130.868  0.00  0.00    +0.000 C 
BRANCH   7   9
ATOM      9  N   UNL     1     -11.704   6.687 128.709  0.00  0.00    +0.000 NA
ATOM     10  C   UNL     1     -13.143   6.563 128.440  0.00  0.00    +0.000 C 
ATOM     11  C   UNL     1     -11.102   7.321 127.531  0.00  0.00    +0.000 C 
ENDBRANCH   7   9
ENDBRANCH   5   7
BRANCH   1  12
ATOM     12  O   UNL     1      -6.510   7.095 130.772  0.00  0.00    +0.000 OA
BRANCH  12  15
ATOM     13  N   UNL     1      -4.384   6.152 130.455  0.00  0.00    +0.000 N 
ATOM     14  C   UNL     1      -3.851   7.161 131.358  0.00  0.00    +0.000 C 
ATOM     15  C   UNL     1      -5.746   6.085 130.164  0.00  0.00    +0.000 C 
ATOM     16  O   UNL     1      -6.212   5.214 129.426  0.00  0.00    +0.000 OA
BRANCH  13  18
ATOM     17  C   UNL     1      -2.502   5.747 128.810  0.00  0.00    +0.000 C 
ATOM     18  C   UNL     1      -3.510   5.178 129.793  0.00  0.00    +0.000 C 
ENDBRANCH  13  18
ENDBRANCH  12  15
ENDBRANCH   1  12
TORSDOF 5
ENDMDL
MODEL 5
REMARK VINA RESULT:      -5.5      9.201     11.981
REMARK  Name = Rivastigmine
REMARK  10 active torsions:
REMARK  status: ('A' for Active; 'I' for Inactive)
REMARK    1  A    between atoms: C_1  and  C_2
REMARK    2  A    between atoms: C_2  and  N_3
REMARK    3  A    between atoms: N_3  and  C_4
REMARK    4  A    between atoms: C_5  and  O_7
REMARK    5  A    between atoms: O_7  and  C_8
REMARK    6  A    between atoms: C_12  and  C_14
REMARK    7  A    between atoms: C_14  and  C_15
REMARK    8  A    between atoms: C_14  and  N_16
REMARK    9  A    between atoms: N_16  and  C_17
REMARK   10  A    between atoms: N_16  and  C_18
REMARK                            x       y       z     vdW  Elec       q    Type
REMARK                         _______ _______ _______ _____ _____    ______ ____
ROOT
ATOM      1  C   UNL     1      -7.228  -2.490 128.550  0.00  0.00    +0.000 A 
ATOM      2  C   UNL     1      -8.196  -3.385 128.994  0.00  0.00    +0.000 A 
ATOM      3  C   UNL     1      -9.070  -3.961 128.071  0.00  0.00    +0.000 A 
ATOM      4  C   UNL     1      -8.994  -3.614 126.720  0.00  0.00    +0.000 A 
ATOM      5  C   UNL     1      -8.090  -2.641 126.264  0.00  0.00    +0.000 A 
ATOM      6  C   UNL     1      -7.177  -2.134 127.206  0.00  0.00    +0.000 A 
ENDROOT
BRANCH   5   7
ATOM      7  C   UNL     1      -8.066  -2.184 124.794  0.00  0.00    +0.000 C 
ATOM      8  C   UNL     1      -8.927  -3.146 123.933  0.00  0.00    +0.000 C 
BRANCH   7   9
ATOM      9  N   UNL     1      -6.691  -2.078 124.212  0.00  0.00    +0.000 NA
ATOM     10  C   UNL     1      -6.095  -3.403 124.001  0.00  0.00    +0.000 C 
ATOM     11  C   UNL     1      -6.657  -1.384 122.919  0.00  0.00    +0.000 C 
ENDBRANCH   7   9
ENDBRANCH   5   7
BRANCH   1  12
ATOM     12  O   UNL     1      -6.244  -2.036 129.462  0.00  0.00    +0.000 OA
BRANCH  12  15
ATOM     13  N   UNL     1      -5.500  -2.995 131.471  0.00  0.00    +0.000 N 
ATOM     14  C   UNL     1      -6.475  -2.173 132.172  0.00  0.00    +0.000 C 
ATOM     15  C   UNL     1      -5.386  -2.959 130.081  0.00  0.00    +0.000 C 
ATOM     16  O   UNL     1      -4.586  -3.675 129.475  0.00  0.00    +0.000 OA
BRANCH  13  18
ATOM     17  C   UNL     1      -5.151  -5.211 132.644  0.00  0.00    +0.000 C 
ATOM     18  C   UNL     1      -4.581  -3.878 132.195  0.00  0.00    +0.000 C 
ENDBRANCH  13  18
ENDBRANCH  12  15
ENDBRANCH   1  12
TORSDOF 5
ENDMDL
MODEL 6
REMARK VINA RESULT:      -5.5      8.485     11.245
REMARK  Name = Rivastigmine
REMARK  10 active torsions:
REMARK  status: ('A' for Active; 'I' for Inactive)
REMARK    1  A    between atoms: C_1  and  C_2
REMARK    2  A    between atoms: C_2  and  N_3
REMARK    3  A    between atoms: N_3  and  C_4
REMARK    4  A    between atoms: C_5  and  O_7
REMARK    5  A    between atoms: O_7  and  C_8
REMARK    6  A    between atoms: C_12  and  C_14
REMARK    7  A    between atoms: C_14  and  C_15
REMARK    8  A    between atoms: C_14  and  N_16
REMARK    9  A    between atoms: N_16  and  C_17
REMARK   10  A    between atoms: N_16  and  C_18
REMARK                            x       y       z     vdW  Elec       q    Type
REMARK                         _______ _______ _______ _____ _____    ______ ____
ROOT
ATOM      1  C   UNL     1      -7.656  -2.270 128.588  0.00  0.00    +0.000 A 
ATOM      2  C   UNL     1      -8.444  -3.376 128.890  0.00  0.00    +0.000 A 
ATOM      3  C   UNL     1      -9.054  -4.085 127.854  0.00  0.00    +0.000 A 
ATOM      4  C   UNL     1      -8.901  -3.665 126.530  0.00  0.00    +0.000 A 
ATOM      5  C   UNL     1      -8.190  -2.496 126.210  0.00  0.00    +0.000 A 
ATOM      6  C   UNL     1      -7.530  -1.847 127.268  0.00  0.00    +0.000 A 
ENDROOT
BRANCH   5   7
ATOM      7  C   UNL     1      -8.099  -1.975 124.764  0.00  0.00    +0.000 C 
ATOM      8  C   UNL     1      -8.968  -2.860 123.832  0.00  0.00    +0.000 C 
BRANCH   7   9
ATOM      9  N   UNL     1      -6.701  -1.901 124.231  0.00  0.00    +0.000 NA
ATOM     10  C   UNL     1      -6.111  -3.238 124.089  0.00  0.00    +0.000 C 
ATOM     11  C   UNL     1      -6.612  -1.252 122.919  0.00  0.00    +0.000 C 
ENDBRANCH   7   9
ENDBRANCH   5   7
BRANCH   1  12
ATOM     12  O   UNL     1      -6.912  -1.655 129.624  0.00  0.00    +0.000 OA
BRANCH  12  15
ATOM     13  N   UNL     1      -7.035  -2.114 131.923  0.00  0.00    +0.000 N 
ATOM     14  C   UNL     1      -5.937  -3.053 131.748  0.00  0.00    +0.000 C 
ATOM     15  C   UNL     1      -7.530  -1.369 130.853  0.00  0.00    +0.000 C 
ATOM     16  O   UNL     1      -8.438  -0.548 130.997  0.00  0.00    +0.000 OA
BRANCH  13  18
ATOM     17  C   UNL     1      -8.145  -3.194 133.926  0.00  0.00    +0.000 C 
ATOM     18  C   UNL     1      -7.684  -1.929 133.224  0.00  0.00    +0.000 C 
ENDBRANCH  13  18
ENDBRANCH  12  15
ENDBRANCH   1  12
TORSDOF 5
ENDMDL
MODEL 7
REMARK VINA RESULT:      -5.4      8.157      9.624
REMARK  Name = Rivastigmine
REMARK  10 active torsions:
REMARK  status: ('A' for Active; 'I' for Inactive)
REMARK    1  A    between atoms: C_1  and  C_2
REMARK    2  A    between atoms: C_2  and  N_3
REMARK    3  A    between atoms: N_3  and  C_4
REMARK    4  A    between atoms: C_5  and  O_7
REMARK    5  A    between atoms: O_7  and  C_8
REMARK    6  A    between atoms: C_12  and  C_14
REMARK    7  A    between atoms: C_14  and  C_15
REMARK    8  A    between atoms: C_14  and  N_16
REMARK    9  A    between atoms: N_16  and  C_17
REMARK   10  A    between atoms: N_16  and  C_18
REMARK                            x       y       z     vdW  Elec       q    Type
REMARK                         _______ _______ _______ _____ _____    ______ ____
ROOT
ATOM      1  C   UNL     1      -7.495  -2.388 126.529  0.00  0.00    +0.000 A 
ATOM      2  C   UNL     1      -8.677  -3.106 126.378  0.00  0.00    +0.000 A 
ATOM      3  C   UNL     1      -9.231  -3.755 127.483  0.00  0.00    +0.000 A 
ATOM      4  C   UNL     1      -8.583  -3.712 128.720  0.00  0.00    +0.000 A 
ATOM      5  C   UNL     1      -7.340  -3.076 128.873  0.00  0.00    +0.000 A 
ATOM      6  C   UNL     1      -6.847  -2.372 127.761  0.00  0.00    +0.000 A 
ENDROOT
BRANCH   5   7
ATOM      7  C   UNL     1      -6.575  -3.107 130.209  0.00  0.00    +0.000 C 
ATOM      8  C   UNL     1      -5.937  -4.506 130.416  0.00  0.00    +0.000 C 
BRANCH   7   9
ATOM      9  N   UNL     1      -7.413  -2.753 131.399  0.00  0.00    +0.000 NA
ATOM     10  C   UNL     1      -6.746  -3.123 132.653  0.00  0.00    +0.000 C 
ATOM     11  C   UNL     1      -7.726  -1.323 131.487  0.00  0.00    +0.000 C 
ENDBRANCH   7   9
ENDBRANCH   5   7
BRANCH   1  12
ATOM     12  O   UNL     1      -7.027  -1.602 125.449  0.00  0.00    +0.000 OA
BRANCH  12  15
ATOM     13  N   UNL     1      -8.244  -0.479 123.785  0.00  0.00    +0.000 N 
ATOM     14  C   UNL     1      -8.103  -1.662 122.949  0.00  0.00    +0.000 C 
ATOM     15  C   UNL     1      -7.723  -0.440 125.078  0.00  0.00    +0.000 C 
ATOM     16  O   UNL     1      -7.865   0.545 125.807  0.00  0.00    +0.000 OA
BRANCH  13  18
ATOM     17  C   UNL     1     -10.213   0.510 122.538  0.00  0.00    +0.000 C 
ATOM     18  C   UNL     1      -8.916   0.728 123.297  0.00  0.00    +0.000 C 
ENDBRANCH  13  18
ENDBRANCH  12  15
ENDBRANCH   1  12
TORSDOF 5
ENDMDL
MODEL 8
REMARK VINA RESULT:      -5.4      7.669      9.014
REMARK  Name = Rivastigmine
REMARK  10 active torsions:
REMARK  status: ('A' for Active; 'I' for Inactive)
REMARK    1  A    between atoms: C_1  and  C_2
REMARK    2  A    between atoms: C_2  and  N_3
REMARK    3  A    between atoms: N_3  and  C_4
REMARK    4  A    between atoms: C_5  and  O_7
REMARK    5  A    between atoms: O_7  and  C_8
REMARK    6  A    between atoms: C_12  and  C_14
REMARK    7  A    between atoms: C_14  and  C_15
REMARK    8  A    between atoms: C_14  and  N_16
REMARK    9  A    between atoms: N_16  and  C_17
REMARK   10  A    between atoms: N_16  and  C_18
REMARK                            x       y       z     vdW  Elec       q    Type
REMARK                         _______ _______ _______ _____ _____    ______ ____
ROOT
ATOM      1  C   UNL     1      -8.431  -2.249 126.365  0.00  0.00    +0.000 A 
ATOM      2  C   UNL     1      -9.085  -3.438 126.674  0.00  0.00    +0.000 A 
ATOM      3  C   UNL     1      -9.005  -3.946 127.972  0.00  0.00    +0.000 A 
ATOM      4  C   UNL     1      -8.247  -3.283 128.940  0.00  0.00    +0.000 A 
ATOM      5  C   UNL     1      -7.501  -2.135 128.626  0.00  0.00    +0.000 A 
ATOM      6  C   UNL     1      -7.661  -1.610 127.332  0.00  0.00    +0.000 A 
ENDROOT
BRANCH   5   7
ATOM      7  C   UNL     1      -6.588  -1.455 129.663  0.00  0.00    +0.000 C 
ATOM      8  C   UNL     1      -7.162  -0.062 130.034  0.00  0.00    +0.000 C 
BRANCH   7   9
ATOM      9  N   UNL     1      -5.164  -1.314 129.221  0.00  0.00    +0.000 NA
ATOM     10  C   UNL     1      -4.365  -0.583 130.213  0.00  0.00    +0.000 C 
ATOM     11  C   UNL     1      -4.493  -2.599 128.995  0.00  0.00    +0.000 C 
ENDBRANCH   7   9
ENDBRANCH   5   7
BRANCH   1  12
ATOM     12  O   UNL     1      -8.648  -1.657 125.098  0.00  0.00    +0.000 OA
BRANCH  12  15
ATOM     13  N   UNL     1      -8.225   0.510 124.299  0.00  0.00    +0.000 N 
ATOM     14  C   UNL     1      -7.023  -0.008 123.664  0.00  0.00    +0.000 C 
ATOM     15  C   UNL     1      -9.084  -0.324 125.015  0.00  0.00    +0.000 C 
ATOM     16  O   UNL     1     -10.122   0.098 125.529  0.00  0.00    +0.000 OA
BRANCH  13  18
ATOM     17  C   UNL     1      -8.977   2.460 122.871  0.00  0.00    +0.000 C 
ATOM     18  C   UNL     1      -8.572   1.932 124.236  0.00  0.00    +0.000 C 
ENDBRANCH  13  18
ENDBRANCH  12  15
ENDBRANCH   1  12
TORSDOF 5
ENDMDL
MODEL 9
REMARK VINA RESULT:      -5.3      7.804     10.124
REMARK  Name = Rivastigmine
REMARK  10 active torsions:
REMARK  status: ('A' for Active; 'I' for Inactive)
REMARK    1  A    between atoms: C_1  and  C_2
REMARK    2  A    between atoms: C_2  and  N_3
REMARK    3  A    between atoms: N_3  and  C_4
REMARK    4  A    between atoms: C_5  and  O_7
REMARK    5  A    between atoms: O_7  and  C_8
REMARK    6  A    between atoms: C_12  and  C_14
REMARK    7  A    between atoms: C_14  and  C_15
REMARK    8  A    between atoms: C_14  and  N_16
REMARK    9  A    between atoms: N_16  and  C_17
REMARK   10  A    between atoms: N_16  and  C_18
REMARK                            x       y       z     vdW  Elec       q    Type
REMARK                         _______ _______ _______ _____ _____    ______ ____
ROOT
ATOM      1  C   UNL     1      -7.887  -1.761 128.662  0.00  0.00    +0.000 A 
ATOM      2  C   UNL     1      -8.345  -2.992 129.118  0.00  0.00    +0.000 A 
ATOM      3  C   UNL     1      -8.782  -3.944 128.196  0.00  0.00    +0.000 A 
ATOM      4  C   UNL     1      -8.792  -3.647 126.831  0.00  0.00    +0.000 A 
ATOM      5  C   UNL     1      -8.425  -2.376 126.356  0.00  0.00    +0.000 A 
ATOM      6  C   UNL     1      -7.922  -1.467 127.303  0.00  0.00    +0.000 A 
ENDROOT
BRANCH   5   7
ATOM      7  C   UNL     1      -8.525  -2.012 124.863  0.00  0.00    +0.000 C 
ATOM      8  C   UNL     1      -8.377  -3.292 123.999  0.00  0.00    +0.000 C 
BRANCH   7   9
ATOM      9  N   UNL     1      -7.529  -0.985 124.420  0.00  0.00    +0.000 NA
ATOM     10  C   UNL     1      -6.511  -1.572 123.538  0.00  0.00    +0.000 C 
ATOM     11  C   UNL     1      -8.132   0.135 123.690  0.00  0.00    +0.000 C 
ENDBRANCH   7   9
ENDBRANCH   5   7
BRANCH   1  12
ATOM     12  O   UNL     1      -7.295  -0.865 129.585  0.00  0.00    +0.000 OA
BRANCH  12  15
ATOM     13  N   UNL     1      -8.374   0.156 131.403  0.00  0.00    +0.000 N 
ATOM     14  C   UNL     1      -7.948  -0.964 132.227  0.00  0.00    +0.000 C 
ATOM     15  C   UNL     1      -8.027   0.239 130.055  0.00  0.00    +0.000 C 
ATOM     16  O   UNL     1      -8.355   1.200 129.356  0.00  0.00    +0.000 OA
BRANCH  13  18
ATOM     17  C   UNL     1      -8.507   2.216 132.869  0.00  0.00    +0.000 C 
ATOM     18  C   UNL     1      -9.206   1.234 131.946  0.00  0.00    +0.000 C 
ENDBRANCH  13  18
ENDBRANCH  12  15
ENDBRANCH   1  12
TORSDOF 5
ENDMDL
