MODEL 1
REMARK VINA RESULT:      -6.7      0.000      0.000
REMARK  Name = Rizatriptan
REMARK  7 active torsions:
REMARK  status: ('A' for Active; 'I' for Inactive)
REMARK    1  A    between atoms: C_1  and  N_2
REMARK    2  A    between atoms: N_2  and  C_3
REMARK    3  A    between atoms: N_2  and  C_4
REMARK    4  A    between atoms: C_4  and  C_5
REMARK    5  A    between atoms: C_5  and  C_6
REMARK    6  A    between atoms: C_12  and  C_13
REMARK    7  A    between atoms: C_13  and  N_14
REMARK                            x       y       z     vdW  Elec       q    Type
REMARK                         _______ _______ _______ _____ _____    ______ ____
ROOT
ATOM      1  C   UNL     1     -10.011   6.720 131.021  0.00  0.00    +0.000 A 
ATOM      2  C   UNL     1     -10.854   6.191 131.977  0.00  0.00    +0.000 A 
ATOM      3  N   UNL     1     -10.082   5.624 132.958  0.00  0.00    +0.000 N 
ATOM      4  C   UNL     1      -8.752   5.835 132.684  0.00  0.00    +0.000 A 
ATOM      5  C   UNL     1      -8.679   6.542 131.492  0.00  0.00    +0.000 A 
ATOM      6  C   UNL     1      -7.417   6.914 130.991  0.00  0.00    +0.000 A 
ATOM      7  C   UNL     1      -6.252   6.563 131.674  0.00  0.00    +0.000 A 
ATOM      8  C   UNL     1      -6.383   5.883 132.892  0.00  0.00    +0.000 A 
ATOM      9  C   UNL     1      -7.618   5.479 133.407  0.00  0.00    +0.000 A 
ATOM     10  H   UNL     1     -10.431   5.145 133.773  0.00  0.00    +0.000 HD
ENDROOT
BRANCH   1  11
ATOM     11  C   UNL     1     -10.395   7.356 129.729  0.00  0.00    +0.000 C 
BRANCH  11  12
ATOM     12  C   UNL     1     -11.638   6.686 129.111  0.00  0.00    +0.000 C 
BRANCH  12  14
ATOM     13  C   UNL     1     -13.150   7.168 127.324  0.00  0.00    +0.000 C 
ATOM     14  N   UNL     1     -11.756   6.859 127.657  0.00  0.00    +0.000 NA
ATOM     15  C   UNL     1     -10.877   7.932 127.204  0.00  0.00    +0.000 C 
ENDBRANCH  12  14
ENDBRANCH  11  12
ENDBRANCH   1  11
BRANCH   7  16
ATOM     16  C   UNL     1      -4.939   6.959 131.036  0.00  0.00    +0.000 C 
BRANCH  16  17
ATOM     17  N   UNL     1      -4.650   6.231 129.817  0.00  0.00    +0.000 N 
ATOM     18  C   UNL     1      -4.614   4.878 129.656  0.00  0.00    +0.000 A 
ATOM     19  N   UNL     1      -4.127   4.596 128.467  0.00  0.00    +0.000 NA
ATOM     20  C   UNL     1      -3.918   5.830 127.923  0.00  0.00    +0.000 A 
ATOM     21  N   UNL     1      -4.232   6.865 128.707  0.00  0.00    +0.000 NA
ENDBRANCH  16  17
ENDBRANCH   7  16
TORSDOF 5
ENDMDL
MODEL 2
REMARK VINA RESULT:      -6.5      1.276      6.401
REMARK  Name = Rizatriptan
REMARK  7 active torsions:
REMARK  status: ('A' for Active; 'I' for Inactive)
REMARK    1  A    between atoms: C_1  and  N_2
REMARK    2  A    between atoms: N_2  and  C_3
REMARK    3  A    between atoms: N_2  and  C_4
REMARK    4  A    between atoms: C_4  and  C_5
REMARK    5  A    between atoms: C_5  and  C_6
REMARK    6  A    between atoms: C_12  and  C_13
REMARK    7  A    between atoms: C_13  and  N_14
REMARK                            x       y       z     vdW  Elec       q    Type
REMARK                         _______ _______ _______ _____ _____    ______ ____
ROOT
ATOM      1  C   UNL     1      -7.349   6.051 132.386  0.00  0.00    +0.000 A 
ATOM      2  C   UNL     1      -7.708   5.366 133.529  0.00  0.00    +0.000 A 
ATOM      3  N   UNL     1      -9.076   5.376 133.619  0.00  0.00    +0.000 N 
ATOM      4  C   UNL     1      -9.610   6.000 132.518  0.00  0.00    +0.000 A 
ATOM      5  C   UNL     1      -8.553   6.408 131.716  0.00  0.00    +0.000 A 
ATOM      6  C   UNL     1      -8.827   7.060 130.498  0.00  0.00    +0.000 A 
ATOM      7  C   UNL     1     -10.143   7.307 130.108  0.00  0.00    +0.000 A 
ATOM      8  C   UNL     1     -11.175   6.841 130.935  0.00  0.00    +0.000 A 
ATOM      9  C   UNL     1     -10.938   6.211 132.160  0.00  0.00    +0.000 A 
ATOM     10  H   UNL     1      -9.615   4.967 134.365  0.00  0.00    +0.000 HD
ENDROOT
BRANCH   1  11
ATOM     11  C   UNL     1      -5.970   6.375 131.920  0.00  0.00    +0.000 C 
BRANCH  11  12
ATOM     12  C   UNL     1      -5.278   5.148 131.294  0.00  0.00    +0.000 C 
BRANCH  12  14
ATOM     13  C   UNL     1      -4.323   6.922 130.009  0.00  0.00    +0.000 C 
ATOM     14  N   UNL     1      -4.404   5.464 130.157  0.00  0.00    +0.000 NA
ATOM     15  C   UNL     1      -3.075   4.902 130.371  0.00  0.00    +0.000 C 
ENDBRANCH  12  14
ENDBRANCH  11  12
ENDBRANCH   1  11
BRANCH   7  16
ATOM     16  C   UNL     1     -10.343   8.059 128.810  0.00  0.00    +0.000 C 
BRANCH  16  17
ATOM     17  N   UNL     1     -11.676   7.914 128.263  0.00  0.00    +0.000 N 
ATOM     18  C   UNL     1     -12.722   8.777 128.402  0.00  0.00    +0.000 A 
ATOM     19  N   UNL     1     -13.815   8.214 127.936  0.00  0.00    +0.000 NA
ATOM     20  C   UNL     1     -13.365   7.008 127.481  0.00  0.00    +0.000 A 
ATOM     21  N   UNL     1     -12.060   6.780 127.649  0.00  0.00    +0.000 NA
ENDBRANCH  16  17
ENDBRANCH   7  16
TORSDOF 5
ENDMDL
MODEL 3
REMARK VINA RESULT:      -6.1      8.428     10.606
REMARK  Name = Rizatriptan
REMARK  7 active torsions:
REMARK  status: ('A' for Active; 'I' for Inactive)
REMARK    1  A    between atoms: C_1  and  N_2
REMARK    2  A    between atoms: N_2  and  C_3
REMARK    3  A    between atoms: N_2  and  C_4
REMARK    4  A    between atoms: C_4  and  C_5
REMARK    5  A    between atoms: C_5  and  C_6
REMARK    6  A    between atoms: C_12  and  C_13
REMARK    7  A    between atoms: C_13  and  N_14
REMARK                            x       y       z     vdW  Elec       q    Type
REMARK                         _______ _______ _______ _____ _____    ______ ____
ROOT
ATOM      1  C   UNL     1      -7.092  -1.793 123.877  0.00  0.00    +0.000 A 
ATOM      2  C   UNL     1      -7.938  -2.866 123.681  0.00  0.00    +0.000 A 
ATOM      3  N   UNL     1      -9.150  -2.381 123.263  0.00  0.00    +0.000 N 
ATOM      4  C   UNL     1      -9.082  -1.016 123.122  0.00  0.00    +0.000 A 
ATOM      5  C   UNL     1      -7.797  -0.624 123.473  0.00  0.00    +0.000 A 
ATOM      6  C   UNL     1      -7.449   0.738 123.393  0.00  0.00    +0.000 A 
ATOM      7  C   UNL     1      -8.386   1.686 122.982  0.00  0.00    +0.000 A 
ATOM      8  C   UNL     1      -9.657   1.233 122.602  0.00  0.00    +0.000 A 
ATOM      9  C   UNL     1     -10.043  -0.107 122.690  0.00  0.00    +0.000 A 
ATOM     10  H   UNL     1      -9.965  -2.938 123.063  0.00  0.00    +0.000 HD
ENDROOT
BRANCH   1  11
ATOM     11  C   UNL     1      -5.701  -1.823 124.413  0.00  0.00    +0.000 C 
BRANCH  11  12
ATOM     12  C   UNL     1      -5.610  -1.149 125.797  0.00  0.00    +0.000 C 
BRANCH  12  14
ATOM     13  C   UNL     1      -5.297  -2.258 127.891  0.00  0.00    +0.000 C 
ATOM     14  N   UNL     1      -6.286  -1.887 126.872  0.00  0.00    +0.000 NA
ATOM     15  C   UNL     1      -7.338  -1.067 127.463  0.00  0.00    +0.000 C 
ENDBRANCH  12  14
ENDBRANCH  11  12
ENDBRANCH   1  11
BRANCH   7  16
ATOM     16  C   UNL     1      -7.940   3.131 122.975  0.00  0.00    +0.000 C 
BRANCH  16  17
ATOM     17  N   UNL     1      -7.183   3.492 121.794  0.00  0.00    +0.000 N 
ATOM     18  C   UNL     1      -5.834   3.668 121.702  0.00  0.00    +0.000 A 
ATOM     19  N   UNL     1      -5.543   4.180 120.527  0.00  0.00    +0.000 NA
ATOM     20  C   UNL     1      -6.762   4.260 119.919  0.00  0.00    +0.000 A 
ATOM     21  N   UNL     1      -7.798   3.842 120.650  0.00  0.00    +0.000 NA
ENDBRANCH  16  17
ENDBRANCH   7  16
TORSDOF 5
ENDMDL
MODEL 4
REMARK VINA RESULT:      -6.0      2.049      2.524
REMARK  Name = Rizatriptan
REMARK  7 active torsions:
REMARK  status: ('A' for Active; 'I' for Inactive)
REMARK    1  A    between atoms: C_1  and  N_2
REMARK    2  A    between atoms: N_2  and  C_3
REMARK    3  A    between atoms: N_2  and  C_4
REMARK    4  A    between atoms: C_4  and  C_5
REMARK    5  A    between atoms: C_5  and  C_6
REMARK    6  A    between atoms: C_12  and  C_13
REMARK    7  A    between atoms: C_13  and  N_14
REMARK                            x       y       z     vdW  Elec       q    Type
REMARK                         _______ _______ _______ _____ _____    ______ ____
ROOT
ATOM      1  C   UNL     1      -8.958   6.601 131.338  0.00  0.00    +0.000 A 
ATOM      2  C   UNL     1      -9.587   5.951 132.381  0.00  0.00    +0.000 A 
ATOM      3  N   UNL     1      -8.621   5.424 133.198  0.00  0.00    +0.000 N 
ATOM      4  C   UNL     1      -7.376   5.779 132.736  0.00  0.00    +0.000 A 
ATOM      5  C   UNL     1      -7.558   6.538 131.589  0.00  0.00    +0.000 A 
ATOM      6  C   UNL     1      -6.430   7.056 130.923  0.00  0.00    +0.000 A 
ATOM      7  C   UNL     1      -5.145   6.796 131.398  0.00  0.00    +0.000 A 
ATOM      8  C   UNL     1      -5.018   6.055 132.582  0.00  0.00    +0.000 A 
ATOM      9  C   UNL     1      -6.114   5.509 133.256  0.00  0.00    +0.000 A 
ATOM     10  H   UNL     1      -8.790   4.879 134.028  0.00  0.00    +0.000 HD
ENDROOT
BRANCH   1  11
ATOM     11  C   UNL     1      -9.598   7.249 130.158  0.00  0.00    +0.000 C 
BRANCH  11  12
ATOM     12  C   UNL     1     -10.217   6.208 129.203  0.00  0.00    +0.000 C 
BRANCH  12  14
ATOM     13  C   UNL     1     -12.470   6.757 128.624  0.00  0.00    +0.000 C 
ATOM     14  N   UNL     1     -11.077   6.784 128.161  0.00  0.00    +0.000 NA
ATOM     15  C   UNL     1     -10.668   8.154 127.868  0.00  0.00    +0.000 C 
ENDBRANCH  12  14
ENDBRANCH  11  12
ENDBRANCH   1  11
BRANCH   7  16
ATOM     16  C   UNL     1      -3.991   7.348 130.590  0.00  0.00    +0.000 C 
BRANCH  16  17
ATOM     17  N   UNL     1      -2.756   7.438 131.342  0.00  0.00    +0.000 N 
ATOM     18  C   UNL     1      -1.717   6.556 131.329  0.00  0.00    +0.000 A 
ATOM     19  N   UNL     1      -0.868   6.872 132.281  0.00  0.00    +0.000 NA
ATOM     20  C   UNL     1      -1.424   7.993 132.825  0.00  0.00    +0.000 A 
ATOM     21  N   UNL     1      -2.578   8.387 132.279  0.00  0.00    +0.000 NA
ENDBRANCH  16  17
ENDBRANCH   7  16
TORSDOF 5
ENDMDL
MODEL 5
REMARK VINA RESULT:      -5.9      6.007      8.085
REMARK  Name = Rizatriptan
REMARK  7 active torsions:
REMARK  status: ('A' for Active; 'I' for Inactive)
REMARK    1  A    between atoms: C_1  and  N_2
REMARK    2  A    between atoms: N_2  and  C_3
REMARK    3  A    between atoms: N_2  and  C_4
REMARK    4  A    between atoms: C_4  and  C_5
REMARK    5  A    between atoms: C_5  and  C_6
REMARK    6  A    between atoms: C_12  and  C_13
REMARK    7  A    between atoms: C_13  and  N_14
REMARK                            x       y       z     vdW  Elec       q    Type
REMARK                         _______ _______ _______ _____ _____    ______ ____
ROOT
ATOM      1  C   UNL     1      -8.507   2.662 123.009  0.00  0.00    +0.000 A 
ATOM      2  C   UNL     1      -8.502   3.085 121.696  0.00  0.00    +0.000 A 
ATOM      3  N   UNL     1      -7.360   3.814 121.487  0.00  0.00    +0.000 N 
ATOM      4  C   UNL     1      -6.594   3.814 122.628  0.00  0.00    +0.000 A 
ATOM      5  C   UNL     1      -7.274   3.078 123.587  0.00  0.00    +0.000 A 
ATOM      6  C   UNL     1      -6.689   2.898 124.856  0.00  0.00    +0.000 A 
ATOM      7  C   UNL     1      -5.450   3.466 125.152  0.00  0.00    +0.000 A 
ATOM      8  C   UNL     1      -4.788   4.169 124.136  0.00  0.00    +0.000 A 
ATOM      9  C   UNL     1      -5.348   4.384 122.874  0.00  0.00    +0.000 A 
ATOM     10  H   UNL     1      -7.103   4.264 120.624  0.00  0.00    +0.000 HD
ENDROOT
BRANCH   1  11
ATOM     11  C   UNL     1      -9.586   1.915 123.716  0.00  0.00    +0.000 C 
BRANCH  11  12
ATOM     12  C   UNL     1      -9.935   0.599 122.992  0.00  0.00    +0.000 C 
BRANCH  12  14
ATOM     13  C   UNL     1      -8.631  -1.403 123.009  0.00  0.00    +0.000 C 
ATOM     14  N   UNL     1      -9.614  -0.613 123.757  0.00  0.00    +0.000 NA
ATOM     15  C   UNL     1      -9.084  -0.256 125.069  0.00  0.00    +0.000 C 
ENDBRANCH  12  14
ENDBRANCH  11  12
ENDBRANCH   1  11
BRANCH   7  16
ATOM     16  C   UNL     1      -4.923   3.266 126.556  0.00  0.00    +0.000 C 
BRANCH  16  17
ATOM     17  N   UNL     1      -4.134   4.381 127.037  0.00  0.00    +0.000 N 
ATOM     18  C   UNL     1      -2.812   4.373 127.369  0.00  0.00    +0.000 A 
ATOM     19  N   UNL     1      -2.503   5.513 127.947  0.00  0.00    +0.000 NA
ATOM     20  C   UNL     1      -3.679   6.204 127.905  0.00  0.00    +0.000 A 
ATOM     21  N   UNL     1      -4.707   5.558 127.348  0.00  0.00    +0.000 NA
ENDBRANCH  16  17
ENDBRANCH   7  16
TORSDOF 5
ENDMDL
MODEL 6
REMARK VINA RESULT:      -5.8      8.001      9.140
REMARK  Name = Rizatriptan
REMARK  7 active torsions:
REMARK  status: ('A' for Active; 'I' for Inactive)
REMARK    1  A    between atoms: C_1  and  N_2
REMARK    2  A    between atoms: N_2  and  C_3
REMARK    3  A    between atoms: N_2  and  C_4
REMARK    4  A    between atoms: C_4  and  C_5
REMARK    5  A    between atoms: C_5  and  C_6
REMARK    6  A    between atoms: C_12  and  C_13
REMARK    7  A    between atoms: C_13  and  N_14
REMARK                            x       y       z     vdW  Elec       q    Type
REMARK                         _______ _______ _______ _____ _____    ______ ____
ROOT
ATOM      1  C   UNL     1      -8.517  -1.085 125.614  0.00  0.00    +0.000 A 
ATOM      2  C   UNL     1      -9.385  -1.885 124.899  0.00  0.00    +0.000 A 
ATOM      3  N   UNL     1      -9.549  -3.059 125.588  0.00  0.00    +0.000 N 
ATOM      4  C   UNL     1      -8.851  -3.004 126.771  0.00  0.00    +0.000 A 
ATOM      5  C   UNL     1      -8.219  -1.770 126.826  0.00  0.00    +0.000 A 
ATOM      6  C   UNL     1      -7.449  -1.443 127.959  0.00  0.00    +0.000 A 
ATOM      7  C   UNL     1      -7.308  -2.354 129.006  0.00  0.00    +0.000 A 
ATOM      8  C   UNL     1      -7.998  -3.571 128.919  0.00  0.00    +0.000 A 
ATOM      9  C   UNL     1      -8.753  -3.936 127.800  0.00  0.00    +0.000 A 
ATOM     10  H   UNL     1     -10.113  -3.838 125.291  0.00  0.00    +0.000 HD
ENDROOT
BRANCH   1  11
ATOM     11  C   UNL     1      -7.975   0.245 125.215  0.00  0.00    +0.000 C 
BRANCH  11  12
ATOM     12  C   UNL     1      -8.699   1.396 125.942  0.00  0.00    +0.000 C 
BRANCH  12  14
ATOM     13  C   UNL     1      -8.233   3.534 124.982  0.00  0.00    +0.000 C 
ATOM     14  N   UNL     1      -9.212   2.444 125.050  0.00  0.00    +0.000 NA
ATOM     15  C   UNL     1      -9.455   1.898 123.718  0.00  0.00    +0.000 C 
ENDBRANCH  12  14
ENDBRANCH  11  12
ENDBRANCH   1  11
BRANCH   7  16
ATOM     16  C   UNL     1      -6.421  -1.939 130.159  0.00  0.00    +0.000 C 
BRANCH  16  17
ATOM     17  N   UNL     1      -5.158  -2.649 130.196  0.00  0.00    +0.000 N 
ATOM     18  C   UNL     1      -4.494  -3.092 131.300  0.00  0.00    +0.000 A 
ATOM     19  N   UNL     1      -3.298  -3.510 130.948  0.00  0.00    +0.000 NA
ATOM     20  C   UNL     1      -3.301  -3.336 129.594  0.00  0.00    +0.000 A 
ATOM     21  N   UNL     1      -4.422  -2.819 129.083  0.00  0.00    +0.000 NA
ENDBRANCH  16  17
ENDBRANCH   7  16
TORSDOF 5
ENDMDL
MODEL 7
REMARK VINA RESULT:      -5.7      6.717      9.667
REMARK  Name = Rizatriptan
REMARK  7 active torsions:
REMARK  status: ('A' for Active; 'I' for Inactive)
REMARK    1  A    between atoms: C_1  and  N_2
REMARK    2  A    between atoms: N_2  and  C_3
REMARK    3  A    between atoms: N_2  and  C_4
REMARK    4  A    between atoms: C_4  and  C_5
REMARK    5  A    between atoms: C_5  and  C_6
REMARK    6  A    between atoms: C_12  and  C_13
REMARK    7  A    between atoms: C_13  and  N_14
REMARK                            x       y       z     vdW  Elec       q    Type
REMARK                         _______ _______ _______ _____ _____    ______ ____
ROOT
ATOM      1  C   UNL     1      -5.602   3.145 125.066  0.00  0.00    +0.000 A 
ATOM      2  C   UNL     1      -5.532   4.203 124.182  0.00  0.00    +0.000 A 
ATOM      3  N   UNL     1      -6.611   4.127 123.340  0.00  0.00    +0.000 N 
ATOM      4  C   UNL     1      -7.413   3.072 123.706  0.00  0.00    +0.000 A 
ATOM      5  C   UNL     1      -6.821   2.458 124.800  0.00  0.00    +0.000 A 
ATOM      6  C   UNL     1      -7.458   1.352 125.394  0.00  0.00    +0.000 A 
ATOM      7  C   UNL     1      -8.662   0.868 124.882  0.00  0.00    +0.000 A 
ATOM      8  C   UNL     1      -9.238   1.549 123.800  0.00  0.00    +0.000 A 
ATOM      9  C   UNL     1      -8.622   2.635 123.173  0.00  0.00    +0.000 A 
ATOM     10  H   UNL     1      -6.806   4.759 122.581  0.00  0.00    +0.000 HD
ENDROOT
BRANCH   1  11
ATOM     11  C   UNL     1      -4.604   2.766 126.106  0.00  0.00    +0.000 C 
BRANCH  11  12
ATOM     12  C   UNL     1      -3.437   3.772 126.167  0.00  0.00    +0.000 C 
BRANCH  12  14
ATOM     13  C   UNL     1      -2.737   5.229 127.928  0.00  0.00    +0.000 C 
ATOM     14  N   UNL     1      -2.764   3.835 127.471  0.00  0.00    +0.000 NA
ATOM     15  C   UNL     1      -3.463   2.998 128.441  0.00  0.00    +0.000 C 
ENDBRANCH  12  14
ENDBRANCH  11  12
ENDBRANCH   1  11
BRANCH   7  16
ATOM     16  C   UNL     1      -9.250  -0.355 125.551  0.00  0.00    +0.000 C 
BRANCH  16  17
ATOM     17  N   UNL     1      -8.923  -1.592 124.872  0.00  0.00    +0.000 N 
ATOM     18  C   UNL     1      -7.832  -2.383 125.080  0.00  0.00    +0.000 A 
ATOM     19  N   UNL     1      -7.781  -3.306 124.146  0.00  0.00    +0.000 NA
ATOM     20  C   UNL     1      -8.902  -3.055 123.408  0.00  0.00    +0.000 A 
ATOM     21  N   UNL     1      -9.641  -2.020 123.818  0.00  0.00    +0.000 NA
ENDBRANCH  16  17
ENDBRANCH   7  16
TORSDOF 5
ENDMDL
MODEL 8
REMARK VINA RESULT:      -5.7      8.579     10.932
REMARK  Name = Rizatriptan
REMARK  7 active torsions:
REMARK  status: ('A' for Active; 'I' for Inactive)
REMARK    1  A    between atoms: C_1  and  N_2
REMARK    2  A    between atoms: N_2  and  C_3
REMARK    3  A    between atoms: N_2  and  C_4
REMARK    4  A    between atoms: C_4  and  C_5
REMARK    5  A    between atoms: C_5  and  C_6
REMARK    6  A    between atoms: C_12  and  C_13
REMARK    7  A    between atoms: C_13  and  N_14
REMARK                            x       y       z     vdW  Elec       q    Type
REMARK                         _______ _______ _______ _____ _____    ______ ____
ROOT
ATOM      1  C   UNL     1      -6.596  -2.449 128.312  0.00  0.00    +0.000 A 
ATOM      2  C   UNL     1      -7.303  -3.144 129.273  0.00  0.00    +0.000 A 
ATOM      3  N   UNL     1      -8.497  -3.534 128.723  0.00  0.00    +0.000 N 
ATOM      4  C   UNL     1      -8.546  -3.159 127.402  0.00  0.00    +0.000 A 
ATOM      5  C   UNL     1      -7.358  -2.504 127.111  0.00  0.00    +0.000 A 
ATOM      6  C   UNL     1      -7.138  -2.033 125.802  0.00  0.00    +0.000 A 
ATOM      7  C   UNL     1      -8.106  -2.208 124.813  0.00  0.00    +0.000 A 
ATOM      8  C   UNL     1      -9.272  -2.910 125.150  0.00  0.00    +0.000 A 
ATOM      9  C   UNL     1      -9.532  -3.372 126.444  0.00  0.00    +0.000 A 
ATOM     10  H   UNL     1      -9.223  -4.041 129.203  0.00  0.00    +0.000 HD
ENDROOT
BRANCH   1  11
ATOM     11  C   UNL     1      -5.285  -1.760 128.475  0.00  0.00    +0.000 C 
BRANCH  11  12
ATOM     12  C   UNL     1      -4.983  -1.453 129.956  0.00  0.00    +0.000 C 
BRANCH  12  14
ATOM     13  C   UNL     1      -3.112  -2.890 129.575  0.00  0.00    +0.000 C 
ATOM     14  N   UNL     1      -4.050  -2.395 130.588  0.00  0.00    +0.000 NA
ATOM     15  C   UNL     1      -3.325  -1.738 131.670  0.00  0.00    +0.000 C 
ENDBRANCH  12  14
ENDBRANCH  11  12
ENDBRANCH   1  11
BRANCH   7  16
ATOM     16  C   UNL     1      -7.807  -1.625 123.450  0.00  0.00    +0.000 C 
BRANCH  16  17
ATOM     17  N   UNL     1      -8.622  -0.472 123.127  0.00  0.00    +0.000 N 
ATOM     18  C   UNL     1      -8.376   0.828 123.453  0.00  0.00    +0.000 A 
ATOM     19  N   UNL     1      -9.432   1.555 123.162  0.00  0.00    +0.000 NA
ATOM     20  C   UNL     1     -10.289   0.644 122.617  0.00  0.00    +0.000 A 
ATOM     21  N   UNL     1      -9.835  -0.612 122.563  0.00  0.00    +0.000 NA
ENDBRANCH  16  17
ENDBRANCH   7  16
TORSDOF 5
ENDMDL
MODEL 9
REMARK VINA RESULT:      -5.6      7.530      9.956
REMARK  Name = Rizatriptan
REMARK  7 active torsions:
REMARK  status: ('A' for Active; 'I' for Inactive)
REMARK    1  A    between atoms: C_1  and  N_2
REMARK    2  A    between atoms: N_2  and  C_3
REMARK    3  A    between atoms: N_2  and  C_4
REMARK    4  A    between atoms: C_4  and  C_5
REMARK    5  A    between atoms: C_5  and  C_6
REMARK    6  A    between atoms: C_12  and  C_13
REMARK    7  A    between atoms: C_13  and  N_14
REMARK                            x       y       z     vdW  Elec       q    Type
REMARK                         _______ _______ _______ _____ _____    ______ ____
ROOT
ATOM      1  C   UNL     1      -7.146  -1.693 123.568  0.00  0.00    +0.000 A 
ATOM      2  C   UNL     1      -8.148  -2.613 123.335  0.00  0.00    +0.000 A 
ATOM      3  N   UNL     1      -9.305  -1.926 123.074  0.00  0.00    +0.000 N 
ATOM      4  C   UNL     1      -9.053  -0.575 123.071  0.00  0.00    +0.000 A 
ATOM      5  C   UNL     1      -7.705  -0.401 123.350  0.00  0.00    +0.000 A 
ATOM      6  C   UNL     1      -7.174   0.902 123.382  0.00  0.00    +0.000 A 
ATOM      7  C   UNL     1      -7.994   2.007 123.153  0.00  0.00    +0.000 A 
ATOM      8  C   UNL     1      -9.340   1.775 122.839  0.00  0.00    +0.000 A 
ATOM      9  C   UNL     1      -9.904   0.497 122.820  0.00  0.00    +0.000 A 
ATOM     10  H   UNL     1     -10.203  -2.343 122.888  0.00  0.00    +0.000 HD
ENDROOT
BRANCH   1  11
ATOM     11  C   UNL     1      -5.740  -1.969 123.977  0.00  0.00    +0.000 C 
BRANCH  11  12
ATOM     12  C   UNL     1      -5.659  -2.478 125.431  0.00  0.00    +0.000 C 
BRANCH  12  14
ATOM     13  C   UNL     1      -6.160  -2.179 127.748  0.00  0.00    +0.000 C 
ATOM     14  N   UNL     1      -6.193  -1.541 126.427  0.00  0.00    +0.000 NA
ATOM     15  C   UNL     1      -5.404  -0.313 126.439  0.00  0.00    +0.000 C 
ENDBRANCH  12  14
ENDBRANCH  11  12
ENDBRANCH   1  11
BRANCH   7  16
ATOM     16  C   UNL     1      -7.349   3.372 123.259  0.00  0.00    +0.000 C 
BRANCH  16  17
ATOM     17  N   UNL     1      -7.380   3.919 124.599  0.00  0.00    +0.000 N 
ATOM     18  C   UNL     1      -6.460   4.745 125.174  0.00  0.00    +0.000 A 
ATOM     19  N   UNL     1      -6.728   4.867 126.456  0.00  0.00    +0.000 NA
ATOM     20  C   UNL     1      -7.860   4.119 126.603  0.00  0.00    +0.000 A 
ATOM     21  N   UNL     1      -8.306   3.525 125.492  0.00  0.00    +0.000 NA
ENDBRANCH  16  17
ENDBRANCH   7  16
TORSDOF 5
ENDMDL
