MODEL 1
REMARK VINA RESULT:      -7.5      0.000      0.000
REMARK  Name = Rofecoxib
REMARK  4 active torsions:
REMARK  status: ('A' for Active; 'I' for Inactive)
REMARK    1  A    between atoms: C_1  and  S_2
REMARK    2  A    between atoms: S_2  and  C_5
REMARK    3  A    between atoms: C_8  and  C_11
REMARK    4  A    between atoms: C_12  and  C_17
REMARK                            x       y       z     vdW  Elec       q    Type
REMARK                         _______ _______ _______ _____ _____    ______ ____
ROOT
ATOM      1  C   UNL     1      -7.235   2.943 125.573  0.00  0.00    +0.000 C 
ATOM      2  C   UNL     1      -6.904   3.869 124.661  0.00  0.00    +0.000 C 
ATOM      3  C   UNL     1      -6.474   5.063 125.410  0.00  0.00    +0.000 C 
ATOM      4  O   UNL     1      -6.041   6.091 124.930  0.00  0.00    +0.000 OA
ATOM      5  O   UNL     1      -6.628   4.825 126.744  0.00  0.00    +0.000 OA
ATOM      6  C   UNL     1      -7.139   3.502 126.937  0.00  0.00    +0.000 C 
ENDROOT
BRANCH   1  10
ATOM      7  C   UNL     1      -8.455  -1.130 125.059  0.00  0.00    +0.000 A 
ATOM      8  C   UNL     1      -9.385  -0.160 125.432  0.00  0.00    +0.000 A 
ATOM      9  C   UNL     1      -8.992   1.183 125.493  0.00  0.00    +0.000 A 
ATOM     10  C   UNL     1      -7.656   1.564 125.280  0.00  0.00    +0.000 A 
ATOM     11  C   UNL     1      -6.737   0.580 124.897  0.00  0.00    +0.000 A 
ATOM     12  C   UNL     1      -7.136  -0.761 124.776  0.00  0.00    +0.000 A 
BRANCH   7  14
ATOM     13  C   UNL     1      -7.501  -3.717 124.401  0.00  0.00    +0.000 C 
ATOM     14  S   UNL     1      -8.983  -2.806 124.746  0.00  0.00    +0.000 S 
ATOM     15  O   UNL     1      -9.775  -2.771 123.531  0.00  0.00    +0.000 OA
ATOM     16  O   UNL     1      -9.544  -3.327 125.978  0.00  0.00    +0.000 OA
ENDBRANCH   7  14
ENDBRANCH   1  10
BRANCH   2  17
ATOM     17  C   UNL     1      -6.887   3.709 123.211  0.00  0.00    +0.000 A 
ATOM     18  C   UNL     1      -5.698   3.915 122.494  0.00  0.00    +0.000 A 
ATOM     19  C   UNL     1      -5.719   3.988 121.103  0.00  0.00    +0.000 A 
ATOM     20  C   UNL     1      -6.908   3.758 120.414  0.00  0.00    +0.000 A 
ATOM     21  C   UNL     1      -8.085   3.503 121.117  0.00  0.00    +0.000 A 
ATOM     22  C   UNL     1      -8.077   3.485 122.512  0.00  0.00    +0.000 A 
ENDBRANCH   2  17
TORSDOF 3
ENDMDL
MODEL 2
REMARK VINA RESULT:      -7.4      4.749      6.780
REMARK  Name = Rofecoxib
REMARK  4 active torsions:
REMARK  status: ('A' for Active; 'I' for Inactive)
REMARK    1  A    between atoms: C_1  and  S_2
REMARK    2  A    between atoms: S_2  and  C_5
REMARK    3  A    between atoms: C_8  and  C_11
REMARK    4  A    between atoms: C_12  and  C_17
REMARK                            x       y       z     vdW  Elec       q    Type
REMARK                         _______ _______ _______ _____ _____    ______ ____
ROOT
ATOM      1  C   UNL     1      -8.019  -1.530 125.883  0.00  0.00    +0.000 C 
ATOM      2  C   UNL     1      -7.746  -1.912 124.627  0.00  0.00    +0.000 C 
ATOM      3  C   UNL     1      -8.710  -1.216 123.756  0.00  0.00    +0.000 C 
ATOM      4  O   UNL     1      -8.741  -1.260 122.542  0.00  0.00    +0.000 OA
ATOM      5  O   UNL     1      -9.565  -0.494 124.536  0.00  0.00    +0.000 OA
ATOM      6  C   UNL     1      -9.214  -0.662 125.913  0.00  0.00    +0.000 C 
ENDROOT
BRANCH   1  10
ATOM      7  C   UNL     1      -5.660  -2.913 129.179  0.00  0.00    +0.000 A 
ATOM      8  C   UNL     1      -5.101  -2.069 128.220  0.00  0.00    +0.000 A 
ATOM      9  C   UNL     1      -5.913  -1.543 127.208  0.00  0.00    +0.000 A 
ATOM     10  C   UNL     1      -7.260  -1.922 127.082  0.00  0.00    +0.000 A 
ATOM     11  C   UNL     1      -7.810  -2.762 128.057  0.00  0.00    +0.000 A 
ATOM     12  C   UNL     1      -7.016  -3.248 129.109  0.00  0.00    +0.000 A 
BRANCH   7  14
ATOM     13  C   UNL     1      -5.352  -4.987 131.086  0.00  0.00    +0.000 C 
ATOM     14  S   UNL     1      -4.708  -3.407 130.606  0.00  0.00    +0.000 S 
ATOM     15  O   UNL     1      -5.020  -2.462 131.660  0.00  0.00    +0.000 OA
ATOM     16  O   UNL     1      -3.337  -3.603 130.172  0.00  0.00    +0.000 OA
ENDBRANCH   7  14
ENDBRANCH   1  10
BRANCH   2  17
ATOM     17  C   UNL     1      -6.658  -2.779 124.187  0.00  0.00    +0.000 A 
ATOM     18  C   UNL     1      -6.716  -4.159 124.430  0.00  0.00    +0.000 A 
ATOM     19  C   UNL     1      -5.593  -4.958 124.221  0.00  0.00    +0.000 A 
ATOM     20  C   UNL     1      -4.438  -4.403 123.676  0.00  0.00    +0.000 A 
ATOM     21  C   UNL     1      -4.388  -3.040 123.385  0.00  0.00    +0.000 A 
ATOM     22  C   UNL     1      -5.493  -2.228 123.646  0.00  0.00    +0.000 A 
ENDBRANCH   2  17
TORSDOF 3
ENDMDL
MODEL 3
REMARK VINA RESULT:      -7.2      3.758      6.059
REMARK  Name = Rofecoxib
REMARK  4 active torsions:
REMARK  status: ('A' for Active; 'I' for Inactive)
REMARK    1  A    between atoms: C_1  and  S_2
REMARK    2  A    between atoms: S_2  and  C_5
REMARK    3  A    between atoms: C_8  and  C_11
REMARK    4  A    between atoms: C_12  and  C_17
REMARK                            x       y       z     vdW  Elec       q    Type
REMARK                         _______ _______ _______ _____ _____    ______ ____
ROOT
ATOM      1  C   UNL     1      -8.571  -2.496 125.224  0.00  0.00    +0.000 C 
ATOM      2  C   UNL     1      -8.703  -1.298 124.634  0.00  0.00    +0.000 C 
ATOM      3  C   UNL     1      -9.461  -1.521 123.390  0.00  0.00    +0.000 C 
ATOM      4  O   UNL     1      -9.831  -0.664 122.613  0.00  0.00    +0.000 OA
ATOM      5  O   UNL     1      -9.696  -2.858 123.253  0.00  0.00    +0.000 OA
ATOM      6  C   UNL     1      -9.135  -3.559 124.367  0.00  0.00    +0.000 C 
ENDROOT
BRANCH   1  10
ATOM      7  C   UNL     1      -6.907  -2.940 129.144  0.00  0.00    +0.000 A 
ATOM      8  C   UNL     1      -8.202  -3.383 128.877  0.00  0.00    +0.000 A 
ATOM      9  C   UNL     1      -8.692  -3.326 127.566  0.00  0.00    +0.000 A 
ATOM     10  C   UNL     1      -7.942  -2.743 126.531  0.00  0.00    +0.000 A 
ATOM     11  C   UNL     1      -6.640  -2.312 126.813  0.00  0.00    +0.000 A 
ATOM     12  C   UNL     1      -6.120  -2.419 128.113  0.00  0.00    +0.000 A 
BRANCH   7  14
ATOM     13  C   UNL     1      -5.580  -4.885 130.722  0.00  0.00    +0.000 C 
ATOM     14  S   UNL     1      -6.178  -3.216 130.750  0.00  0.00    +0.000 S 
ATOM     15  O   UNL     1      -7.259  -3.149 131.714  0.00  0.00    +0.000 OA
ATOM     16  O   UNL     1      -5.029  -2.339 130.867  0.00  0.00    +0.000 OA
ENDBRANCH   7  14
ENDBRANCH   1  10
BRANCH   2  17
ATOM     17  C   UNL     1      -8.261  -0.008 125.153  0.00  0.00    +0.000 A 
ATOM     18  C   UNL     1      -7.078   0.575 124.674  0.00  0.00    +0.000 A 
ATOM     19  C   UNL     1      -6.530   1.684 125.317  0.00  0.00    +0.000 A 
ATOM     20  C   UNL     1      -7.210   2.277 126.379  0.00  0.00    +0.000 A 
ATOM     21  C   UNL     1      -8.412   1.732 126.830  0.00  0.00    +0.000 A 
ATOM     22  C   UNL     1      -8.933   0.588 126.224  0.00  0.00    +0.000 A 
ENDBRANCH   2  17
TORSDOF 3
ENDMDL
MODEL 4
REMARK VINA RESULT:      -7.1      6.077      8.757
REMARK  Name = Rofecoxib
REMARK  4 active torsions:
REMARK  status: ('A' for Active; 'I' for Inactive)
REMARK    1  A    between atoms: C_1  and  S_2
REMARK    2  A    between atoms: S_2  and  C_5
REMARK    3  A    between atoms: C_8  and  C_11
REMARK    4  A    between atoms: C_12  and  C_17
REMARK                            x       y       z     vdW  Elec       q    Type
REMARK                         _______ _______ _______ _____ _____    ______ ____
ROOT
ATOM      1  C   UNL     1      -6.905  -1.708 131.308  0.00  0.00    +0.000 C 
ATOM      2  C   UNL     1      -6.837  -2.721 130.431  0.00  0.00    +0.000 C 
ATOM      3  C   UNL     1      -6.066  -3.794 131.084  0.00  0.00    +0.000 C 
ATOM      4  O   UNL     1      -5.845  -4.896 130.627  0.00  0.00    +0.000 OA
ATOM      5  O   UNL     1      -5.647  -3.353 132.305  0.00  0.00    +0.000 OA
ATOM      6  C   UNL     1      -6.113  -2.016 132.517  0.00  0.00    +0.000 C 
ENDROOT
BRANCH   1  10
ATOM      7  C   UNL     1      -8.838   2.097 130.956  0.00  0.00    +0.000 A 
ATOM      8  C   UNL     1      -7.644   1.850 130.279  0.00  0.00    +0.000 A 
ATOM      9  C   UNL     1      -7.081   0.569 130.321  0.00  0.00    +0.000 A 
ATOM     10  C   UNL     1      -7.642  -0.450 131.109  0.00  0.00    +0.000 A 
ATOM     11  C   UNL     1      -8.846  -0.190 131.775  0.00  0.00    +0.000 A 
ATOM     12  C   UNL     1      -9.448   1.076 131.691  0.00  0.00    +0.000 A 
BRANCH   7  14
ATOM     13  C   UNL     1      -8.725   4.562 129.561  0.00  0.00    +0.000 C 
ATOM     14  S   UNL     1      -9.695   3.647 130.729  0.00  0.00    +0.000 S 
ATOM     15  O   UNL     1      -9.634   4.344 131.999  0.00  0.00    +0.000 OA
ATOM     16  O   UNL     1     -10.973   3.354 130.108  0.00  0.00    +0.000 OA
ENDBRANCH   7  14
ENDBRANCH   1  10
BRANCH   2  17
ATOM     17  C   UNL     1      -7.471  -2.792 129.119  0.00  0.00    +0.000 A 
ATOM     18  C   UNL     1      -8.637  -3.552 128.941  0.00  0.00    +0.000 A 
ATOM     19  C   UNL     1      -9.119  -3.812 127.659  0.00  0.00    +0.000 A 
ATOM     20  C   UNL     1      -8.498  -3.232 126.554  0.00  0.00    +0.000 A 
ATOM     21  C   UNL     1      -7.367  -2.435 126.726  0.00  0.00    +0.000 A 
ATOM     22  C   UNL     1      -6.850  -2.220 128.005  0.00  0.00    +0.000 A 
ENDBRANCH   2  17
TORSDOF 3
ENDMDL
MODEL 5
REMARK VINA RESULT:      -7.1      3.163      6.436
REMARK  Name = Rofecoxib
REMARK  4 active torsions:
REMARK  status: ('A' for Active; 'I' for Inactive)
REMARK    1  A    between atoms: C_1  and  S_2
REMARK    2  A    between atoms: S_2  and  C_5
REMARK    3  A    between atoms: C_8  and  C_11
REMARK    4  A    between atoms: C_12  and  C_17
REMARK                            x       y       z     vdW  Elec       q    Type
REMARK                         _______ _______ _______ _____ _____    ______ ____
ROOT
ATOM      1  C   UNL     1      -8.048   1.118 124.658  0.00  0.00    +0.000 C 
ATOM      2  C   UNL     1      -8.099  -0.093 124.083  0.00  0.00    +0.000 C 
ATOM      3  C   UNL     1      -9.450  -0.233 123.512  0.00  0.00    +0.000 C 
ATOM      4  O   UNL     1      -9.857  -1.171 122.857  0.00  0.00    +0.000 OA
ATOM      5  O   UNL     1     -10.177   0.878 123.827  0.00  0.00    +0.000 OA
ATOM      6  C   UNL     1      -9.366   1.781 124.585  0.00  0.00    +0.000 C 
ENDROOT
BRANCH   1  10
ATOM      7  C   UNL     1      -4.814   3.056 126.689  0.00  0.00    +0.000 A 
ATOM      8  C   UNL     1      -5.537   2.046 127.323  0.00  0.00    +0.000 A 
ATOM      9  C   UNL     1      -6.521   1.351 126.609  0.00  0.00    +0.000 A 
ATOM     10  C   UNL     1      -6.863   1.715 125.295  0.00  0.00    +0.000 A 
ATOM     11  C   UNL     1      -6.122   2.724 124.669  0.00  0.00    +0.000 A 
ATOM     12  C   UNL     1      -5.094   3.386 125.359  0.00  0.00    +0.000 A 
BRANCH   7  14
ATOM     13  C   UNL     1      -1.983   3.171 126.639  0.00  0.00    +0.000 C 
ATOM     14  S   UNL     1      -3.403   3.793 127.498  0.00  0.00    +0.000 S 
ATOM     15  O   UNL     1      -3.375   3.262 128.847  0.00  0.00    +0.000 OA
ATOM     16  O   UNL     1      -3.465   5.224 127.269  0.00  0.00    +0.000 OA
ENDBRANCH   7  14
ENDBRANCH   1  10
BRANCH   2  17
ATOM     17  C   UNL     1      -7.010  -1.057 123.964  0.00  0.00    +0.000 A 
ATOM     18  C   UNL     1      -6.435  -1.319 122.711  0.00  0.00    +0.000 A 
ATOM     19  C   UNL     1      -5.560  -2.392 122.549  0.00  0.00    +0.000 A 
ATOM     20  C   UNL     1      -5.176  -3.148 123.654  0.00  0.00    +0.000 A 
ATOM     21  C   UNL     1      -5.704  -2.863 124.913  0.00  0.00    +0.000 A 
ATOM     22  C   UNL     1      -6.624  -1.825 125.068  0.00  0.00    +0.000 A 
ENDBRANCH   2  17
TORSDOF 3
ENDMDL
MODEL 6
REMARK VINA RESULT:      -7.1      2.684      7.337
REMARK  Name = Rofecoxib
REMARK  4 active torsions:
REMARK  status: ('A' for Active; 'I' for Inactive)
REMARK    1  A    between atoms: C_1  and  S_2
REMARK    2  A    between atoms: S_2  and  C_5
REMARK    3  A    between atoms: C_8  and  C_11
REMARK    4  A    between atoms: C_12  and  C_17
REMARK                            x       y       z     vdW  Elec       q    Type
REMARK                         _______ _______ _______ _____ _____    ______ ____
ROOT
ATOM      1  C   UNL     1      -8.385  -1.331 124.411  0.00  0.00    +0.000 C 
ATOM      2  C   UNL     1      -7.993  -2.363 125.171  0.00  0.00    +0.000 C 
ATOM      3  C   UNL     1      -8.263  -3.586 124.395  0.00  0.00    +0.000 C 
ATOM      4  O   UNL     1      -7.985  -4.721 124.727  0.00  0.00    +0.000 OA
ATOM      5  O   UNL     1      -8.869  -3.238 123.223  0.00  0.00    +0.000 OA
ATOM      6  C   UNL     1      -9.014  -1.815 123.165  0.00  0.00    +0.000 C 
ENDROOT
BRANCH   1  10
ATOM      7  C   UNL     1      -7.709   2.718 125.631  0.00  0.00    +0.000 A 
ATOM      8  C   UNL     1      -6.866   2.115 124.698  0.00  0.00    +0.000 A 
ATOM      9  C   UNL     1      -7.162   0.828 124.232  0.00  0.00    +0.000 A 
ATOM     10  C   UNL     1      -8.239   0.092 124.756  0.00  0.00    +0.000 A 
ATOM     11  C   UNL     1      -9.082   0.715 125.683  0.00  0.00    +0.000 A 
ATOM     12  C   UNL     1      -8.826   2.027 126.112  0.00  0.00    +0.000 A 
BRANCH   7  14
ATOM     13  C   UNL     1      -6.220   5.041 124.981  0.00  0.00    +0.000 C 
ATOM     14  S   UNL     1      -7.488   4.436 126.062  0.00  0.00    +0.000 S 
ATOM     15  O   UNL     1      -6.966   4.460 127.415  0.00  0.00    +0.000 OA
ATOM     16  O   UNL     1      -8.717   5.133 125.733  0.00  0.00    +0.000 OA
ENDBRANCH   7  14
ENDBRANCH   1  10
BRANCH   2  17
ATOM     17  C   UNL     1      -7.345  -2.298 126.477  0.00  0.00    +0.000 A 
ATOM     18  C   UNL     1      -5.959  -2.096 126.566  0.00  0.00    +0.000 A 
ATOM     19  C   UNL     1      -5.301  -2.258 127.784  0.00  0.00    +0.000 A 
ATOM     20  C   UNL     1      -6.034  -2.523 128.939  0.00  0.00    +0.000 A 
ATOM     21  C   UNL     1      -7.419  -2.676 128.868  0.00  0.00    +0.000 A 
ATOM     22  C   UNL     1      -8.073  -2.571 127.639  0.00  0.00    +0.000 A 
ENDBRANCH   2  17
TORSDOF 3
ENDMDL
MODEL 7
REMARK VINA RESULT:      -7.1      4.590      6.380
REMARK  Name = Rofecoxib
REMARK  4 active torsions:
REMARK  status: ('A' for Active; 'I' for Inactive)
REMARK    1  A    between atoms: C_1  and  S_2
REMARK    2  A    between atoms: S_2  and  C_5
REMARK    3  A    between atoms: C_8  and  C_11
REMARK    4  A    between atoms: C_12  and  C_17
REMARK                            x       y       z     vdW  Elec       q    Type
REMARK                         _______ _______ _______ _____ _____    ______ ____
ROOT
ATOM      1  C   UNL     1      -7.859  -0.033 127.887  0.00  0.00    +0.000 C 
ATOM      2  C   UNL     1      -8.301  -0.161 126.627  0.00  0.00    +0.000 C 
ATOM      3  C   UNL     1      -8.905   1.132 126.259  0.00  0.00    +0.000 C 
ATOM      4  O   UNL     1      -9.362   1.425 125.172  0.00  0.00    +0.000 OA
ATOM      5  O   UNL     1      -8.858   1.963 127.340  0.00  0.00    +0.000 OA
ATOM      6  C   UNL     1      -8.231   1.287 128.435  0.00  0.00    +0.000 C 
ENDROOT
BRANCH   1  10
ATOM      7  C   UNL     1      -5.727  -2.803 130.361  0.00  0.00    +0.000 A 
ATOM      8  C   UNL     1      -7.116  -2.712 130.444  0.00  0.00    +0.000 A 
ATOM      9  C   UNL     1      -7.806  -1.878 129.556  0.00  0.00    +0.000 A 
ATOM     10  C   UNL     1      -7.120  -1.057 128.643  0.00  0.00    +0.000 A 
ATOM     11  C   UNL     1      -5.728  -1.167 128.565  0.00  0.00    +0.000 A 
ATOM     12  C   UNL     1      -5.032  -2.044 129.413  0.00  0.00    +0.000 A 
BRANCH   7  14
ATOM     13  C   UNL     1      -5.185  -3.638 133.015  0.00  0.00    +0.000 C 
ATOM     14  S   UNL     1      -4.849  -4.027 131.318  0.00  0.00    +0.000 S 
ATOM     15  O   UNL     1      -3.435  -3.802 131.083  0.00  0.00    +0.000 OA
ATOM     16  O   UNL     1      -5.448  -5.318 131.035  0.00  0.00    +0.000 OA
ENDBRANCH   7  14
ENDBRANCH   1  10
BRANCH   2  17
ATOM     17  C   UNL     1      -8.145  -1.319 125.753  0.00  0.00    +0.000 A 
ATOM     18  C   UNL     1      -9.041  -2.395 125.844  0.00  0.00    +0.000 A 
ATOM     19  C   UNL     1      -8.772  -3.592 125.182  0.00  0.00    +0.000 A 
ATOM     20  C   UNL     1      -7.661  -3.689 124.347  0.00  0.00    +0.000 A 
ATOM     21  C   UNL     1      -6.792  -2.606 124.212  0.00  0.00    +0.000 A 
ATOM     22  C   UNL     1      -7.029  -1.426 124.918  0.00  0.00    +0.000 A 
ENDBRANCH   2  17
TORSDOF 3
ENDMDL
MODEL 8
REMARK VINA RESULT:      -6.9      4.828      7.581
REMARK  Name = Rofecoxib
REMARK  4 active torsions:
REMARK  status: ('A' for Active; 'I' for Inactive)
REMARK    1  A    between atoms: C_1  and  S_2
REMARK    2  A    between atoms: S_2  and  C_5
REMARK    3  A    between atoms: C_8  and  C_11
REMARK    4  A    between atoms: C_12  and  C_17
REMARK                            x       y       z     vdW  Elec       q    Type
REMARK                         _______ _______ _______ _____ _____    ______ ____
ROOT
ATOM      1  C   UNL     1      -6.742  -3.132 129.921  0.00  0.00    +0.000 C 
ATOM      2  C   UNL     1      -6.888  -2.239 130.911  0.00  0.00    +0.000 C 
ATOM      3  C   UNL     1      -6.161  -2.776 132.074  0.00  0.00    +0.000 C 
ATOM      4  O   UNL     1      -6.012  -2.222 133.145  0.00  0.00    +0.000 OA
ATOM      5  O   UNL     1      -5.662  -4.005 131.752  0.00  0.00    +0.000 OA
ATOM      6  C   UNL     1      -6.013  -4.324 130.402  0.00  0.00    +0.000 C 
ENDROOT
BRANCH   1  10
ATOM      7  C   UNL     1      -8.289  -2.360 126.003  0.00  0.00    +0.000 A 
ATOM      8  C   UNL     1      -7.017  -1.911 126.357  0.00  0.00    +0.000 A 
ATOM      9  C   UNL     1      -6.485  -2.262 127.604  0.00  0.00    +0.000 A 
ATOM     10  C   UNL     1      -7.244  -2.977 128.546  0.00  0.00    +0.000 A 
ATOM     11  C   UNL     1      -8.514  -3.430 128.172  0.00  0.00    +0.000 A 
ATOM     12  C   UNL     1      -9.032  -3.131 126.902  0.00  0.00    +0.000 A 
BRANCH   7  14
ATOM     13  C   UNL     1      -7.460  -2.208 123.296  0.00  0.00    +0.000 C 
ATOM     14  S   UNL     1      -8.892  -2.127 124.339  0.00  0.00    +0.000 S 
ATOM     15  O   UNL     1      -9.413  -0.775 124.273  0.00  0.00    +0.000 OA
ATOM     16  O   UNL     1      -9.737  -3.260 124.016  0.00  0.00    +0.000 OA
ENDBRANCH   7  14
ENDBRANCH   1  10
BRANCH   2  17
ATOM     17  C   UNL     1      -7.560  -0.946 130.837  0.00  0.00    +0.000 A 
ATOM     18  C   UNL     1      -6.958   0.122 130.155  0.00  0.00    +0.000 A 
ATOM     19  C   UNL     1      -7.476   1.411 130.269  0.00  0.00    +0.000 A 
ATOM     20  C   UNL     1      -8.652   1.626 130.984  0.00  0.00    +0.000 A 
ATOM     21  C   UNL     1      -9.284   0.561 131.625  0.00  0.00    +0.000 A 
ATOM     22  C   UNL     1      -8.736  -0.721 131.559  0.00  0.00    +0.000 A 
ENDBRANCH   2  17
TORSDOF 3
ENDMDL
MODEL 9
REMARK VINA RESULT:      -6.9      7.149      8.868
REMARK  Name = Rofecoxib
REMARK  4 active torsions:
REMARK  status: ('A' for Active; 'I' for Inactive)
REMARK    1  A    between atoms: C_1  and  S_2
REMARK    2  A    between atoms: S_2  and  C_5
REMARK    3  A    between atoms: C_8  and  C_11
REMARK    4  A    between atoms: C_12  and  C_17
REMARK                            x       y       z     vdW  Elec       q    Type
REMARK                         _______ _______ _______ _____ _____    ______ ____
ROOT
ATOM      1  C   UNL     1      -4.532   5.348 132.499  0.00  0.00    +0.000 C 
ATOM      2  C   UNL     1      -3.308   5.254 131.959  0.00  0.00    +0.000 C 
ATOM      3  C   UNL     1      -2.359   5.135 133.080  0.00  0.00    +0.000 C 
ATOM      4  O   UNL     1      -1.160   4.969 132.989  0.00  0.00    +0.000 OA
ATOM      5  O   UNL     1      -3.051   5.230 134.253  0.00  0.00    +0.000 OA
ATOM      6  C   UNL     1      -4.444   5.398 133.974  0.00  0.00    +0.000 C 
ENDROOT
BRANCH   1  10
ATOM      7  C   UNL     1      -8.367   5.621 130.614  0.00  0.00    +0.000 A 
ATOM      8  C   UNL     1      -7.635   6.776 130.888  0.00  0.00    +0.000 A 
ATOM      9  C   UNL     1      -6.340   6.663 131.408  0.00  0.00    +0.000 A 
ATOM     10  C   UNL     1      -5.797   5.413 131.750  0.00  0.00    +0.000 A 
ATOM     11  C   UNL     1      -6.540   4.263 131.460  0.00  0.00    +0.000 A 
ATOM     12  C   UNL     1      -7.816   4.364 130.885  0.00  0.00    +0.000 A 
BRANCH   7  14
ATOM     13  C   UNL     1     -10.855   6.979 130.575  0.00  0.00    +0.000 C 
ATOM     14  S   UNL     1      -9.919   5.728 129.738  0.00  0.00    +0.000 S 
ATOM     15  O   UNL     1     -10.595   4.461 129.936  0.00  0.00    +0.000 OA
ATOM     16  O   UNL     1      -9.634   6.212 128.400  0.00  0.00    +0.000 OA
ENDBRANCH   7  14
ENDBRANCH   1  10
BRANCH   2  17
ATOM     17  C   UNL     1      -2.975   5.193 130.540  0.00  0.00    +0.000 A 
ATOM     18  C   UNL     1      -2.471   6.327 129.886  0.00  0.00    +0.000 A 
ATOM     19  C   UNL     1      -2.365   6.350 128.496  0.00  0.00    +0.000 A 
ATOM     20  C   UNL     1      -2.668   5.207 127.759  0.00  0.00    +0.000 A 
ATOM     21  C   UNL     1      -3.123   4.059 128.405  0.00  0.00    +0.000 A 
ATOM     22  C   UNL     1      -3.283   4.052 129.792  0.00  0.00    +0.000 A 
ENDBRANCH   2  17
TORSDOF 3
ENDMDL
