MODEL 1
REMARK VINA RESULT:      -7.5      0.000      0.000
REMARK  Name = Roflumilast
REMARK  7 active torsions:
REMARK  status: ('A' for Active; 'I' for Inactive)
REMARK    1  A    between atoms: C_2  and  O_4
REMARK    2  A    between atoms: O_4  and  C_5
REMARK    3  A    between atoms: C_6  and  O_7
REMARK    4  A    between atoms: O_7  and  C_8
REMARK    5  A    between atoms: C_8  and  C_9
REMARK    6  A    between atoms: C_13  and  C_16
REMARK    7  A    between atoms: N_18  and  C_19
REMARK                            x       y       z     vdW  Elec       q    Type
REMARK                         _______ _______ _______ _____ _____    ______ ____
ROOT
ATOM      1  C   UNL     1      -9.060  -2.341 125.774  0.00  0.00    +0.000 A 
ATOM      2  C   UNL     1      -7.988  -1.450 126.004  0.00  0.00    +0.000 A 
ATOM      3  C   UNL     1      -7.234  -1.620 127.186  0.00  0.00    +0.000 A 
ATOM      4  C   UNL     1      -7.590  -2.566 128.184  0.00  0.00    +0.000 A 
ATOM      5  C   UNL     1      -8.672  -3.408 127.942  0.00  0.00    +0.000 A 
ATOM      6  C   UNL     1      -9.384  -3.304 126.742  0.00  0.00    +0.000 A 
ENDROOT
BRANCH   4   7
ATOM      7  C   UNL     1      -6.820  -2.590 129.476  0.00  0.00    +0.000 C 
ATOM      8  O   UNL     1      -7.440  -2.351 130.515  0.00  0.00    +0.000 OA
ATOM      9  N   UNL     1      -5.444  -2.844 129.451  0.00  0.00    +0.000 N 
ATOM     10  H   UNL     1      -4.926  -2.648 128.603  0.00  0.00    +0.000 HD
BRANCH   9  11
ATOM     11  C   UNL     1      -4.659  -2.943 130.650  0.00  0.00    +0.000 A 
ATOM     12  C   UNL     1      -3.940  -1.856 131.176  0.00  0.00    +0.000 A 
ATOM     13 CL   UNL     1      -4.082  -0.231 130.603  0.00  0.00    +0.000 Cl
ATOM     14  C   UNL     1      -3.187  -2.047 132.334  0.00  0.00    +0.000 A 
ATOM     15  N   UNL     1      -3.092  -3.218 133.005  0.00  0.00    +0.000 NA
ATOM     16  C   UNL     1      -3.815  -4.245 132.506  0.00  0.00    +0.000 A 
ATOM     17  C   UNL     1      -4.624  -4.152 131.372  0.00  0.00    +0.000 A 
ATOM     18 CL   UNL     1      -5.512  -5.548 130.883  0.00  0.00    +0.000 Cl
ENDBRANCH   9  11
ENDBRANCH   4   7
BRANCH   1  19
ATOM     19  O   UNL     1      -9.667  -2.403 124.545  0.00  0.00    +0.000 OA
BRANCH  19  21
ATOM     20  F   UNL     1     -10.366  -4.033 123.189  0.00  0.00    +0.000 F 
ATOM     21  C   UNL     1      -9.242  -3.446 123.675  0.00  0.00    +0.000 C 
ATOM     22  F   UNL     1      -8.596  -2.932 122.602  0.00  0.00    +0.000 F 
ENDBRANCH  19  21
ENDBRANCH   1  19
BRANCH   2  23
ATOM     23  O   UNL     1      -7.586  -0.370 125.211  0.00  0.00    +0.000 OA
BRANCH  23  24
ATOM     24  C   UNL     1      -6.735  -0.718 124.112  0.00  0.00    +0.000 C 
BRANCH  24  25
ATOM     25  C   UNL     1      -5.707  -1.798 124.285  0.00  0.00    +0.000 C 
ATOM     26  C   UNL     1      -5.677  -3.311 124.328  0.00  0.00    +0.000 C 
ATOM     27  C   UNL     1      -5.294  -2.597 123.068  0.00  0.00    +0.000 C 
ENDBRANCH  24  25
ENDBRANCH  23  24
ENDBRANCH   2  23
TORSDOF 7
ENDMDL
MODEL 2
REMARK VINA RESULT:      -7.5      1.525      2.034
REMARK  Name = Roflumilast
REMARK  7 active torsions:
REMARK  status: ('A' for Active; 'I' for Inactive)
REMARK    1  A    between atoms: C_2  and  O_4
REMARK    2  A    between atoms: O_4  and  C_5
REMARK    3  A    between atoms: C_6  and  O_7
REMARK    4  A    between atoms: O_7  and  C_8
REMARK    5  A    between atoms: C_8  and  C_9
REMARK    6  A    between atoms: C_13  and  C_16
REMARK    7  A    between atoms: N_18  and  C_19
REMARK                            x       y       z     vdW  Elec       q    Type
REMARK                         _______ _______ _______ _____ _____    ______ ____
ROOT
ATOM      1  C   UNL     1      -8.866  -2.602 126.202  0.00  0.00    +0.000 A 
ATOM      2  C   UNL     1      -7.606  -1.989 126.380  0.00  0.00    +0.000 A 
ATOM      3  C   UNL     1      -6.862  -2.336 127.530  0.00  0.00    +0.000 A 
ATOM      4  C   UNL     1      -7.387  -3.176 128.548  0.00  0.00    +0.000 A 
ATOM      5  C   UNL     1      -8.646  -3.739 128.358  0.00  0.00    +0.000 A 
ATOM      6  C   UNL     1      -9.365  -3.466 127.190  0.00  0.00    +0.000 A 
ENDROOT
BRANCH   4   7
ATOM      7  C   UNL     1      -6.589  -3.386 129.806  0.00  0.00    +0.000 C 
ATOM      8  O   UNL     1      -6.257  -4.540 130.085  0.00  0.00    +0.000 OA
ATOM      9  N   UNL     1      -6.287  -2.288 130.619  0.00  0.00    +0.000 N 
ATOM     10  H   UNL     1      -6.881  -1.469 130.575  0.00  0.00    +0.000 HD
BRANCH   9  11
ATOM     11  C   UNL     1      -5.479  -2.406 131.800  0.00  0.00    +0.000 A 
ATOM     12  C   UNL     1      -6.019  -2.716 133.061  0.00  0.00    +0.000 A 
ATOM     13 CL   UNL     1      -7.654  -3.217 133.318  0.00  0.00    +0.000 Cl
ATOM     14  C   UNL     1      -5.162  -2.791 134.158  0.00  0.00    +0.000 A 
ATOM     15  N   UNL     1      -3.827  -2.584 134.106  0.00  0.00    +0.000 NA
ATOM     16  C   UNL     1      -3.317  -2.319 132.883  0.00  0.00    +0.000 A 
ATOM     17  C   UNL     1      -4.081  -2.253 131.717  0.00  0.00    +0.000 A 
ATOM     18 CL   UNL     1      -3.273  -1.938 130.225  0.00  0.00    +0.000 Cl
ENDBRANCH   9  11
ENDBRANCH   4   7
BRANCH   1  19
ATOM     19  O   UNL     1      -9.523  -2.515 125.001  0.00  0.00    +0.000 OA
BRANCH  19  21
ATOM     20  F   UNL     1      -8.464  -4.421 124.524  0.00  0.00    +0.000 F 
ATOM     21  C   UNL     1      -9.035  -3.333 123.945  0.00  0.00    +0.000 C 
ATOM     22  F   UNL     1     -10.061  -3.804 123.198  0.00  0.00    +0.000 F 
ENDBRANCH  19  21
ENDBRANCH   1  19
BRANCH   2  23
ATOM     23  O   UNL     1      -6.996  -1.031 125.564  0.00  0.00    +0.000 OA
BRANCH  23  24
ATOM     24  C   UNL     1      -5.693  -1.391 125.088  0.00  0.00    +0.000 C 
BRANCH  24  25
ATOM     25  C   UNL     1      -5.562  -2.396 123.981  0.00  0.00    +0.000 C 
ATOM     26  C   UNL     1      -4.444  -3.119 123.261  0.00  0.00    +0.000 C 
ATOM     27  C   UNL     1      -5.204  -3.821 124.345  0.00  0.00    +0.000 C 
ENDBRANCH  24  25
ENDBRANCH  23  24
ENDBRANCH   2  23
TORSDOF 7
ENDMDL
MODEL 3
REMARK VINA RESULT:      -7.4      1.610      1.716
REMARK  Name = Roflumilast
REMARK  7 active torsions:
REMARK  status: ('A' for Active; 'I' for Inactive)
REMARK    1  A    between atoms: C_2  and  O_4
REMARK    2  A    between atoms: O_4  and  C_5
REMARK    3  A    between atoms: C_6  and  O_7
REMARK    4  A    between atoms: O_7  and  C_8
REMARK    5  A    between atoms: C_8  and  C_9
REMARK    6  A    between atoms: C_13  and  C_16
REMARK    7  A    between atoms: N_18  and  C_19
REMARK                            x       y       z     vdW  Elec       q    Type
REMARK                         _______ _______ _______ _____ _____    ______ ____
ROOT
ATOM      1  C   UNL     1      -8.881  -2.639 126.280  0.00  0.00    +0.000 A 
ATOM      2  C   UNL     1      -7.611  -2.040 126.433  0.00  0.00    +0.000 A 
ATOM      3  C   UNL     1      -6.853  -2.386 127.575  0.00  0.00    +0.000 A 
ATOM      4  C   UNL     1      -7.372  -3.210 128.608  0.00  0.00    +0.000 A 
ATOM      5  C   UNL     1      -8.641  -3.760 128.442  0.00  0.00    +0.000 A 
ATOM      6  C   UNL     1      -9.374  -3.488 127.283  0.00  0.00    +0.000 A 
ENDROOT
BRANCH   4   7
ATOM      7  C   UNL     1      -6.557  -3.419 129.855  0.00  0.00    +0.000 C 
ATOM      8  O   UNL     1      -6.102  -4.548 130.057  0.00  0.00    +0.000 OA
ATOM      9  N   UNL     1      -6.377  -2.354 130.743  0.00  0.00    +0.000 N 
ATOM     10  H   UNL     1      -7.056  -1.602 130.751  0.00  0.00    +0.000 HD
BRANCH   9  11
ATOM     11  C   UNL     1      -5.561  -2.464 131.921  0.00  0.00    +0.000 A 
ATOM     12  C   UNL     1      -4.168  -2.280 131.898  0.00  0.00    +0.000 A 
ATOM     13 CL   UNL     1      -3.292  -1.680 130.533  0.00  0.00    +0.000 Cl
ATOM     14  C   UNL     1      -3.451  -2.426 133.085  0.00  0.00    +0.000 A 
ATOM     15  N   UNL     1      -4.001  -2.738 134.281  0.00  0.00    +0.000 NA
ATOM     16  C   UNL     1      -5.345  -2.879 134.294  0.00  0.00    +0.000 A 
ATOM     17  C   UNL     1      -6.158  -2.723 133.170  0.00  0.00    +0.000 A 
ATOM     18 CL   UNL     1      -7.863  -2.904 133.361  0.00  0.00    +0.000 Cl
ENDBRANCH   9  11
ENDBRANCH   4   7
BRANCH   1  19
ATOM     19  O   UNL     1      -9.556  -2.555 125.089  0.00  0.00    +0.000 OA
BRANCH  19  21
ATOM     20  F   UNL     1      -8.450  -4.414 124.538  0.00  0.00    +0.000 F 
ATOM     21  C   UNL     1      -9.032  -3.310 124.003  0.00  0.00    +0.000 C 
ATOM     22  F   UNL     1     -10.035  -3.762 123.215  0.00  0.00    +0.000 F 
ENDBRANCH  19  21
ENDBRANCH   1  19
BRANCH   2  23
ATOM     23  O   UNL     1      -7.002  -1.096 125.599  0.00  0.00    +0.000 OA
BRANCH  23  24
ATOM     24  C   UNL     1      -5.696  -1.461 125.135  0.00  0.00    +0.000 C 
BRANCH  24  25
ATOM     25  C   UNL     1      -5.558  -2.449 124.014  0.00  0.00    +0.000 C 
ATOM     26  C   UNL     1      -4.435  -3.131 123.263  0.00  0.00    +0.000 C 
ATOM     27  C   UNL     1      -5.153  -3.867 124.354  0.00  0.00    +0.000 C 
ENDBRANCH  24  25
ENDBRANCH  23  24
ENDBRANCH   2  23
TORSDOF 7
ENDMDL
MODEL 4
REMARK VINA RESULT:      -7.2      1.308      1.931
REMARK  Name = Roflumilast
REMARK  7 active torsions:
REMARK  status: ('A' for Active; 'I' for Inactive)
REMARK    1  A    between atoms: C_2  and  O_4
REMARK    2  A    between atoms: O_4  and  C_5
REMARK    3  A    between atoms: C_6  and  O_7
REMARK    4  A    between atoms: O_7  and  C_8
REMARK    5  A    between atoms: C_8  and  C_9
REMARK    6  A    between atoms: C_13  and  C_16
REMARK    7  A    between atoms: N_18  and  C_19
REMARK                            x       y       z     vdW  Elec       q    Type
REMARK                         _______ _______ _______ _____ _____    ______ ____
ROOT
ATOM      1  C   UNL     1      -9.182  -2.253 125.885  0.00  0.00    +0.000 A 
ATOM      2  C   UNL     1      -8.495  -1.094 126.306  0.00  0.00    +0.000 A 
ATOM      3  C   UNL     1      -7.670  -1.196 127.449  0.00  0.00    +0.000 A 
ATOM      4  C   UNL     1      -7.607  -2.377 128.236  0.00  0.00    +0.000 A 
ATOM      5  C   UNL     1      -8.323  -3.494 127.812  0.00  0.00    +0.000 A 
ATOM      6  C   UNL     1      -9.085  -3.432 126.641  0.00  0.00    +0.000 A 
ENDROOT
BRANCH   4   7
ATOM      7  C   UNL     1      -6.815  -2.362 129.515  0.00  0.00    +0.000 C 
ATOM      8  O   UNL     1      -7.397  -2.007 130.542  0.00  0.00    +0.000 OA
ATOM      9  N   UNL     1      -5.461  -2.711 129.487  0.00  0.00    +0.000 N 
ATOM     10  H   UNL     1      -4.947  -2.611 128.619  0.00  0.00    +0.000 HD
BRANCH   9  11
ATOM     11  C   UNL     1      -4.659  -2.778 130.677  0.00  0.00    +0.000 A 
ATOM     12  C   UNL     1      -3.943  -1.674 131.172  0.00  0.00    +0.000 A 
ATOM     13 CL   UNL     1      -4.107  -0.062 130.568  0.00  0.00    +0.000 Cl
ATOM     14  C   UNL     1      -3.175  -1.834 132.324  0.00  0.00    +0.000 A 
ATOM     15  N   UNL     1      -3.061  -2.990 133.018  0.00  0.00    +0.000 NA
ATOM     16  C   UNL     1      -3.781  -4.033 132.549  0.00  0.00    +0.000 A 
ATOM     17  C   UNL     1      -4.605  -3.971 131.425  0.00  0.00    +0.000 A 
ATOM     18 CL   UNL     1      -5.486  -5.384 130.976  0.00  0.00    +0.000 Cl
ENDBRANCH   9  11
ENDBRANCH   4   7
BRANCH   1  19
ATOM     19  O   UNL     1      -9.788  -2.300 124.655  0.00  0.00    +0.000 OA
BRANCH  19  21
ATOM     20  F   UNL     1     -10.261  -3.898 123.171  0.00  0.00    +0.000 F 
ATOM     21  C   UNL     1      -9.228  -3.193 123.701  0.00  0.00    +0.000 C 
ATOM     22  F   UNL     1      -8.680  -2.504 122.672  0.00  0.00    +0.000 F 
ENDBRANCH  19  21
ENDBRANCH   1  19
BRANCH   2  23
ATOM     23  O   UNL     1      -8.551   0.187 125.747  0.00  0.00    +0.000 OA
BRANCH  23  24
ATOM     24  C   UNL     1      -7.831   0.337 124.517  0.00  0.00    +0.000 C 
BRANCH  24  25
ATOM     25  C   UNL     1      -8.564   0.760 123.278  0.00  0.00    +0.000 C 
ATOM     26  C   UNL     1      -9.967   0.646 122.720  0.00  0.00    +0.000 C 
ATOM     27  C   UNL     1      -9.531   1.920 123.378  0.00  0.00    +0.000 C 
ENDBRANCH  24  25
ENDBRANCH  23  24
ENDBRANCH   2  23
TORSDOF 7
ENDMDL
MODEL 5
REMARK VINA RESULT:      -7.1      4.778      6.879
REMARK  Name = Roflumilast
REMARK  7 active torsions:
REMARK  status: ('A' for Active; 'I' for Inactive)
REMARK    1  A    between atoms: C_2  and  O_4
REMARK    2  A    between atoms: O_4  and  C_5
REMARK    3  A    between atoms: C_6  and  O_7
REMARK    4  A    between atoms: O_7  and  C_8
REMARK    5  A    between atoms: C_8  and  C_9
REMARK    6  A    between atoms: C_13  and  C_16
REMARK    7  A    between atoms: N_18  and  C_19
REMARK                            x       y       z     vdW  Elec       q    Type
REMARK                         _______ _______ _______ _____ _____    ______ ____
ROOT
ATOM      1  C   UNL     1      -6.270   3.688 123.153  0.00  0.00    +0.000 A 
ATOM      2  C   UNL     1      -5.734   3.355 124.417  0.00  0.00    +0.000 A 
ATOM      3  C   UNL     1      -6.288   2.246 125.096  0.00  0.00    +0.000 A 
ATOM      4  C   UNL     1      -7.421   1.545 124.605  0.00  0.00    +0.000 A 
ATOM      5  C   UNL     1      -7.947   1.919 123.371  0.00  0.00    +0.000 A 
ATOM      6  C   UNL     1      -7.364   2.966 122.650  0.00  0.00    +0.000 A 
ENDROOT
BRANCH   4   7
ATOM      7  C   UNL     1      -8.037   0.466 125.453  0.00  0.00    +0.000 C 
ATOM      8  O   UNL     1      -9.251   0.526 125.661  0.00  0.00    +0.000 OA
ATOM      9  N   UNL     1      -7.219  -0.531 125.995  0.00  0.00    +0.000 N 
ATOM     10  H   UNL     1      -6.235  -0.336 126.132  0.00  0.00    +0.000 HD
BRANCH   9  11
ATOM     11  C   UNL     1      -7.747  -1.625 126.762  0.00  0.00    +0.000 A 
ATOM     12  C   UNL     1      -8.383  -2.730 126.169  0.00  0.00    +0.000 A 
ATOM     13 CL   UNL     1      -8.412  -3.032 124.467  0.00  0.00    +0.000 Cl
ATOM     14  C   UNL     1      -8.883  -3.738 126.992  0.00  0.00    +0.000 A 
ATOM     15  N   UNL     1      -8.805  -3.738 128.342  0.00  0.00    +0.000 NA
ATOM     16  C   UNL     1      -8.161  -2.686 128.896  0.00  0.00    +0.000 A 
ATOM     17  C   UNL     1      -7.597  -1.642 128.163  0.00  0.00    +0.000 A 
ATOM     18 CL   UNL     1      -6.778  -0.388 129.020  0.00  0.00    +0.000 Cl
ENDBRANCH   9  11
ENDBRANCH   4   7
BRANCH   1  19
ATOM     19  O   UNL     1      -5.624   4.575 122.331  0.00  0.00    +0.000 OA
BRANCH  19  21
ATOM     20  F   UNL     1      -5.025   5.299 120.306  0.00  0.00    +0.000 F 
ATOM     21  C   UNL     1      -5.523   4.217 120.958  0.00  0.00    +0.000 C 
ATOM     22  F   UNL     1      -4.611   3.230 120.793  0.00  0.00    +0.000 F 
ENDBRANCH  19  21
ENDBRANCH   1  19
BRANCH   2  23
ATOM     23  O   UNL     1      -4.722   4.017 125.121  0.00  0.00    +0.000 OA
BRANCH  23  24
ATOM     24  C   UNL     1      -4.598   3.632 126.495  0.00  0.00    +0.000 C 
BRANCH  24  25
ATOM     25  C   UNL     1      -3.276   3.143 127.010  0.00  0.00    +0.000 C 
ATOM     26  C   UNL     1      -1.844   3.088 126.523  0.00  0.00    +0.000 C 
ATOM     27  C   UNL     1      -2.263   4.169 127.472  0.00  0.00    +0.000 C 
ENDBRANCH  24  25
ENDBRANCH  23  24
ENDBRANCH   2  23
TORSDOF 7
ENDMDL
MODEL 6
REMARK VINA RESULT:      -7.1      2.233      3.117
REMARK  Name = Roflumilast
REMARK  7 active torsions:
REMARK  status: ('A' for Active; 'I' for Inactive)
REMARK    1  A    between atoms: C_2  and  O_4
REMARK    2  A    between atoms: O_4  and  C_5
REMARK    3  A    between atoms: C_6  and  O_7
REMARK    4  A    between atoms: O_7  and  C_8
REMARK    5  A    between atoms: C_8  and  C_9
REMARK    6  A    between atoms: C_13  and  C_16
REMARK    7  A    between atoms: N_18  and  C_19
REMARK                            x       y       z     vdW  Elec       q    Type
REMARK                         _______ _______ _______ _____ _____    ______ ____
ROOT
ATOM      1  C   UNL     1      -9.203  -2.368 125.927  0.00  0.00    +0.000 A 
ATOM      2  C   UNL     1      -8.349  -1.294 126.261  0.00  0.00    +0.000 A 
ATOM      3  C   UNL     1      -7.571  -1.411 127.435  0.00  0.00    +0.000 A 
ATOM      4  C   UNL     1      -7.710  -2.505 128.330  0.00  0.00    +0.000 A 
ATOM      5  C   UNL     1      -8.585  -3.534 127.988  0.00  0.00    +0.000 A 
ATOM      6  C   UNL     1      -9.306  -3.469 126.792  0.00  0.00    +0.000 A 
ENDROOT
BRANCH   4   7
ATOM      7  C   UNL     1      -6.948  -2.489 129.627  0.00  0.00    +0.000 C 
ATOM      8  O   UNL     1      -5.811  -2.011 129.616  0.00  0.00    +0.000 OA
ATOM      9  N   UNL     1      -7.533  -3.040 130.773  0.00  0.00    +0.000 N 
ATOM     10  H   UNL     1      -8.254  -3.742 130.665  0.00  0.00    +0.000 HD
BRANCH   9  11
ATOM     11  C   UNL     1      -6.889  -3.004 132.056  0.00  0.00    +0.000 A 
ATOM     12  C   UNL     1      -6.019  -4.017 132.497  0.00  0.00    +0.000 A 
ATOM     13 CL   UNL     1      -5.434  -5.296 131.492  0.00  0.00    +0.000 Cl
ATOM     14  C   UNL     1      -5.454  -3.912 133.767  0.00  0.00    +0.000 A 
ATOM     15  N   UNL     1      -5.680  -2.892 134.626  0.00  0.00    +0.000 NA
ATOM     16  C   UNL     1      -6.491  -1.909 134.177  0.00  0.00    +0.000 A 
ATOM     17  C   UNL     1      -7.083  -1.903 132.912  0.00  0.00    +0.000 A 
ATOM     18 CL   UNL     1      -8.068  -0.555 132.476  0.00  0.00    +0.000 Cl
ENDBRANCH   9  11
ENDBRANCH   4   7
BRANCH   1  19
ATOM     19  O   UNL     1      -9.786  -2.439 124.687  0.00  0.00    +0.000 OA
BRANCH  19  21
ATOM     20  F   UNL     1     -10.243  -3.899 123.061  0.00  0.00    +0.000 F 
ATOM     21  C   UNL     1      -9.215  -3.359 123.764  0.00  0.00    +0.000 C 
ATOM     22  F   UNL     1      -8.447  -2.706 122.860  0.00  0.00    +0.000 F 
ENDBRANCH  19  21
ENDBRANCH   1  19
BRANCH   2  23
ATOM     23  O   UNL     1      -8.192  -0.080 125.583  0.00  0.00    +0.000 OA
BRANCH  23  24
ATOM     24  C   UNL     1      -9.327   0.793 125.649  0.00  0.00    +0.000 C 
BRANCH  24  25
ATOM     25  C   UNL     1      -9.892   1.368 124.383  0.00  0.00    +0.000 C 
ATOM     26  C   UNL     1      -9.369   2.078 123.152  0.00  0.00    +0.000 C 
ATOM     27  C   UNL     1      -9.671   0.611 123.091  0.00  0.00    +0.000 C 
ENDBRANCH  24  25
ENDBRANCH  23  24
ENDBRANCH   2  23
TORSDOF 7
ENDMDL
MODEL 7
REMARK VINA RESULT:      -6.9      4.260      5.588
REMARK  Name = Roflumilast
REMARK  7 active torsions:
REMARK  status: ('A' for Active; 'I' for Inactive)
REMARK    1  A    between atoms: C_2  and  O_4
REMARK    2  A    between atoms: O_4  and  C_5
REMARK    3  A    between atoms: C_6  and  O_7
REMARK    4  A    between atoms: O_7  and  C_8
REMARK    5  A    between atoms: C_8  and  C_9
REMARK    6  A    between atoms: C_13  and  C_16
REMARK    7  A    between atoms: N_18  and  C_19
REMARK                            x       y       z     vdW  Elec       q    Type
REMARK                         _______ _______ _______ _____ _____    ______ ____
ROOT
ATOM      1  C   UNL     1      -9.036  -1.365 125.533  0.00  0.00    +0.000 A 
ATOM      2  C   UNL     1      -7.808  -1.324 126.229  0.00  0.00    +0.000 A 
ATOM      3  C   UNL     1      -7.381  -0.077 126.739  0.00  0.00    +0.000 A 
ATOM      4  C   UNL     1      -8.081   1.130 126.475  0.00  0.00    +0.000 A 
ATOM      5  C   UNL     1      -9.273   1.061 125.757  0.00  0.00    +0.000 A 
ATOM      6  C   UNL     1      -9.749  -0.176 125.309  0.00  0.00    +0.000 A 
ENDROOT
BRANCH   4   7
ATOM      7  C   UNL     1      -7.489   2.434 126.934  0.00  0.00    +0.000 C 
ATOM      8  O   UNL     1      -8.174   3.451 126.797  0.00  0.00    +0.000 OA
ATOM      9  N   UNL     1      -6.193   2.452 127.459  0.00  0.00    +0.000 N 
ATOM     10  H   UNL     1      -5.549   1.715 127.200  0.00  0.00    +0.000 HD
BRANCH   9  11
ATOM     11  C   UNL     1      -5.588   3.650 127.973  0.00  0.00    +0.000 A 
ATOM     12  C   UNL     1      -5.785   4.092 129.293  0.00  0.00    +0.000 A 
ATOM     13 CL   UNL     1      -6.571   3.162 130.520  0.00  0.00    +0.000 Cl
ATOM     14  C   UNL     1      -5.176   5.278 129.702  0.00  0.00    +0.000 A 
ATOM     15  N   UNL     1      -4.394   6.051 128.914  0.00  0.00    +0.000 NA
ATOM     16  C   UNL     1      -4.187   5.597 127.659  0.00  0.00    +0.000 A 
ATOM     17  C   UNL     1      -4.724   4.409 127.160  0.00  0.00    +0.000 A 
ATOM     18 CL   UNL     1      -4.335   3.949 125.543  0.00  0.00    +0.000 Cl
ENDBRANCH   9  11
ENDBRANCH   4   7
BRANCH   1  19
ATOM     19  O   UNL     1      -9.634  -2.564 125.238  0.00  0.00    +0.000 OA
BRANCH  19  21
ATOM     20  F   UNL     1      -8.504  -4.348 124.516  0.00  0.00    +0.000 F 
ATOM     21  C   UNL     1      -9.164  -3.244 124.081  0.00  0.00    +0.000 C 
ATOM     22  F   UNL     1     -10.206  -3.699 123.345  0.00  0.00    +0.000 F 
ENDBRANCH  19  21
ENDBRANCH   1  19
BRANCH   2  23
ATOM     23  O   UNL     1      -6.916  -2.377 126.456  0.00  0.00    +0.000 OA
BRANCH  23  24
ATOM     24  C   UNL     1      -5.686  -2.289 125.725  0.00  0.00    +0.000 C 
BRANCH  24  25
ATOM     25  C   UNL     1      -5.613  -2.841 124.332  0.00  0.00    +0.000 C 
ATOM     26  C   UNL     1      -4.550  -3.062 123.277  0.00  0.00    +0.000 C 
ATOM     27  C   UNL     1      -4.995  -4.208 124.134  0.00  0.00    +0.000 C 
ENDBRANCH  24  25
ENDBRANCH  23  24
ENDBRANCH   2  23
TORSDOF 7
ENDMDL
MODEL 8
REMARK VINA RESULT:      -6.9      4.226      5.975
REMARK  Name = Roflumilast
REMARK  7 active torsions:
REMARK  status: ('A' for Active; 'I' for Inactive)
REMARK    1  A    between atoms: C_2  and  O_4
REMARK    2  A    between atoms: O_4  and  C_5
REMARK    3  A    between atoms: C_6  and  O_7
REMARK    4  A    between atoms: O_7  and  C_8
REMARK    5  A    between atoms: C_8  and  C_9
REMARK    6  A    between atoms: C_13  and  C_16
REMARK    7  A    between atoms: N_18  and  C_19
REMARK                            x       y       z     vdW  Elec       q    Type
REMARK                         _______ _______ _______ _____ _____    ______ ____
ROOT
ATOM      1  C   UNL     1      -7.121  -1.372 123.998  0.00  0.00    +0.000 A 
ATOM      2  C   UNL     1      -6.499  -1.410 125.266  0.00  0.00    +0.000 A 
ATOM      3  C   UNL     1      -6.084  -0.184 125.833  0.00  0.00    +0.000 A 
ATOM      4  C   UNL     1      -6.169   1.045 125.128  0.00  0.00    +0.000 A 
ATOM      5  C   UNL     1      -6.759   1.045 123.866  0.00  0.00    +0.000 A 
ATOM      6  C   UNL     1      -7.242  -0.149 123.320  0.00  0.00    +0.000 A 
ENDROOT
BRANCH   4   7
ATOM      7  C   UNL     1      -5.580   2.284 125.744  0.00  0.00    +0.000 C 
ATOM      8  O   UNL     1      -5.642   3.330 125.094  0.00  0.00    +0.000 OA
ATOM      9  N   UNL     1      -4.963   2.201 126.996  0.00  0.00    +0.000 N 
ATOM     10  H   UNL     1      -4.594   1.308 127.302  0.00  0.00    +0.000 HD
BRANCH   9  11
ATOM     11  C   UNL     1      -4.434   3.354 127.671  0.00  0.00    +0.000 A 
ATOM     12  C   UNL     1      -3.082   3.730 127.583  0.00  0.00    +0.000 A 
ATOM     13 CL   UNL     1      -1.946   3.016 126.493  0.00  0.00    +0.000 Cl
ATOM     14  C   UNL     1      -2.651   4.853 128.287  0.00  0.00    +0.000 A 
ATOM     15  N   UNL     1      -3.444   5.625 129.065  0.00  0.00    +0.000 NA
ATOM     16  C   UNL     1      -4.748   5.270 129.114  0.00  0.00    +0.000 A 
ATOM     17  C   UNL     1      -5.288   4.184 128.423  0.00  0.00    +0.000 A 
ATOM     18 CL   UNL     1      -6.981   3.885 128.563  0.00  0.00    +0.000 Cl
ENDBRANCH   9  11
ENDBRANCH   4   7
BRANCH   1  19
ATOM     19  O   UNL     1      -7.773  -2.473 123.505  0.00  0.00    +0.000 OA
BRANCH  19  21
ATOM     20  F   UNL     1      -9.892  -3.107 123.206  0.00  0.00    +0.000 F 
ATOM     21  C   UNL     1      -8.969  -2.858 124.171  0.00  0.00    +0.000 C 
ATOM     22  F   UNL     1      -8.790  -4.030 124.825  0.00  0.00    +0.000 F 
ENDBRANCH  19  21
ENDBRANCH   1  19
BRANCH   2  23
ATOM     23  O   UNL     1      -6.198  -2.536 126.040  0.00  0.00    +0.000 OA
BRANCH  23  24
ATOM     24  C   UNL     1      -6.549  -2.423 127.424  0.00  0.00    +0.000 C 
BRANCH  24  25
ATOM     25  C   UNL     1      -7.961  -2.696 127.854  0.00  0.00    +0.000 C 
ATOM     26  C   UNL     1      -8.837  -3.907 128.094  0.00  0.00    +0.000 C 
ATOM     27  C   UNL     1      -8.196  -3.213 129.257  0.00  0.00    +0.000 C 
ENDBRANCH  24  25
ENDBRANCH  23  24
ENDBRANCH   2  23
TORSDOF 7
ENDMDL
MODEL 9
REMARK VINA RESULT:      -6.7      6.226      7.737
REMARK  Name = Roflumilast
REMARK  7 active torsions:
REMARK  status: ('A' for Active; 'I' for Inactive)
REMARK    1  A    between atoms: C_2  and  O_4
REMARK    2  A    between atoms: O_4  and  C_5
REMARK    3  A    between atoms: C_6  and  O_7
REMARK    4  A    between atoms: O_7  and  C_8
REMARK    5  A    between atoms: C_8  and  C_9
REMARK    6  A    between atoms: C_13  and  C_16
REMARK    7  A    between atoms: N_18  and  C_19
REMARK                            x       y       z     vdW  Elec       q    Type
REMARK                         _______ _______ _______ _____ _____    ______ ____
ROOT
ATOM      1  C   UNL     1      -6.375   3.632 121.194  0.00  0.00    +0.000 A 
ATOM      2  C   UNL     1      -7.345   3.303 122.167  0.00  0.00    +0.000 A 
ATOM      3  C   UNL     1      -7.083   3.670 123.507  0.00  0.00    +0.000 A 
ATOM      4  C   UNL     1      -5.847   4.242 123.909  0.00  0.00    +0.000 A 
ATOM      5  C   UNL     1      -4.898   4.525 122.929  0.00  0.00    +0.000 A 
ATOM      6  C   UNL     1      -5.171   4.237 121.588  0.00  0.00    +0.000 A 
ENDROOT
BRANCH   4   7
ATOM      7  C   UNL     1      -5.591   4.476 125.372  0.00  0.00    +0.000 C 
ATOM      8  O   UNL     1      -5.736   5.624 125.801  0.00  0.00    +0.000 OA
ATOM      9  N   UNL     1      -5.172   3.410 126.175  0.00  0.00    +0.000 N 
ATOM     10  H   UNL     1      -4.703   2.624 125.740  0.00  0.00    +0.000 HD
BRANCH   9  11
ATOM     11  C   UNL     1      -4.969   3.546 127.590  0.00  0.00    +0.000 A 
ATOM     12  C   UNL     1      -6.025   3.488 128.517  0.00  0.00    +0.000 A 
ATOM     13 CL   UNL     1      -7.641   3.023 128.117  0.00  0.00    +0.000 Cl
ATOM     14  C   UNL     1      -5.739   3.651 129.872  0.00  0.00    +0.000 A 
ATOM     15  N   UNL     1      -4.502   3.865 130.376  0.00  0.00    +0.000 NA
ATOM     16  C   UNL     1      -3.493   3.885 129.477  0.00  0.00    +0.000 A 
ATOM     17  C   UNL     1      -3.667   3.702 128.104  0.00  0.00    +0.000 A 
ATOM     18 CL   UNL     1      -2.270   3.721 127.092  0.00  0.00    +0.000 Cl
ENDBRANCH   9  11
ENDBRANCH   4   7
BRANCH   1  19
ATOM     19  O   UNL     1      -6.668   3.542 119.856  0.00  0.00    +0.000 OA
BRANCH  19  21
ATOM     20  F   UNL     1      -6.738   4.918 118.100  0.00  0.00    +0.000 F 
ATOM     21  C   UNL     1      -7.356   4.645 119.278  0.00  0.00    +0.000 C 
ATOM     22  F   UNL     1      -8.625   4.296 118.961  0.00  0.00    +0.000 F 
ENDBRANCH  19  21
ENDBRANCH   1  19
BRANCH   2  23
ATOM     23  O   UNL     1      -8.546   2.612 121.981  0.00  0.00    +0.000 OA
BRANCH  23  24
ATOM     24  C   UNL     1      -9.232   2.267 123.191  0.00  0.00    +0.000 C 
BRANCH  24  25
ATOM     25  C   UNL     1      -9.805   0.889 123.350  0.00  0.00    +0.000 C 
ATOM     26  C   UNL     1     -10.100  -0.302 122.464  0.00  0.00    +0.000 C 
ATOM     27  C   UNL     1      -8.858  -0.291 123.303  0.00  0.00    +0.000 C 
ENDBRANCH  24  25
ENDBRANCH  23  24
ENDBRANCH   2  23
TORSDOF 7
ENDMDL
