MODEL 1
REMARK VINA RESULT:      -8.1      0.000      0.000
REMARK  Name = Rolapitant
REMARK  8 active torsions:
REMARK  status: ('A' for Active; 'I' for Inactive)
REMARK    1  A    between atoms: C_1  and  C_2
REMARK    2  A    between atoms: C_2  and  O_3
REMARK    3  A    between atoms: C_2  and  C_22
REMARK    4  A    between atoms: O_3  and  C_4
REMARK    5  A    between atoms: C_4  and  C_5
REMARK    6  A    between atoms: C_5  and  C_16
REMARK    7  A    between atoms: C_24  and  C_32
REMARK    8  A    between atoms: C_26  and  C_28
REMARK                            x       y       z     vdW  Elec       q    Type
REMARK                         _______ _______ _______ _____ _____    ______ ____
ROOT
ATOM      1  C   UNL     1      -9.453   5.418 130.181  0.00  0.00    +0.000 C 
ATOM      2  C   UNL     1     -10.906   4.989 130.532  0.00  0.00    +0.000 C 
ATOM      3  C   UNL     1     -11.788   6.226 130.854  0.00  0.00    +0.000 C 
ATOM      4  C   UNL     1     -11.713   7.270 129.738  0.00  0.00    +0.000 C 
ATOM      5  C   UNL     1     -12.432   6.722 128.498  0.00  0.00    +0.000 C 
ATOM      6  C   UNL     1     -13.307   7.856 127.997  0.00  0.00    +0.000 C 
ATOM      7  C   UNL     1     -13.095   8.970 128.977  0.00  0.00    +0.000 C 
ATOM      8  O   UNL     1     -13.476  10.127 128.855  0.00  0.00    +0.000 OA
ATOM      9  N   UNL     1     -12.444   8.462 130.075  0.00  0.00    +0.000 N 
ATOM     10  C   UNL     1     -10.246   7.616 129.396  0.00  0.00    +0.000 C 
ATOM     11  N   UNL     1      -9.519   6.406 129.083  0.00  0.00    +0.000 NA
ATOM     12  H   UNL     1     -12.229   9.071 130.857  0.00  0.00    +0.000 HD
ATOM     13  H   UNL     1      -8.596   6.631 128.722  0.00  0.00    +0.000 HD
ENDROOT
BRANCH   1  14
ATOM     14  C   UNL     1      -8.460   4.353 129.692  0.00  0.00    +0.000 A 
ATOM     15  C   UNL     1      -7.099   4.594 129.515  0.00  0.00    +0.000 A 
ATOM     16  C   UNL     1      -6.296   3.625 128.907  0.00  0.00    +0.000 A 
ATOM     17  C   UNL     1      -6.815   2.371 128.572  0.00  0.00    +0.000 A 
ATOM     18  C   UNL     1      -8.155   2.092 128.788  0.00  0.00    +0.000 A 
ATOM     19  C   UNL     1      -8.970   3.081 129.319  0.00  0.00    +0.000 A 
ENDBRANCH   1  14
BRANCH   1  20
ATOM     20  C   UNL     1      -8.896   5.944 131.537  0.00  0.00    +0.000 C 
BRANCH  20  21
ATOM     21  O   UNL     1      -9.100   4.977 132.570  0.00  0.00    +0.000 OA
BRANCH  21  23
ATOM     22  C   UNL     1      -6.866   5.794 133.032  0.00  0.00    +0.000 C 
ATOM     23  C   UNL     1      -7.943   4.753 133.363  0.00  0.00    +0.000 C 
BRANCH  23  24
ATOM     24  C   UNL     1      -7.382   3.379 133.059  0.00  0.00    +0.000 A 
ATOM     25  C   UNL     1      -6.008   3.253 132.815  0.00  0.00    +0.000 A 
ATOM     26  C   UNL     1      -5.508   2.119 132.169  0.00  0.00    +0.000 A 
ATOM     27  C   UNL     1      -6.356   1.029 131.943  0.00  0.00    +0.000 A 
ATOM     28  C   UNL     1      -7.719   1.105 132.254  0.00  0.00    +0.000 A 
ATOM     29  C   UNL     1      -8.222   2.285 132.809  0.00  0.00    +0.000 A 
BRANCH  28  30
ATOM     30  C   UNL     1      -8.638  -0.024 131.877  0.00  0.00    +0.000 C 
ATOM     31  F   UNL     1      -8.548  -1.065 132.754  0.00  0.00    +0.000 F 
ATOM     32  F   UNL     1      -9.945   0.352 131.877  0.00  0.00    +0.000 F 
ATOM     33  F   UNL     1      -8.394  -0.550 130.647  0.00  0.00    +0.000 F 
ENDBRANCH  28  30
BRANCH  26  34
ATOM     34  C   UNL     1      -4.129   2.153 131.564  0.00  0.00    +0.000 C 
ATOM     35  F   UNL     1      -3.182   1.753 132.460  0.00  0.00    +0.000 F 
ATOM     36  F   UNL     1      -3.999   1.339 130.486  0.00  0.00    +0.000 F 
ATOM     37  F   UNL     1      -3.751   3.397 131.160  0.00  0.00    +0.000 F 
ENDBRANCH  26  34
ENDBRANCH  23  24
ENDBRANCH  21  23
ENDBRANCH  20  21
ENDBRANCH   1  20
TORSDOF 7
ENDMDL
MODEL 2
REMARK VINA RESULT:      -8.0      4.559      6.694
REMARK  Name = Rolapitant
REMARK  8 active torsions:
REMARK  status: ('A' for Active; 'I' for Inactive)
REMARK    1  A    between atoms: C_1  and  C_2
REMARK    2  A    between atoms: C_2  and  O_3
REMARK    3  A    between atoms: C_2  and  C_22
REMARK    4  A    between atoms: O_3  and  C_4
REMARK    5  A    between atoms: C_4  and  C_5
REMARK    6  A    between atoms: C_5  and  C_16
REMARK    7  A    between atoms: C_24  and  C_32
REMARK    8  A    between atoms: C_26  and  C_28
REMARK                            x       y       z     vdW  Elec       q    Type
REMARK                         _______ _______ _______ _____ _____    ______ ____
ROOT
ATOM      1  C   UNL     1      -8.030   2.348 127.773  0.00  0.00    +0.000 C 
ATOM      2  C   UNL     1      -8.543   1.606 129.040  0.00  0.00    +0.000 C 
ATOM      3  C   UNL     1      -8.132   2.362 130.332  0.00  0.00    +0.000 C 
ATOM      4  C   UNL     1      -8.552   3.833 130.275  0.00  0.00    +0.000 C 
ATOM      5  C   UNL     1     -10.081   3.914 130.371  0.00  0.00    +0.000 C 
ATOM      6  C   UNL     1     -10.371   5.012 131.378  0.00  0.00    +0.000 C 
ATOM      7  C   UNL     1      -9.023   5.472 131.846  0.00  0.00    +0.000 C 
ATOM      8  O   UNL     1      -8.790   6.461 132.531  0.00  0.00    +0.000 OA
ATOM      9  N   UNL     1      -8.084   4.564 131.422  0.00  0.00    +0.000 N 
ATOM     10  C   UNL     1      -8.061   4.503 128.971  0.00  0.00    +0.000 C 
ATOM     11  N   UNL     1      -8.519   3.743 127.830  0.00  0.00    +0.000 NA
ATOM     12  H   UNL     1      -7.108   4.702 131.661  0.00  0.00    +0.000 HD
ATOM     13  H   UNL     1      -8.325   4.246 126.969  0.00  0.00    +0.000 HD
ENDROOT
BRANCH   1  14
ATOM     14  C   UNL     1      -8.456   1.838 126.388  0.00  0.00    +0.000 A 
ATOM     15  C   UNL     1      -9.267   0.722 126.196  0.00  0.00    +0.000 A 
ATOM     16  C   UNL     1      -9.467   0.223 124.906  0.00  0.00    +0.000 A 
ATOM     17  C   UNL     1      -8.955   0.893 123.791  0.00  0.00    +0.000 A 
ATOM     18  C   UNL     1      -8.188   2.035 123.957  0.00  0.00    +0.000 A 
ATOM     19  C   UNL     1      -7.923   2.485 125.242  0.00  0.00    +0.000 A 
ENDBRANCH   1  14
BRANCH   1  20
ATOM     20  C   UNL     1      -6.485   2.165 127.850  0.00  0.00    +0.000 C 
BRANCH  20  21
ATOM     21  O   UNL     1      -6.158   0.814 128.181  0.00  0.00    +0.000 OA
BRANCH  21  23
ATOM     22  C   UNL     1      -4.798   1.253 126.224  0.00  0.00    +0.000 C 
ATOM     23  C   UNL     1      -5.219   0.231 127.288  0.00  0.00    +0.000 C 
BRANCH  23  24
ATOM     24  C   UNL     1      -5.859  -0.947 126.583  0.00  0.00    +0.000 A 
ATOM     25  C   UNL     1      -5.641  -1.108 125.208  0.00  0.00    +0.000 A 
ATOM     26  C   UNL     1      -6.488  -1.922 124.450  0.00  0.00    +0.000 A 
ATOM     27  C   UNL     1      -7.430  -2.726 125.101  0.00  0.00    +0.000 A 
ATOM     28  C   UNL     1      -7.610  -2.638 126.488  0.00  0.00    +0.000 A 
ATOM     29  C   UNL     1      -6.821  -1.745 127.218  0.00  0.00    +0.000 A 
BRANCH  28  30
ATOM     30  C   UNL     1      -8.721  -3.408 127.149  0.00  0.00    +0.000 C 
ATOM     31  F   UNL     1      -8.917  -3.006 128.437  0.00  0.00    +0.000 F 
ATOM     32  F   UNL     1      -9.913  -3.237 126.518  0.00  0.00    +0.000 F 
ATOM     33  F   UNL     1      -8.507  -4.750 127.204  0.00  0.00    +0.000 F 
ENDBRANCH  28  30
BRANCH  26  34
ATOM     34  C   UNL     1      -6.503  -1.790 122.950  0.00  0.00    +0.000 C 
ATOM     35  F   UNL     1      -6.351  -0.491 122.563  0.00  0.00    +0.000 F 
ATOM     36  F   UNL     1      -5.508  -2.485 122.343  0.00  0.00    +0.000 F 
ATOM     37  F   UNL     1      -7.669  -2.208 122.385  0.00  0.00    +0.000 F 
ENDBRANCH  26  34
ENDBRANCH  23  24
ENDBRANCH  21  23
ENDBRANCH  20  21
ENDBRANCH   1  20
TORSDOF 7
ENDMDL
MODEL 3
REMARK VINA RESULT:      -7.9      1.947      2.916
REMARK  Name = Rolapitant
REMARK  8 active torsions:
REMARK  status: ('A' for Active; 'I' for Inactive)
REMARK    1  A    between atoms: C_1  and  C_2
REMARK    2  A    between atoms: C_2  and  O_3
REMARK    3  A    between atoms: C_2  and  C_22
REMARK    4  A    between atoms: O_3  and  C_4
REMARK    5  A    between atoms: C_4  and  C_5
REMARK    6  A    between atoms: C_5  and  C_16
REMARK    7  A    between atoms: C_24  and  C_32
REMARK    8  A    between atoms: C_26  and  C_28
REMARK                            x       y       z     vdW  Elec       q    Type
REMARK                         _______ _______ _______ _____ _____    ______ ____
ROOT
ATOM      1  C   UNL     1      -9.221   5.306 129.624  0.00  0.00    +0.000 C 
ATOM      2  C   UNL     1     -10.475   5.054 130.510  0.00  0.00    +0.000 C 
ATOM      3  C   UNL     1     -11.213   6.384 130.819  0.00  0.00    +0.000 C 
ATOM      4  C   UNL     1     -11.518   7.164 129.538  0.00  0.00    +0.000 C 
ATOM      5  C   UNL     1     -12.599   6.415 128.748  0.00  0.00    +0.000 C 
ATOM      6  C   UNL     1     -13.601   7.471 128.320  0.00  0.00    +0.000 C 
ATOM      7  C   UNL     1     -13.089   8.750 128.911  0.00  0.00    +0.000 C 
ATOM      8  O   UNL     1     -13.499   9.879 128.668  0.00  0.00    +0.000 OA
ATOM      9  N   UNL     1     -12.108   8.444 129.823  0.00  0.00    +0.000 N 
ATOM     10  C   UNL     1     -10.247   7.337 128.675  0.00  0.00    +0.000 C 
ATOM     11  N   UNL     1      -9.653   6.044 128.417  0.00  0.00    +0.000 NA
ATOM     12  H   UNL     1     -11.654   9.189 130.341  0.00  0.00    +0.000 HD
ATOM     13  H   UNL     1      -8.902   6.129 127.738  0.00  0.00    +0.000 HD
ENDROOT
BRANCH   1  14
ATOM     14  C   UNL     1      -8.434   4.101 129.087  0.00  0.00    +0.000 A 
ATOM     15  C   UNL     1      -7.415   4.207 128.143  0.00  0.00    +0.000 A 
ATOM     16  C   UNL     1      -6.866   3.051 127.582  0.00  0.00    +0.000 A 
ATOM     17  C   UNL     1      -7.247   1.785 128.033  0.00  0.00    +0.000 A 
ATOM     18  C   UNL     1      -8.223   1.658 129.009  0.00  0.00    +0.000 A 
ATOM     19  C   UNL     1      -8.824   2.803 129.510  0.00  0.00    +0.000 A 
ENDBRANCH   1  14
BRANCH   1  20
ATOM     20  C   UNL     1      -8.254   6.068 130.578  0.00  0.00    +0.000 C 
BRANCH  20  21
ATOM     21  O   UNL     1      -7.498   5.145 131.365  0.00  0.00    +0.000 OA
BRANCH  21  23
ATOM     22  C   UNL     1      -5.958   6.986 131.033  0.00  0.00    +0.000 C 
ATOM     23  C   UNL     1      -6.183   5.601 131.652  0.00  0.00    +0.000 C 
BRANCH  23  24
ATOM     24  C   UNL     1      -5.176   4.644 131.048  0.00  0.00    +0.000 A 
ATOM     25  C   UNL     1      -4.259   5.137 130.110  0.00  0.00    +0.000 A 
ATOM     26  C   UNL     1      -3.583   4.260 129.257  0.00  0.00    +0.000 A 
ATOM     27  C   UNL     1      -3.679   2.881 129.474  0.00  0.00    +0.000 A 
ATOM     28  C   UNL     1      -4.531   2.369 130.461  0.00  0.00    +0.000 A 
ATOM     29  C   UNL     1      -5.276   3.259 131.240  0.00  0.00    +0.000 A 
BRANCH  28  30
ATOM     30  C   UNL     1      -4.725   0.883 130.586  0.00  0.00    +0.000 C 
ATOM     31  F   UNL     1      -3.812   0.322 131.428  0.00  0.00    +0.000 F 
ATOM     32  F   UNL     1      -5.946   0.563 131.092  0.00  0.00    +0.000 F 
ATOM     33  F   UNL     1      -4.612   0.209 129.410  0.00  0.00    +0.000 F 
ENDBRANCH  28  30
BRANCH  26  34
ATOM     34  C   UNL     1      -2.916   4.793 128.016  0.00  0.00    +0.000 C 
ATOM     35  F   UNL     1      -3.831   5.130 127.064  0.00  0.00    +0.000 F 
ATOM     36  F   UNL     1      -2.178   5.909 128.244  0.00  0.00    +0.000 F 
ATOM     37  F   UNL     1      -2.084   3.892 127.424  0.00  0.00    +0.000 F 
ENDBRANCH  26  34
ENDBRANCH  23  24
ENDBRANCH  21  23
ENDBRANCH  20  21
ENDBRANCH   1  20
TORSDOF 7
ENDMDL
MODEL 4
REMARK VINA RESULT:      -7.7      4.021      6.112
REMARK  Name = Rolapitant
REMARK  8 active torsions:
REMARK  status: ('A' for Active; 'I' for Inactive)
REMARK    1  A    between atoms: C_1  and  C_2
REMARK    2  A    between atoms: C_2  and  O_3
REMARK    3  A    between atoms: C_2  and  C_22
REMARK    4  A    between atoms: O_3  and  C_4
REMARK    5  A    between atoms: C_4  and  C_5
REMARK    6  A    between atoms: C_5  and  C_16
REMARK    7  A    between atoms: C_24  and  C_32
REMARK    8  A    between atoms: C_26  and  C_28
REMARK                            x       y       z     vdW  Elec       q    Type
REMARK                         _______ _______ _______ _____ _____    ______ ____
ROOT
ATOM      1  C   UNL     1      -7.434   3.264 128.514  0.00  0.00    +0.000 C 
ATOM      2  C   UNL     1      -8.107   4.394 127.685  0.00  0.00    +0.000 C 
ATOM      3  C   UNL     1      -7.387   4.589 126.324  0.00  0.00    +0.000 C 
ATOM      4  C   UNL     1      -7.261   3.266 125.564  0.00  0.00    +0.000 C 
ATOM      5  C   UNL     1      -8.656   2.835 125.090  0.00  0.00    +0.000 C 
ATOM      6  C   UNL     1      -8.484   2.414 123.642  0.00  0.00    +0.000 C 
ATOM      7  C   UNL     1      -7.038   2.662 123.337  0.00  0.00    +0.000 C 
ATOM      8  O   UNL     1      -6.433   2.299 122.335  0.00  0.00    +0.000 OA
ATOM      9  N   UNL     1      -6.504   3.420 124.351  0.00  0.00    +0.000 N 
ATOM     10  C   UNL     1      -6.636   2.169 126.455  0.00  0.00    +0.000 C 
ATOM     11  N   UNL     1      -7.394   2.044 127.680  0.00  0.00    +0.000 NA
ATOM     12  H   UNL     1      -5.531   3.703 124.308  0.00  0.00    +0.000 HD
ATOM     13  H   UNL     1      -7.081   1.235 128.209  0.00  0.00    +0.000 HD
ENDROOT
BRANCH   1  14
ATOM     14  C   UNL     1      -8.086   2.818 129.832  0.00  0.00    +0.000 A 
ATOM     15  C   UNL     1      -7.408   2.116 130.826  0.00  0.00    +0.000 A 
ATOM     16  C   UNL     1      -8.114   1.600 131.916  0.00  0.00    +0.000 A 
ATOM     17  C   UNL     1      -9.475   1.871 132.082  0.00  0.00    +0.000 A 
ATOM     18  C   UNL     1     -10.158   2.612 131.130  0.00  0.00    +0.000 A 
ATOM     19  C   UNL     1      -9.474   3.058 130.008  0.00  0.00    +0.000 A 
ENDBRANCH   1  14
BRANCH   1  20
ATOM     20  C   UNL     1      -6.052   3.872 128.896  0.00  0.00    +0.000 C 
BRANCH  20  21
ATOM     21  O   UNL     1      -6.161   5.286 129.075  0.00  0.00    +0.000 OA
BRANCH  21  23
ATOM     22  C   UNL     1      -4.906   4.637 131.043  0.00  0.00    +0.000 C 
ATOM     23  C   UNL     1      -5.755   5.720 130.366  0.00  0.00    +0.000 C 
BRANCH  23  24
ATOM     24  C   UNL     1      -6.980   5.965 131.223  0.00  0.00    +0.000 A 
ATOM     25  C   UNL     1      -6.982   5.494 132.542  0.00  0.00    +0.000 A 
ATOM     26  C   UNL     1      -8.186   5.350 133.238  0.00  0.00    +0.000 A 
ATOM     27  C   UNL     1      -9.365   5.859 132.681  0.00  0.00    +0.000 A 
ATOM     28  C   UNL     1      -9.370   6.406 131.392  0.00  0.00    +0.000 A 
ATOM     29  C   UNL     1      -8.173   6.452 130.671  0.00  0.00    +0.000 A 
BRANCH  28  30
ATOM     30  C   UNL     1     -10.670   6.820 130.759  0.00  0.00    +0.000 C 
ATOM     31  F   UNL     1     -11.184   5.836 129.967  0.00  0.00    +0.000 F 
ATOM     32  F   UNL     1     -11.628   7.096 131.683  0.00  0.00    +0.000 F 
ATOM     33  F   UNL     1     -10.573   7.923 129.969  0.00  0.00    +0.000 F 
ENDBRANCH  28  30
BRANCH  26  34
ATOM     34  C   UNL     1      -8.233   4.496 134.477  0.00  0.00    +0.000 C 
ATOM     35  F   UNL     1      -7.247   3.554 134.472  0.00  0.00    +0.000 F 
ATOM     36  F   UNL     1      -8.071   5.206 135.622  0.00  0.00    +0.000 F 
ATOM     37  F   UNL     1      -9.399   3.806 134.611  0.00  0.00    +0.000 F 
ENDBRANCH  26  34
ENDBRANCH  23  24
ENDBRANCH  21  23
ENDBRANCH  20  21
ENDBRANCH   1  20
TORSDOF 7
ENDMDL
MODEL 5
REMARK VINA RESULT:      -7.7      2.008      3.818
REMARK  Name = Rolapitant
REMARK  8 active torsions:
REMARK  status: ('A' for Active; 'I' for Inactive)
REMARK    1  A    between atoms: C_1  and  C_2
REMARK    2  A    between atoms: C_2  and  O_3
REMARK    3  A    between atoms: C_2  and  C_22
REMARK    4  A    between atoms: O_3  and  C_4
REMARK    5  A    between atoms: C_4  and  C_5
REMARK    6  A    between atoms: C_5  and  C_16
REMARK    7  A    between atoms: C_24  and  C_32
REMARK    8  A    between atoms: C_26  and  C_28
REMARK                            x       y       z     vdW  Elec       q    Type
REMARK                         _______ _______ _______ _____ _____    ______ ____
ROOT
ATOM      1  C   UNL     1      -9.456   5.130 129.726  0.00  0.00    +0.000 C 
ATOM      2  C   UNL     1     -10.803   4.882 130.462  0.00  0.00    +0.000 C 
ATOM      3  C   UNL     1     -11.492   6.225 130.826  0.00  0.00    +0.000 C 
ATOM      4  C   UNL     1     -11.624   7.135 129.602  0.00  0.00    +0.000 C 
ATOM      5  C   UNL     1     -12.662   6.531 128.647  0.00  0.00    +0.000 C 
ATOM      6  C   UNL     1     -13.555   7.685 128.229  0.00  0.00    +0.000 C 
ATOM      7  C   UNL     1     -13.032   8.870 128.985  0.00  0.00    +0.000 C 
ATOM      8  O   UNL     1     -13.352  10.040 128.812  0.00  0.00    +0.000 OA
ATOM      9  N   UNL     1     -12.166   8.420 129.951  0.00  0.00    +0.000 N 
ATOM     10  C   UNL     1     -10.266   7.300 128.882  0.00  0.00    +0.000 C 
ATOM     11  N   UNL     1      -9.723   5.999 128.560  0.00  0.00    +0.000 NA
ATOM     12  H   UNL     1     -11.724   9.084 130.577  0.00  0.00    +0.000 HD
ATOM     13  H   UNL     1      -8.905   6.094 127.965  0.00  0.00    +0.000 HD
ENDROOT
BRANCH   1  14
ATOM     14  C   UNL     1      -8.689   3.928 129.153  0.00  0.00    +0.000 A 
ATOM     15  C   UNL     1      -7.963   3.975 127.964  0.00  0.00    +0.000 A 
ATOM     16  C   UNL     1      -7.437   2.798 127.426  0.00  0.00    +0.000 A 
ATOM     17  C   UNL     1      -7.533   1.588 128.118  0.00  0.00    +0.000 A 
ATOM     18  C   UNL     1      -8.207   1.529 129.328  0.00  0.00    +0.000 A 
ATOM     19  C   UNL     1      -8.797   2.681 129.824  0.00  0.00    +0.000 A 
ENDBRANCH   1  14
BRANCH   1  20
ATOM     20  C   UNL     1      -8.547   5.739 130.834  0.00  0.00    +0.000 C 
BRANCH  20  21
ATOM     21  O   UNL     1      -7.354   6.279 130.261  0.00  0.00    +0.000 OA
BRANCH  21  23
ATOM     22  C   UNL     1      -5.213   7.103 131.041  0.00  0.00    +0.000 C 
ATOM     23  C   UNL     1      -6.178   5.913 130.968  0.00  0.00    +0.000 C 
BRANCH  23  24
ATOM     24  C   UNL     1      -5.482   4.784 130.236  0.00  0.00    +0.000 A 
ATOM     25  C   UNL     1      -5.490   3.505 130.809  0.00  0.00    +0.000 A 
ATOM     26  C   UNL     1      -4.568   2.540 130.393  0.00  0.00    +0.000 A 
ATOM     27  C   UNL     1      -3.769   2.793 129.273  0.00  0.00    +0.000 A 
ATOM     28  C   UNL     1      -3.803   4.040 128.636  0.00  0.00    +0.000 A 
ATOM     29  C   UNL     1      -4.661   5.028 129.126  0.00  0.00    +0.000 A 
BRANCH  28  30
ATOM     30  C   UNL     1      -2.838   4.338 127.521  0.00  0.00    +0.000 C 
ATOM     31  F   UNL     1      -1.836   3.416 127.458  0.00  0.00    +0.000 F 
ATOM     32  F   UNL     1      -3.439   4.320 126.301  0.00  0.00    +0.000 F 
ATOM     33  F   UNL     1      -2.227   5.548 127.627  0.00  0.00    +0.000 F 
ENDBRANCH  28  30
BRANCH  26  34
ATOM     34  C   UNL     1      -4.316   1.330 131.254  0.00  0.00    +0.000 C 
ATOM     35  F   UNL     1      -3.854   0.281 130.516  0.00  0.00    +0.000 F 
ATOM     36  F   UNL     1      -3.392   1.548 132.223  0.00  0.00    +0.000 F 
ATOM     37  F   UNL     1      -5.436   0.874 131.881  0.00  0.00    +0.000 F 
ENDBRANCH  26  34
ENDBRANCH  23  24
ENDBRANCH  21  23
ENDBRANCH  20  21
ENDBRANCH   1  20
TORSDOF 7
ENDMDL
MODEL 6
REMARK VINA RESULT:      -7.7      6.416      8.783
REMARK  Name = Rolapitant
REMARK  8 active torsions:
REMARK  status: ('A' for Active; 'I' for Inactive)
REMARK    1  A    between atoms: C_1  and  C_2
REMARK    2  A    between atoms: C_2  and  O_3
REMARK    3  A    between atoms: C_2  and  C_22
REMARK    4  A    between atoms: O_3  and  C_4
REMARK    5  A    between atoms: C_4  and  C_5
REMARK    6  A    between atoms: C_5  and  C_16
REMARK    7  A    between atoms: C_24  and  C_32
REMARK    8  A    between atoms: C_26  and  C_28
REMARK                            x       y       z     vdW  Elec       q    Type
REMARK                         _______ _______ _______ _____ _____    ______ ____
ROOT
ATOM      1  C   UNL     1      -5.658  -0.505 128.218  0.00  0.00    +0.000 C 
ATOM      2  C   UNL     1      -5.297  -0.498 126.705  0.00  0.00    +0.000 C 
ATOM      3  C   UNL     1      -5.933   0.723 125.988  0.00  0.00    +0.000 C 
ATOM      4  C   UNL     1      -5.591   2.032 126.704  0.00  0.00    +0.000 C 
ATOM      5  C   UNL     1      -4.098   2.329 126.504  0.00  0.00    +0.000 C 
ATOM      6  C   UNL     1      -4.020   3.797 126.126  0.00  0.00    +0.000 C 
ATOM      7  C   UNL     1      -5.445   4.260 126.080  0.00  0.00    +0.000 C 
ATOM      8  O   UNL     1      -5.829   5.419 125.985  0.00  0.00    +0.000 OA
ATOM      9  N   UNL     1      -6.261   3.156 126.107  0.00  0.00    +0.000 N 
ATOM     10  C   UNL     1      -5.921   1.946 128.211  0.00  0.00    +0.000 C 
ATOM     11  N   UNL     1      -5.260   0.798 128.791  0.00  0.00    +0.000 NA
ATOM     12  H   UNL     1      -7.267   3.274 126.065  0.00  0.00    +0.000 HD
ATOM     13  H   UNL     1      -5.353   0.809 129.803  0.00  0.00    +0.000 HD
ENDROOT
BRANCH   1  14
ATOM     14  C   UNL     1      -5.007  -1.553 129.133  0.00  0.00    +0.000 A 
ATOM     15  C   UNL     1      -4.917  -1.416 130.517  0.00  0.00    +0.000 A 
ATOM     16  C   UNL     1      -4.161  -2.329 131.257  0.00  0.00    +0.000 A 
ATOM     17  C   UNL     1      -3.583  -3.444 130.645  0.00  0.00    +0.000 A 
ATOM     18  C   UNL     1      -3.704  -3.627 129.276  0.00  0.00    +0.000 A 
ATOM     19  C   UNL     1      -4.387  -2.679 128.529  0.00  0.00    +0.000 A 
ENDBRANCH   1  14
BRANCH   1  20
ATOM     20  C   UNL     1      -7.185  -0.812 128.221  0.00  0.00    +0.000 C 
BRANCH  20  21
ATOM     21  O   UNL     1      -7.412  -2.218 128.096  0.00  0.00    +0.000 OA
BRANCH  21  23
ATOM     22  C   UNL     1      -8.964  -4.010 127.595  0.00  0.00    +0.000 C 
ATOM     23  C   UNL     1      -8.611  -2.530 127.400  0.00  0.00    +0.000 C 
BRANCH  23  24
ATOM     24  C   UNL     1      -8.413  -2.283 125.919  0.00  0.00    +0.000 A 
ATOM     25  C   UNL     1      -7.360  -2.935 125.264  0.00  0.00    +0.000 A 
ATOM     26  C   UNL     1      -6.900  -2.467 124.029  0.00  0.00    +0.000 A 
ATOM     27  C   UNL     1      -7.619  -1.469 123.363  0.00  0.00    +0.000 A 
ATOM     28  C   UNL     1      -8.724  -0.857 123.968  0.00  0.00    +0.000 A 
ATOM     29  C   UNL     1      -9.111  -1.270 125.246  0.00  0.00    +0.000 A 
BRANCH  28  30
ATOM     30  C   UNL     1      -9.398   0.307 123.295  0.00  0.00    +0.000 C 
ATOM     31  F   UNL     1     -10.245   0.960 124.141  0.00  0.00    +0.000 F 
ATOM     32  F   UNL     1      -8.507   1.239 122.864  0.00  0.00    +0.000 F 
ATOM     33  F   UNL     1     -10.144  -0.037 122.211  0.00  0.00    +0.000 F 
ENDBRANCH  28  30
BRANCH  26  34
ATOM     34  C   UNL     1      -5.551  -2.905 123.523  0.00  0.00    +0.000 C 
ATOM     35  F   UNL     1      -5.404  -2.631 122.195  0.00  0.00    +0.000 F 
ATOM     36  F   UNL     1      -4.518  -2.291 124.153  0.00  0.00    +0.000 F 
ATOM     37  F   UNL     1      -5.340  -4.245 123.646  0.00  0.00    +0.000 F 
ENDBRANCH  26  34
ENDBRANCH  23  24
ENDBRANCH  21  23
ENDBRANCH  20  21
ENDBRANCH   1  20
TORSDOF 7
ENDMDL
MODEL 7
REMARK VINA RESULT:      -7.6      6.982      9.908
REMARK  Name = Rolapitant
REMARK  8 active torsions:
REMARK  status: ('A' for Active; 'I' for Inactive)
REMARK    1  A    between atoms: C_1  and  C_2
REMARK    2  A    between atoms: C_2  and  O_3
REMARK    3  A    between atoms: C_2  and  C_22
REMARK    4  A    between atoms: O_3  and  C_4
REMARK    5  A    between atoms: C_4  and  C_5
REMARK    6  A    between atoms: C_5  and  C_16
REMARK    7  A    between atoms: C_24  and  C_32
REMARK    8  A    between atoms: C_26  and  C_28
REMARK                            x       y       z     vdW  Elec       q    Type
REMARK                         _______ _______ _______ _____ _____    ______ ____
ROOT
ATOM      1  C   UNL     1      -6.811  -1.980 128.638  0.00  0.00    +0.000 C 
ATOM      2  C   UNL     1      -5.447  -2.713 128.490  0.00  0.00    +0.000 C 
ATOM      3  C   UNL     1      -4.608  -2.594 129.790  0.00  0.00    +0.000 C 
ATOM      4  C   UNL     1      -5.411  -3.040 131.015  0.00  0.00    +0.000 C 
ATOM      5  C   UNL     1      -5.616  -4.559 130.945  0.00  0.00    +0.000 C 
ATOM      6  C   UNL     1      -5.297  -5.080 132.335  0.00  0.00    +0.000 C 
ATOM      7  C   UNL     1      -4.885  -3.869 133.116  0.00  0.00    +0.000 C 
ATOM      8  O   UNL     1      -4.711  -3.810 134.327  0.00  0.00    +0.000 OA
ATOM      9  N   UNL     1      -4.677  -2.836 132.235  0.00  0.00    +0.000 N 
ATOM     10  C   UNL     1      -6.776  -2.319 131.080  0.00  0.00    +0.000 C 
ATOM     11  N   UNL     1      -7.491  -2.514 129.838  0.00  0.00    +0.000 NA
ATOM     12  H   UNL     1      -4.373  -1.933 132.583  0.00  0.00    +0.000 HD
ATOM     13  H   UNL     1      -8.442  -2.166 129.918  0.00  0.00    +0.000 HD
ENDROOT
BRANCH   1  14
ATOM     14  C   UNL     1      -7.847  -2.102 127.511  0.00  0.00    +0.000 A 
ATOM     15  C   UNL     1      -8.138  -3.299 126.860  0.00  0.00    +0.000 A 
ATOM     16  C   UNL     1      -8.966  -3.293 125.735  0.00  0.00    +0.000 A 
ATOM     17  C   UNL     1      -9.598  -2.120 125.316  0.00  0.00    +0.000 A 
ATOM     18  C   UNL     1      -9.363  -0.927 125.981  0.00  0.00    +0.000 A 
ATOM     19  C   UNL     1      -8.479  -0.917 127.050  0.00  0.00    +0.000 A 
ENDBRANCH   1  14
BRANCH   1  20
ATOM     20  C   UNL     1      -6.406  -0.477 128.698  0.00  0.00    +0.000 C 
BRANCH  20  21
ATOM     21  O   UNL     1      -5.206  -0.253 127.954  0.00  0.00    +0.000 OA
BRANCH  21  23
ATOM     22  C   UNL     1      -6.275   1.912 127.745  0.00  0.00    +0.000 C 
ATOM     23  C   UNL     1      -5.248   0.930 127.168  0.00  0.00    +0.000 C 
BRANCH  23  24
ATOM     24  C   UNL     1      -5.671   0.580 125.756  0.00  0.00    +0.000 A 
ATOM     25  C   UNL     1      -6.427   1.510 125.031  0.00  0.00    +0.000 A 
ATOM     26  C   UNL     1      -7.154   1.105 123.907  0.00  0.00    +0.000 A 
ATOM     27  C   UNL     1      -6.968  -0.185 123.398  0.00  0.00    +0.000 A 
ATOM     28  C   UNL     1      -6.152  -1.107 124.065  0.00  0.00    +0.000 A 
ATOM     29  C   UNL     1      -5.510  -0.715 125.244  0.00  0.00    +0.000 A 
BRANCH  28  30
ATOM     30  C   UNL     1      -6.075  -2.528 123.579  0.00  0.00    +0.000 C 
ATOM     31  F   UNL     1      -7.255  -2.944 123.038  0.00  0.00    +0.000 F 
ATOM     32  F   UNL     1      -5.140  -2.690 122.605  0.00  0.00    +0.000 F 
ATOM     33  F   UNL     1      -5.772  -3.430 124.551  0.00  0.00    +0.000 F 
ENDBRANCH  28  30
BRANCH  26  34
ATOM     34  C   UNL     1      -8.252   1.987 123.372  0.00  0.00    +0.000 C 
ATOM     35  F   UNL     1      -9.281   1.249 122.864  0.00  0.00    +0.000 F 
ATOM     36  F   UNL     1      -8.795   2.795 124.317  0.00  0.00    +0.000 F 
ATOM     37  F   UNL     1      -7.845   2.796 122.356  0.00  0.00    +0.000 F 
ENDBRANCH  26  34
ENDBRANCH  23  24
ENDBRANCH  21  23
ENDBRANCH  20  21
ENDBRANCH   1  20
TORSDOF 7
ENDMDL
MODEL 8
REMARK VINA RESULT:      -7.6      6.003      8.771
REMARK  Name = Rolapitant
REMARK  8 active torsions:
REMARK  status: ('A' for Active; 'I' for Inactive)
REMARK    1  A    between atoms: C_1  and  C_2
REMARK    2  A    between atoms: C_2  and  O_3
REMARK    3  A    between atoms: C_2  and  C_22
REMARK    4  A    between atoms: O_3  and  C_4
REMARK    5  A    between atoms: C_4  and  C_5
REMARK    6  A    between atoms: C_5  and  C_16
REMARK    7  A    between atoms: C_24  and  C_32
REMARK    8  A    between atoms: C_26  and  C_28
REMARK                            x       y       z     vdW  Elec       q    Type
REMARK                         _______ _______ _______ _____ _____    ______ ____
ROOT
ATOM      1  C   UNL     1      -7.314   3.083 123.815  0.00  0.00    +0.000 C 
ATOM      2  C   UNL     1      -7.323   4.253 124.840  0.00  0.00    +0.000 C 
ATOM      3  C   UNL     1      -7.265   3.716 126.295  0.00  0.00    +0.000 C 
ATOM      4  C   UNL     1      -6.097   2.746 126.486  0.00  0.00    +0.000 C 
ATOM      5  C   UNL     1      -4.783   3.536 126.421  0.00  0.00    +0.000 C 
ATOM      6  C   UNL     1      -3.948   3.041 127.588  0.00  0.00    +0.000 C 
ATOM      7  C   UNL     1      -4.819   2.043 128.289  0.00  0.00    +0.000 C 
ATOM      8  O   UNL     1      -4.474   1.277 129.180  0.00  0.00    +0.000 OA
ATOM      9  N   UNL     1      -6.098   2.166 127.802  0.00  0.00    +0.000 N 
ATOM     10  C   UNL     1      -6.109   1.639 125.408  0.00  0.00    +0.000 C 
ATOM     11  N   UNL     1      -6.133   2.238 124.093  0.00  0.00    +0.000 NA
ATOM     12  H   UNL     1      -6.835   1.577 128.175  0.00  0.00    +0.000 HD
ATOM     13  H   UNL     1      -6.000   1.529 123.378  0.00  0.00    +0.000 HD
ENDROOT
BRANCH   1  14
ATOM     14  C   UNL     1      -7.221   3.408 122.316  0.00  0.00    +0.000 A 
ATOM     15  C   UNL     1      -6.019   3.656 121.656  0.00  0.00    +0.000 A 
ATOM     16  C   UNL     1      -6.035   4.110 120.334  0.00  0.00    +0.000 A 
ATOM     17  C   UNL     1      -7.235   4.214 119.626  0.00  0.00    +0.000 A 
ATOM     18  C   UNL     1      -8.438   3.922 120.248  0.00  0.00    +0.000 A 
ATOM     19  C   UNL     1      -8.430   3.547 121.584  0.00  0.00    +0.000 A 
ENDBRANCH   1  14
BRANCH   1  20
ATOM     20  C   UNL     1      -8.700   2.406 124.029  0.00  0.00    +0.000 C 
BRANCH  20  21
ATOM     21  O   UNL     1      -8.674   1.056 123.560  0.00  0.00    +0.000 OA
BRANCH  21  23
ATOM     22  C   UNL     1      -9.897   0.868 125.644  0.00  0.00    +0.000 C 
ATOM     23  C   UNL     1      -9.470   0.177 124.343  0.00  0.00    +0.000 C 
BRANCH  23  24
ATOM     24  C   UNL     1      -8.659  -1.051 124.704  0.00  0.00    +0.000 A 
ATOM     25  C   UNL     1      -8.840  -1.628 125.968  0.00  0.00    +0.000 A 
ATOM     26  C   UNL     1      -7.877  -2.496 126.491  0.00  0.00    +0.000 A 
ATOM     27  C   UNL     1      -6.833  -2.936 125.670  0.00  0.00    +0.000 A 
ATOM     28  C   UNL     1      -6.679  -2.430 124.374  0.00  0.00    +0.000 A 
ATOM     29  C   UNL     1      -7.596  -1.487 123.901  0.00  0.00    +0.000 A 
BRANCH  28  30
ATOM     30  C   UNL     1      -5.473  -2.811 123.559  0.00  0.00    +0.000 C 
ATOM     31  F   UNL     1      -4.338  -2.217 124.025  0.00  0.00    +0.000 F 
ATOM     32  F   UNL     1      -5.233  -4.149 123.587  0.00  0.00    +0.000 F 
ATOM     33  F   UNL     1      -5.562  -2.467 122.246  0.00  0.00    +0.000 F 
ENDBRANCH  28  30
BRANCH  26  34
ATOM     34  C   UNL     1      -7.870  -2.799 127.966  0.00  0.00    +0.000 C 
ATOM     35  F   UNL     1      -8.159  -1.690 128.704  0.00  0.00    +0.000 F 
ATOM     36  F   UNL     1      -8.780  -3.739 128.323  0.00  0.00    +0.000 F 
ATOM     37  F   UNL     1      -6.662  -3.236 128.419  0.00  0.00    +0.000 F 
ENDBRANCH  26  34
ENDBRANCH  23  24
ENDBRANCH  21  23
ENDBRANCH  20  21
ENDBRANCH   1  20
TORSDOF 7
ENDMDL
MODEL 9
REMARK VINA RESULT:      -7.5      6.743      9.707
REMARK  Name = Rolapitant
REMARK  8 active torsions:
REMARK  status: ('A' for Active; 'I' for Inactive)
REMARK    1  A    between atoms: C_1  and  C_2
REMARK    2  A    between atoms: C_2  and  O_3
REMARK    3  A    between atoms: C_2  and  C_22
REMARK    4  A    between atoms: O_3  and  C_4
REMARK    5  A    between atoms: C_4  and  C_5
REMARK    6  A    between atoms: C_5  and  C_16
REMARK    7  A    between atoms: C_24  and  C_32
REMARK    8  A    between atoms: C_26  and  C_28
REMARK                            x       y       z     vdW  Elec       q    Type
REMARK                         _______ _______ _______ _____ _____    ______ ____
ROOT
ATOM      1  C   UNL     1      -6.312  -0.714 129.337  0.00  0.00    +0.000 C 
ATOM      2  C   UNL     1      -6.490  -0.036 130.726  0.00  0.00    +0.000 C 
ATOM      3  C   UNL     1      -6.188  -1.034 131.874  0.00  0.00    +0.000 C 
ATOM      4  C   UNL     1      -4.822  -1.700 131.691  0.00  0.00    +0.000 C 
ATOM      5  C   UNL     1      -3.726  -0.653 131.928  0.00  0.00    +0.000 C 
ATOM      6  C   UNL     1      -2.704  -1.325 132.826  0.00  0.00    +0.000 C 
ATOM      7  C   UNL     1      -3.268  -2.687 133.101  0.00  0.00    +0.000 C 
ATOM      8  O   UNL     1      -2.686  -3.619 133.641  0.00  0.00    +0.000 OA
ATOM      9  N   UNL     1      -4.580  -2.702 132.694  0.00  0.00    +0.000 N 
ATOM     10  C   UNL     1      -4.684  -2.308 130.276  0.00  0.00    +0.000 C 
ATOM     11  N   UNL     1      -4.954  -1.295 129.281  0.00  0.00    +0.000 NA
ATOM     12  H   UNL     1      -5.134  -3.543 132.818  0.00  0.00    +0.000 HD
ATOM     13  H   UNL     1      -4.731  -1.643 128.352  0.00  0.00    +0.000 HD
ENDROOT
BRANCH   1  14
ATOM     14  C   UNL     1      -6.425   0.146 128.069  0.00  0.00    +0.000 A 
ATOM     15  C   UNL     1      -7.480   1.024 127.826  0.00  0.00    +0.000 A 
ATOM     16  C   UNL     1      -7.597   1.639 126.577  0.00  0.00    +0.000 A 
ATOM     17  C   UNL     1      -6.610   1.475 125.602  0.00  0.00    +0.000 A 
ATOM     18  C   UNL     1      -5.525   0.646 125.842  0.00  0.00    +0.000 A 
ATOM     19  C   UNL     1      -5.449  -0.027 127.052  0.00  0.00    +0.000 A 
ENDBRANCH   1  14
BRANCH   1  20
ATOM     20  C   UNL     1      -7.491  -1.731 129.280  0.00  0.00    +0.000 C 
BRANCH  20  21
ATOM     21  O   UNL     1      -7.376  -2.564 128.124  0.00  0.00    +0.000 OA
BRANCH  21  23
ATOM     22  C   UNL     1      -9.082  -4.185 127.547  0.00  0.00    +0.000 C 
ATOM     23  C   UNL     1      -8.605  -2.732 127.432  0.00  0.00    +0.000 C 
BRANCH  23  24
ATOM     24  C   UNL     1      -8.403  -2.415 125.964  0.00  0.00    +0.000 A 
ATOM     25  C   UNL     1      -7.324  -3.006 125.292  0.00  0.00    +0.000 A 
ATOM     26  C   UNL     1      -6.869  -2.472 124.083  0.00  0.00    +0.000 A 
ATOM     27  C   UNL     1      -7.614  -1.469 123.452  0.00  0.00    +0.000 A 
ATOM     28  C   UNL     1      -8.743  -0.919 124.072  0.00  0.00    +0.000 A 
ATOM     29  C   UNL     1      -9.127  -1.398 125.328  0.00  0.00    +0.000 A 
BRANCH  28  30
ATOM     30  C   UNL     1      -9.448   0.251 123.443  0.00  0.00    +0.000 C 
ATOM     31  F   UNL     1     -10.204   0.934 124.349  0.00  0.00    +0.000 F 
ATOM     32  F   UNL     1      -8.579   1.157 122.922  0.00  0.00    +0.000 F 
ATOM     33  F   UNL     1     -10.293  -0.090 122.433  0.00  0.00    +0.000 F 
ENDBRANCH  28  30
BRANCH  26  34
ATOM     34  C   UNL     1      -5.503  -2.846 123.570  0.00  0.00    +0.000 C 
ATOM     35  F   UNL     1      -4.520  -2.174 124.235  0.00  0.00    +0.000 F 
ATOM     36  F   UNL     1      -5.222  -4.165 123.712  0.00  0.00    +0.000 F 
ATOM     37  F   UNL     1      -5.324  -2.549 122.253  0.00  0.00    +0.000 F 
ENDBRANCH  26  34
ENDBRANCH  23  24
ENDBRANCH  21  23
ENDBRANCH  20  21
ENDBRANCH   1  20
TORSDOF 7
ENDMDL
