MODEL 1
REMARK VINA RESULT:      -8.3      0.000      0.000
REMARK  Name = Rolitetracycline
REMARK  12 active torsions:
REMARK  status: ('A' for Active; 'I' for Inactive)
REMARK    1  A    between atoms: C_10  and  O_11
REMARK    2  A    between atoms: C_16  and  C_17
REMARK    3  A    between atoms: C_16  and  O_18
REMARK    4  A    between atoms: C_19  and  O_20
REMARK    5  A    between atoms: C_21  and  O_22
REMARK    6  A    between atoms: C_25  and  C_26
REMARK    7  A    between atoms: N_28  and  C_29
REMARK    8  A    between atoms: C_29  and  N_30
REMARK    9  A    between atoms: C_35  and  O_36
REMARK   10  A    between atoms: C_37  and  N_38
REMARK   11  A    between atoms: N_38  and  C_39
REMARK   12  A    between atoms: N_38  and  C_40
REMARK                            x       y       z     vdW  Elec       q    Type
REMARK                         _______ _______ _______ _____ _____    ______ ____
ROOT
ATOM      1  C   UNL     1      -8.916   2.066 131.259  0.00  0.00    +0.000 C 
ATOM      2  C   UNL     1      -8.716   3.549 130.366  0.00  0.00    +0.000 C 
ATOM      3  C   UNL     1      -9.819   4.443 130.095  0.00  0.00    +0.000 C 
ATOM      4  C   UNL     1     -10.231   4.926 131.382  0.00  0.00    +0.000 C 
ATOM      5  C   UNL     1     -11.127   6.105 131.389  0.00  0.00    +0.000 C 
ATOM      6  O   UNL     1     -11.777   6.434 132.373  0.00  0.00    +0.000 OA
ATOM      7  C   UNL     1     -11.118   6.897 130.117  0.00  0.00    +0.000 A 
ATOM      8  C   UNL     1     -12.015   7.919 129.868  0.00  0.00    +0.000 A 
ATOM      9  C   UNL     1     -11.967   8.598 128.643  0.00  0.00    +0.000 A 
ATOM     10  C   UNL     1     -11.026   8.288 127.669  0.00  0.00    +0.000 A 
ATOM     11  C   UNL     1     -10.108   7.319 127.927  0.00  0.00    +0.000 A 
ATOM     12  C   UNL     1     -10.163   6.614 129.122  0.00  0.00    +0.000 A 
ATOM     13  C   UNL     1      -9.156   5.550 129.292  0.00  0.00    +0.000 C 
ATOM     14  C   UNL     1      -8.764   4.888 127.952  0.00  0.00    +0.000 C 
ATOM     15  C   UNL     1      -9.618   4.310 132.390  0.00  0.00    +0.000 C 
ATOM     16  C   UNL     1      -8.387   2.997 132.145  0.00  0.00    +0.000 C 
ATOM     17  C   UNL     1      -7.046   2.382 130.732  0.00  0.00    +0.000 C 
ATOM     18  O   UNL     1      -7.193   2.130 129.454  0.00  0.00    +0.000 OA
ATOM     19  C   UNL     1      -5.851   1.464 130.831  0.00  0.00    +0.000 C 
ATOM     20  C   UNL     1      -6.792   0.529 131.238  0.00  0.00    +0.000 C 
ATOM     21  C   UNL     1      -7.678   1.100 132.318  0.00  0.00    +0.000 C 
ENDROOT
BRANCH  19  22
ATOM     22  C   UNL     1      -4.828   2.566 131.202  0.00  0.00    +0.000 C 
ATOM     23  O   UNL     1      -3.715   2.254 131.643  0.00  0.00    +0.000 OA
ATOM     24  N   UNL     1      -5.102   3.910 131.092  0.00  0.00    +0.000 N 
ATOM     25  H   UNL     1      -6.023   4.286 131.251  0.00  0.00    +0.000 HD
BRANCH  24  26
ATOM     26  C   UNL     1      -3.927   4.760 131.089  0.00  0.00    +0.000 C 
BRANCH  26  27
ATOM     27  N   UNL     1      -3.885   5.756 130.049  0.00  0.00    +0.000 NA
ATOM     28  C   UNL     1      -4.186   5.328 128.694  0.00  0.00    +0.000 C 
ATOM     29  C   UNL     1      -2.823   5.268 128.034  0.00  0.00    +0.000 C 
ATOM     30  C   UNL     1      -2.101   6.454 128.655  0.00  0.00    +0.000 C 
ATOM     31  C   UNL     1      -2.700   6.598 130.046  0.00  0.00    +0.000 C 
ENDBRANCH  26  27
ENDBRANCH  24  26
ENDBRANCH  19  22
BRANCH  21  32
ATOM     32  N   UNL     1      -6.571   1.957 133.207  0.00  0.00    +0.000 NA
ATOM     33  C   UNL     1      -6.724   3.301 133.794  0.00  0.00    +0.000 C 
ATOM     34  C   UNL     1      -5.635   1.177 133.968  0.00  0.00    +0.000 C 
ENDBRANCH  21  32
BRANCH   8  35
ATOM     35  O   UNL     1     -12.974   8.307 130.756  0.00  0.00    +0.000 OA
ATOM     36  H   UNL     1     -13.846   7.989 130.438  0.00  0.00    +0.000 HD
ENDBRANCH   8  35
BRANCH  13  37
ATOM     37  O   UNL     1      -8.034   6.177 129.940  0.00  0.00    +0.000 OA
ATOM     38  H   UNL     1      -7.486   6.652 129.281  0.00  0.00    +0.000 HD
ENDBRANCH  13  37
BRANCH  15  39
ATOM     39  O   UNL     1     -10.130   4.549 133.689  0.00  0.00    +0.000 OA
ATOM     40  H   UNL     1      -9.362   4.732 134.297  0.00  0.00    +0.000 HD
ENDBRANCH  15  39
BRANCH  16  41
ATOM     41  O   UNL     1      -9.064   2.418 133.372  0.00  0.00    +0.000 OA
ATOM     42  H   UNL     1      -9.248   1.475 133.164  0.00  0.00    +0.000 HD
ENDBRANCH  16  41
BRANCH  20  43
ATOM     43  O   UNL     1      -7.554  -0.293 130.360  0.00  0.00    +0.000 OA
ATOM     44  H   UNL     1      -7.947  -1.050 130.849  0.00  0.00    +0.000 HD
ENDBRANCH  20  43
TORSDOF 9
ENDMDL
MODEL 2
REMARK VINA RESULT:      -8.2      4.099      7.305
REMARK  Name = Rolitetracycline
REMARK  12 active torsions:
REMARK  status: ('A' for Active; 'I' for Inactive)
REMARK    1  A    between atoms: C_10  and  O_11
REMARK    2  A    between atoms: C_16  and  C_17
REMARK    3  A    between atoms: C_16  and  O_18
REMARK    4  A    between atoms: C_19  and  O_20
REMARK    5  A    between atoms: C_21  and  O_22
REMARK    6  A    between atoms: C_25  and  C_26
REMARK    7  A    between atoms: N_28  and  C_29
REMARK    8  A    between atoms: C_29  and  N_30
REMARK    9  A    between atoms: C_35  and  O_36
REMARK   10  A    between atoms: C_37  and  N_38
REMARK   11  A    between atoms: N_38  and  C_39
REMARK   12  A    between atoms: N_38  and  C_40
REMARK                            x       y       z     vdW  Elec       q    Type
REMARK                         _______ _______ _______ _____ _____    ______ ____
ROOT
ATOM      1  C   UNL     1      -4.505   2.931 127.024  0.00  0.00    +0.000 C 
ATOM      2  C   UNL     1      -6.153   2.809 126.472  0.00  0.00    +0.000 C 
ATOM      3  C   UNL     1      -6.551   1.901 125.419  0.00  0.00    +0.000 C 
ATOM      4  C   UNL     1      -6.319   0.589 125.952  0.00  0.00    +0.000 C 
ATOM      5  C   UNL     1      -6.938  -0.540 125.220  0.00  0.00    +0.000 C 
ATOM      6  O   UNL     1      -6.590  -1.702 125.384  0.00  0.00    +0.000 OA
ATOM      7  C   UNL     1      -8.067  -0.146 124.317  0.00  0.00    +0.000 A 
ATOM      8  C   UNL     1      -8.648  -1.026 123.423  0.00  0.00    +0.000 A 
ATOM      9  C   UNL     1      -9.680  -0.582 122.587  0.00  0.00    +0.000 A 
ATOM     10  C   UNL     1     -10.159   0.721 122.643  0.00  0.00    +0.000 A 
ATOM     11  C   UNL     1      -9.629   1.578 123.555  0.00  0.00    +0.000 A 
ATOM     12  C   UNL     1      -8.582   1.162 124.367  0.00  0.00    +0.000 A 
ATOM     13  C   UNL     1      -8.040   2.175 125.292  0.00  0.00    +0.000 C 
ATOM     14  C   UNL     1      -8.132   3.608 124.720  0.00  0.00    +0.000 C 
ATOM     15  C   UNL     1      -5.687   0.607 127.124  0.00  0.00    +0.000 C 
ATOM     16  C   UNL     1      -5.178   2.143 127.949  0.00  0.00    +0.000 C 
ATOM     17  C   UNL     1      -5.724   4.110 128.024  0.00  0.00    +0.000 C 
ATOM     18  O   UNL     1      -5.918   4.988 127.070  0.00  0.00    +0.000 OA
ATOM     19  C   UNL     1      -5.407   5.191 129.030  0.00  0.00    +0.000 C 
ATOM     20  C   UNL     1      -4.092   4.927 128.673  0.00  0.00    +0.000 C 
ATOM     21  C   UNL     1      -3.817   3.444 128.713  0.00  0.00    +0.000 C 
ENDROOT
BRANCH  19  22
ATOM     22  C   UNL     1      -6.612   4.907 129.960  0.00  0.00    +0.000 C 
ATOM     23  O   UNL     1      -6.627   5.364 131.109  0.00  0.00    +0.000 OA
ATOM     24  N   UNL     1      -7.686   4.134 129.580  0.00  0.00    +0.000 N 
ATOM     25  H   UNL     1      -7.589   3.344 128.962  0.00  0.00    +0.000 HD
BRANCH  24  26
ATOM     26  C   UNL     1      -8.870   4.313 130.400  0.00  0.00    +0.000 C 
BRANCH  26  27
ATOM     27  N   UNL     1     -10.004   4.896 129.731  0.00  0.00    +0.000 NA
ATOM     28  C   UNL     1      -9.857   6.243 129.205  0.00  0.00    +0.000 C 
ATOM     29  C   UNL     1     -10.611   7.095 130.206  0.00  0.00    +0.000 C 
ATOM     30  C   UNL     1     -11.787   6.206 130.579  0.00  0.00    +0.000 C 
ATOM     31  C   UNL     1     -11.267   4.783 130.442  0.00  0.00    +0.000 C 
ENDBRANCH  26  27
ENDBRANCH  24  26
ENDBRANCH  19  22
BRANCH  21  32
ATOM     32  N   UNL     1      -4.662   3.006 130.070  0.00  0.00    +0.000 NA
ATOM     33  C   UNL     1      -5.540   1.835 130.255  0.00  0.00    +0.000 C 
ATOM     34  C   UNL     1      -4.095   3.414 131.325  0.00  0.00    +0.000 C 
ENDBRANCH  21  32
BRANCH   8  35
ATOM     35  O   UNL     1      -8.258  -2.327 123.290  0.00  0.00    +0.000 OA
ATOM     36  H   UNL     1      -7.412  -2.355 122.796  0.00  0.00    +0.000 HD
ENDBRANCH   8  35
BRANCH  13  37
ATOM     37  O   UNL     1      -8.787   2.026 126.514  0.00  0.00    +0.000 OA
ATOM     38  H   UNL     1      -9.223   1.149 126.537  0.00  0.00    +0.000 HD
ENDBRANCH  13  37
BRANCH  15  39
ATOM     39  O   UNL     1      -5.206  -0.635 127.607  0.00  0.00    +0.000 OA
ATOM     40  H   UNL     1      -5.982  -1.252 127.704  0.00  0.00    +0.000 HD
ENDBRANCH  15  39
BRANCH  16  41
ATOM     41  O   UNL     1      -3.971   1.302 128.317  0.00  0.00    +0.000 OA
ATOM     42  H   UNL     1      -3.414   1.254 127.509  0.00  0.00    +0.000 HD
ENDBRANCH  16  41
BRANCH  20  43
ATOM     43  O   UNL     1      -3.412   5.525 127.575  0.00  0.00    +0.000 OA
ATOM     44  H   UNL     1      -2.901   6.311 127.870  0.00  0.00    +0.000 HD
ENDBRANCH  20  43
TORSDOF 9
ENDMDL
MODEL 3
REMARK VINA RESULT:      -8.1      3.634      7.140
REMARK  Name = Rolitetracycline
REMARK  12 active torsions:
REMARK  status: ('A' for Active; 'I' for Inactive)
REMARK    1  A    between atoms: C_10  and  O_11
REMARK    2  A    between atoms: C_16  and  C_17
REMARK    3  A    between atoms: C_16  and  O_18
REMARK    4  A    between atoms: C_19  and  O_20
REMARK    5  A    between atoms: C_21  and  O_22
REMARK    6  A    between atoms: C_25  and  C_26
REMARK    7  A    between atoms: N_28  and  C_29
REMARK    8  A    between atoms: C_29  and  N_30
REMARK    9  A    between atoms: C_35  and  O_36
REMARK   10  A    between atoms: C_37  and  N_38
REMARK   11  A    between atoms: N_38  and  C_39
REMARK   12  A    between atoms: N_38  and  C_40
REMARK                            x       y       z     vdW  Elec       q    Type
REMARK                         _______ _______ _______ _____ _____    ______ ____
ROOT
ATOM      1  C   UNL     1      -6.439   2.944 130.230  0.00  0.00    +0.000 C 
ATOM      2  C   UNL     1      -7.050   2.787 128.606  0.00  0.00    +0.000 C 
ATOM      3  C   UNL     1      -6.714   1.664 127.759  0.00  0.00    +0.000 C 
ATOM      4  C   UNL     1      -7.295   0.523 128.406  0.00  0.00    +0.000 C 
ATOM      5  C   UNL     1      -7.389  -0.716 127.599  0.00  0.00    +0.000 C 
ATOM      6  O   UNL     1      -7.584  -1.816 128.100  0.00  0.00    +0.000 OA
ATOM      7  C   UNL     1      -7.295  -0.499 126.119  0.00  0.00    +0.000 A 
ATOM      8  C   UNL     1      -7.183  -1.542 125.218  0.00  0.00    +0.000 A 
ATOM      9  C   UNL     1      -7.069  -1.264 123.850  0.00  0.00    +0.000 A 
ATOM     10  C   UNL     1      -7.086   0.036 123.362  0.00  0.00    +0.000 A 
ATOM     11  C   UNL     1      -7.248   1.065 124.236  0.00  0.00    +0.000 A 
ATOM     12  C   UNL     1      -7.328   0.808 125.599  0.00  0.00    +0.000 A 
ATOM     13  C   UNL     1      -7.455   1.989 126.473  0.00  0.00    +0.000 C 
ATOM     14  C   UNL     1      -6.731   3.228 125.900  0.00  0.00    +0.000 C 
ATOM     15  C   UNL     1      -7.794   0.803 129.607  0.00  0.00    +0.000 C 
ATOM     16  C   UNL     1      -7.739   2.465 130.338  0.00  0.00    +0.000 C 
ATOM     17  C   UNL     1      -7.650   4.414 129.735  0.00  0.00    +0.000 C 
ATOM     18  O   UNL     1      -6.833   5.027 128.913  0.00  0.00    +0.000 OA
ATOM     19  C   UNL     1      -7.958   5.696 130.472  0.00  0.00    +0.000 C 
ATOM     20  C   UNL     1      -6.955   5.268 131.329  0.00  0.00    +0.000 C 
ATOM     21  C   UNL     1      -7.176   3.831 131.733  0.00  0.00    +0.000 C 
ENDROOT
BRANCH  19  22
ATOM     22  C   UNL     1      -9.462   5.738 130.106  0.00  0.00    +0.000 C 
ATOM     23  O   UNL     1      -9.876   5.121 129.117  0.00  0.00    +0.000 OA
ATOM     24  N   UNL     1     -10.387   6.463 130.823  0.00  0.00    +0.000 N 
ATOM     25  H   UNL     1     -10.159   7.340 131.265  0.00  0.00    +0.000 HD
BRANCH  24  26
ATOM     26  C   UNL     1     -11.764   6.067 130.593  0.00  0.00    +0.000 C 
BRANCH  26  27
ATOM     27  N   UNL     1     -12.575   7.026 129.887  0.00  0.00    +0.000 NA
ATOM     28  C   UNL     1     -13.164   6.612 128.625  0.00  0.00    +0.000 C 
ATOM     29  C   UNL     1     -12.294   7.297 127.591  0.00  0.00    +0.000 C 
ATOM     30  C   UNL     1     -11.985   8.632 128.248  0.00  0.00    +0.000 C 
ATOM     31  C   UNL     1     -11.985   8.347 129.743  0.00  0.00    +0.000 C 
ENDBRANCH  26  27
ENDBRANCH  24  26
ENDBRANCH  19  22
BRANCH  21  32
ATOM     32  N   UNL     1      -8.823   3.812 131.925  0.00  0.00    +0.000 NA
ATOM     33  C   UNL     1      -9.783   2.808 131.430  0.00  0.00    +0.000 C 
ATOM     34  C   UNL     1      -9.327   4.451 133.108  0.00  0.00    +0.000 C 
ENDBRANCH  21  32
BRANCH   8  35
ATOM     35  O   UNL     1      -7.161  -2.854 125.589  0.00  0.00    +0.000 OA
ATOM     36  H   UNL     1      -7.228  -3.411 124.785  0.00  0.00    +0.000 HD
ENDBRANCH   8  35
BRANCH  13  37
ATOM     37  O   UNL     1      -8.869   2.207 126.629  0.00  0.00    +0.000 OA
ATOM     38  H   UNL     1      -9.111   2.179 127.578  0.00  0.00    +0.000 HD
ENDBRANCH  13  37
BRANCH  15  39
ATOM     39  O   UNL     1      -8.169  -0.300 130.414  0.00  0.00    +0.000 OA
ATOM     40  H   UNL     1      -8.373   0.039 131.328  0.00  0.00    +0.000 HD
ENDBRANCH  15  39
BRANCH  16  41
ATOM     41  O   UNL     1      -7.489   1.674 131.607  0.00  0.00    +0.000 OA
ATOM     42  H   UNL     1      -6.707   1.107 131.427  0.00  0.00    +0.000 HD
ENDBRANCH  16  41
BRANCH  20  43
ATOM     43  O   UNL     1      -5.565   5.519 131.144  0.00  0.00    +0.000 OA
ATOM     44  H   UNL     1      -5.202   6.029 131.901  0.00  0.00    +0.000 HD
ENDBRANCH  20  43
TORSDOF 9
ENDMDL
MODEL 4
REMARK VINA RESULT:      -8.0      3.066      6.755
REMARK  Name = Rolitetracycline
REMARK  12 active torsions:
REMARK  status: ('A' for Active; 'I' for Inactive)
REMARK    1  A    between atoms: C_10  and  O_11
REMARK    2  A    between atoms: C_16  and  C_17
REMARK    3  A    between atoms: C_16  and  O_18
REMARK    4  A    between atoms: C_19  and  O_20
REMARK    5  A    between atoms: C_21  and  O_22
REMARK    6  A    between atoms: C_25  and  C_26
REMARK    7  A    between atoms: N_28  and  C_29
REMARK    8  A    between atoms: C_29  and  N_30
REMARK    9  A    between atoms: C_35  and  O_36
REMARK   10  A    between atoms: C_37  and  N_38
REMARK   11  A    between atoms: N_38  and  C_39
REMARK   12  A    between atoms: N_38  and  C_40
REMARK                            x       y       z     vdW  Elec       q    Type
REMARK                         _______ _______ _______ _____ _____    ______ ____
ROOT
ATOM      1  C   UNL     1      -6.141   3.473 131.039  0.00  0.00    +0.000 C 
ATOM      2  C   UNL     1      -7.151   3.070 129.678  0.00  0.00    +0.000 C 
ATOM      3  C   UNL     1      -6.977   1.851 128.919  0.00  0.00    +0.000 C 
ATOM      4  C   UNL     1      -7.283   0.794 129.840  0.00  0.00    +0.000 C 
ATOM      5  C   UNL     1      -7.504  -0.548 129.253  0.00  0.00    +0.000 C 
ATOM      6  O   UNL     1      -7.481  -1.573 129.923  0.00  0.00    +0.000 OA
ATOM      7  C   UNL     1      -7.824  -0.538 127.789  0.00  0.00    +0.000 A 
ATOM      8  C   UNL     1      -7.884  -1.693 127.031  0.00  0.00    +0.000 A 
ATOM      9  C   UNL     1      -8.160  -1.607 125.660  0.00  0.00    +0.000 A 
ATOM     10  C   UNL     1      -8.396  -0.389 125.035  0.00  0.00    +0.000 A 
ATOM     11  C   UNL     1      -8.389   0.746 125.783  0.00  0.00    +0.000 A 
ATOM     12  C   UNL     1      -8.085   0.681 127.136  0.00  0.00    +0.000 A 
ATOM     13  C   UNL     1      -8.055   1.969 127.855  0.00  0.00    +0.000 C 
ATOM     14  C   UNL     1      -7.598   3.138 126.954  0.00  0.00    +0.000 C 
ATOM     15  C   UNL     1      -7.462   1.224 131.087  0.00  0.00    +0.000 C 
ATOM     16  C   UNL     1      -7.329   2.972 131.558  0.00  0.00    +0.000 C 
ATOM     17  C   UNL     1      -7.539   4.820 130.713  0.00  0.00    +0.000 C 
ATOM     18  O   UNL     1      -7.015   5.337 129.628  0.00  0.00    +0.000 OA
ATOM     19  C   UNL     1      -7.727   6.182 131.337  0.00  0.00    +0.000 C 
ATOM     20  C   UNL     1      -6.503   5.911 131.934  0.00  0.00    +0.000 C 
ATOM     21  C   UNL     1      -6.509   4.538 132.561  0.00  0.00    +0.000 C 
ENDROOT
BRANCH  19  22
ATOM     22  C   UNL     1      -9.273   6.124 131.395  0.00  0.00    +0.000 C 
ATOM     23  O   UNL     1      -9.889   6.837 132.196  0.00  0.00    +0.000 OA
ATOM     24  N   UNL     1     -10.021   5.283 130.603  0.00  0.00    +0.000 N 
ATOM     25  H   UNL     1      -9.695   4.370 130.329  0.00  0.00    +0.000 HD
BRANCH  24  26
ATOM     26  C   UNL     1     -11.421   5.649 130.500  0.00  0.00    +0.000 C 
BRANCH  26  27
ATOM     27  N   UNL     1     -11.840   6.142 129.214  0.00  0.00    +0.000 NA
ATOM     28  C   UNL     1     -10.870   6.889 128.430  0.00  0.00    +0.000 C 
ATOM     29  C   UNL     1     -11.316   8.327 128.597  0.00  0.00    +0.000 C 
ATOM     30  C   UNL     1     -12.832   8.206 128.604  0.00  0.00    +0.000 C 
ATOM     31  C   UNL     1     -13.117   6.837 129.203  0.00  0.00    +0.000 C 
ENDBRANCH  26  27
ENDBRANCH  24  26
ENDBRANCH  19  22
BRANCH  21  32
ATOM     32  N   UNL     1      -8.039   4.494 133.197  0.00  0.00    +0.000 NA
ATOM     33  C   UNL     1      -9.012   3.386 133.147  0.00  0.00    +0.000 C 
ATOM     34  C   UNL     1      -8.263   5.307 134.361  0.00  0.00    +0.000 C 
ENDBRANCH  21  32
BRANCH   8  35
ATOM     35  O   UNL     1      -7.674  -2.939 127.544  0.00  0.00    +0.000 OA
ATOM     36  H   UNL     1      -7.663  -3.587 126.808  0.00  0.00    +0.000 HD
ENDBRANCH   8  35
BRANCH  13  37
ATOM     37  O   UNL     1      -9.388   2.161 128.364  0.00  0.00    +0.000 OA
ATOM     38  H   UNL     1      -9.607   1.456 129.009  0.00  0.00    +0.000 HD
ENDBRANCH  13  37
BRANCH  15  39
ATOM     39  O   UNL     1      -7.531   0.233 132.098  0.00  0.00    +0.000 OA
ATOM     40  H   UNL     1      -6.839  -0.457 131.904  0.00  0.00    +0.000 HD
ENDBRANCH  15  39
BRANCH  16  41
ATOM     41  O   UNL     1      -6.695   2.376 132.800  0.00  0.00    +0.000 OA
ATOM     42  H   UNL     1      -6.743   1.400 132.690  0.00  0.00    +0.000 HD
ENDBRANCH  16  41
BRANCH  20  43
ATOM     43  O   UNL     1      -5.235   6.178 131.345  0.00  0.00    +0.000 OA
ATOM     44  H   UNL     1      -5.163   7.124 131.091  0.00  0.00    +0.000 HD
ENDBRANCH  20  43
TORSDOF 9
ENDMDL
MODEL 5
REMARK VINA RESULT:      -8.0      4.395      7.452
REMARK  Name = Rolitetracycline
REMARK  12 active torsions:
REMARK  status: ('A' for Active; 'I' for Inactive)
REMARK    1  A    between atoms: C_10  and  O_11
REMARK    2  A    between atoms: C_16  and  C_17
REMARK    3  A    between atoms: C_16  and  O_18
REMARK    4  A    between atoms: C_19  and  O_20
REMARK    5  A    between atoms: C_21  and  O_22
REMARK    6  A    between atoms: C_25  and  C_26
REMARK    7  A    between atoms: N_28  and  C_29
REMARK    8  A    between atoms: C_29  and  N_30
REMARK    9  A    between atoms: C_35  and  O_36
REMARK   10  A    between atoms: C_37  and  N_38
REMARK   11  A    between atoms: N_38  and  C_39
REMARK   12  A    between atoms: N_38  and  C_40
REMARK                            x       y       z     vdW  Elec       q    Type
REMARK                         _______ _______ _______ _____ _____    ______ ____
ROOT
ATOM      1  C   UNL     1      -5.163  -2.631 129.846  0.00  0.00    +0.000 C 
ATOM      2  C   UNL     1      -5.695  -1.485 128.647  0.00  0.00    +0.000 C 
ATOM      3  C   UNL     1      -6.287  -1.897 127.393  0.00  0.00    +0.000 C 
ATOM      4  C   UNL     1      -7.519  -2.538 127.757  0.00  0.00    +0.000 C 
ATOM      5  C   UNL     1      -8.490  -2.770 126.663  0.00  0.00    +0.000 C 
ATOM      6  O   UNL     1      -9.428  -3.550 126.769  0.00  0.00    +0.000 OA
ATOM      7  C   UNL     1      -8.267  -1.922 125.448  0.00  0.00    +0.000 A 
ATOM      8  C   UNL     1      -8.954  -2.120 124.265  0.00  0.00    +0.000 A 
ATOM      9  C   UNL     1      -8.674  -1.309 123.158  0.00  0.00    +0.000 A 
ATOM     10  C   UNL     1      -7.734  -0.288 123.217  0.00  0.00    +0.000 A 
ATOM     11  C   UNL     1      -7.091  -0.053 124.392  0.00  0.00    +0.000 A 
ATOM     12  C   UNL     1      -7.333  -0.871 125.488  0.00  0.00    +0.000 A 
ATOM     13  C   UNL     1      -6.554  -0.569 126.704  0.00  0.00    +0.000 C 
ATOM     14  C   UNL     1      -5.154  -0.001 126.383  0.00  0.00    +0.000 C 
ATOM     15  C   UNL     1      -7.654  -2.699 129.072  0.00  0.00    +0.000 C 
ATOM     16  C   UNL     1      -6.400  -2.157 130.268  0.00  0.00    +0.000 C 
ATOM     17  C   UNL     1      -4.912  -0.766 130.422  0.00  0.00    +0.000 C 
ATOM     18  O   UNL     1      -3.906  -0.486 129.628  0.00  0.00    +0.000 OA
ATOM     19  C   UNL     1      -4.183  -0.221 131.627  0.00  0.00    +0.000 C 
ATOM     20  C   UNL     1      -3.812  -1.545 131.814  0.00  0.00    +0.000 C 
ATOM     21  C   UNL     1      -5.016  -2.452 131.726  0.00  0.00    +0.000 C 
ENDROOT
BRANCH  19  22
ATOM     22  C   UNL     1      -5.176   0.932 131.913  0.00  0.00    +0.000 C 
ATOM     23  O   UNL     1      -5.194   1.472 133.025  0.00  0.00    +0.000 OA
ATOM     24  N   UNL     1      -6.083   1.386 130.982  0.00  0.00    +0.000 N 
ATOM     25  H   UNL     1      -6.515   0.775 130.309  0.00  0.00    +0.000 HD
BRANCH  24  26
ATOM     26  C   UNL     1      -6.628   2.699 131.273  0.00  0.00    +0.000 C 
BRANCH  26  27
ATOM     27  N   UNL     1      -8.049   2.836 131.081  0.00  0.00    +0.000 NA
ATOM     28  C   UNL     1      -8.782   3.657 132.030  0.00  0.00    +0.000 C 
ATOM     29  C   UNL     1      -9.478   2.639 132.910  0.00  0.00    +0.000 C 
ATOM     30  C   UNL     1      -9.848   1.544 131.922  0.00  0.00    +0.000 C 
ATOM     31  C   UNL     1      -8.765   1.591 130.854  0.00  0.00    +0.000 C 
ENDBRANCH  26  27
ENDBRANCH  24  26
ENDBRANCH  19  22
BRANCH  21  32
ATOM     32  N   UNL     1      -6.151  -1.540 132.519  0.00  0.00    +0.000 NA
ATOM     33  C   UNL     1      -7.575  -1.366 132.177  0.00  0.00    +0.000 C 
ATOM     34  C   UNL     1      -5.946  -1.365 133.930  0.00  0.00    +0.000 C 
ENDBRANCH  21  32
BRANCH   8  35
ATOM     35  O   UNL     1      -9.901  -3.089 124.100  0.00  0.00    +0.000 OA
ATOM     36  H   UNL     1      -9.493  -3.855 123.643  0.00  0.00    +0.000 HD
ENDBRANCH   8  35
BRANCH  13  37
ATOM     37  O   UNL     1      -7.358   0.353 127.462  0.00  0.00    +0.000 OA
ATOM     38  H   UNL     1      -7.953   0.852 126.864  0.00  0.00    +0.000 HD
ENDBRANCH  13  37
BRANCH  15  39
ATOM     39  O   UNL     1      -8.717  -3.529 129.505  0.00  0.00    +0.000 OA
ATOM     40  H   UNL     1      -9.131  -3.110 130.308  0.00  0.00    +0.000 HD
ENDBRANCH  15  39
BRANCH  16  41
ATOM     41  O   UNL     1      -6.808  -3.440 130.966  0.00  0.00    +0.000 OA
ATOM     42  H   UNL     1      -6.821  -3.236 131.927  0.00  0.00    +0.000 HD
ENDBRANCH  16  41
BRANCH  20  43
ATOM     43  O   UNL     1      -2.683  -2.167 131.210  0.00  0.00    +0.000 OA
ATOM     44  H   UNL     1      -1.974  -2.317 131.874  0.00  0.00    +0.000 HD
ENDBRANCH  20  43
TORSDOF 9
ENDMDL
MODEL 6
REMARK VINA RESULT:      -7.9      4.509      7.733
REMARK  Name = Rolitetracycline
REMARK  12 active torsions:
REMARK  status: ('A' for Active; 'I' for Inactive)
REMARK    1  A    between atoms: C_10  and  O_11
REMARK    2  A    between atoms: C_16  and  C_17
REMARK    3  A    between atoms: C_16  and  O_18
REMARK    4  A    between atoms: C_19  and  O_20
REMARK    5  A    between atoms: C_21  and  O_22
REMARK    6  A    between atoms: C_25  and  C_26
REMARK    7  A    between atoms: N_28  and  C_29
REMARK    8  A    between atoms: C_29  and  N_30
REMARK    9  A    between atoms: C_35  and  O_36
REMARK   10  A    between atoms: C_37  and  N_38
REMARK   11  A    between atoms: N_38  and  C_39
REMARK   12  A    between atoms: N_38  and  C_40
REMARK                            x       y       z     vdW  Elec       q    Type
REMARK                         _______ _______ _______ _____ _____    ______ ____
ROOT
ATOM      1  C   UNL     1      -7.776   1.198 130.048  0.00  0.00    +0.000 C 
ATOM      2  C   UNL     1      -7.532  -0.287 129.170  0.00  0.00    +0.000 C 
ATOM      3  C   UNL     1      -8.125  -0.524 127.873  0.00  0.00    +0.000 C 
ATOM      4  C   UNL     1      -7.515   0.439 127.003  0.00  0.00    +0.000 C 
ATOM      5  C   UNL     1      -7.689   0.218 125.548  0.00  0.00    +0.000 C 
ATOM      6  O   UNL     1      -7.482   1.094 124.719  0.00  0.00    +0.000 OA
ATOM      7  C   UNL     1      -8.072  -1.182 125.177  0.00  0.00    +0.000 A 
ATOM      8  C   UNL     1      -8.453  -1.536 123.896  0.00  0.00    +0.000 A 
ATOM      9  C   UNL     1      -8.827  -2.859 123.626  0.00  0.00    +0.000 A 
ATOM     10  C   UNL     1      -8.809  -3.841 124.609  0.00  0.00    +0.000 A 
ATOM     11  C   UNL     1      -8.388  -3.512 125.859  0.00  0.00    +0.000 A 
ATOM     12  C   UNL     1      -8.045  -2.198 126.150  0.00  0.00    +0.000 A 
ATOM     13  C   UNL     1      -7.646  -1.928 127.544  0.00  0.00    +0.000 C 
ATOM     14  C   UNL     1      -8.373  -2.843 128.555  0.00  0.00    +0.000 C 
ATOM     15  C   UNL     1      -6.755   1.319 127.651  0.00  0.00    +0.000 C 
ATOM     16  C   UNL     1      -6.525   1.289 129.452  0.00  0.00    +0.000 C 
ATOM     17  C   UNL     1      -6.583  -0.049 130.994  0.00  0.00    +0.000 C 
ATOM     18  O   UNL     1      -7.502  -0.911 131.355  0.00  0.00    +0.000 OA
ATOM     19  C   UNL     1      -6.027   0.028 132.396  0.00  0.00    +0.000 C 
ATOM     20  C   UNL     1      -6.860   1.132 132.505  0.00  0.00    +0.000 C 
ATOM     21  C   UNL     1      -6.674   2.058 131.327  0.00  0.00    +0.000 C 
ENDROOT
BRANCH  19  22
ATOM     22  C   UNL     1      -4.634  -0.555 132.053  0.00  0.00    +0.000 C 
ATOM     23  O   UNL     1      -3.708  -0.466 132.868  0.00  0.00    +0.000 OA
ATOM     24  N   UNL     1      -4.351  -1.160 130.850  0.00  0.00    +0.000 N 
ATOM     25  H   UNL     1      -4.777  -0.864 129.985  0.00  0.00    +0.000 HD
BRANCH  24  26
ATOM     26  C   UNL     1      -3.159  -1.986 130.863  0.00  0.00    +0.000 C 
BRANCH  26  27
ATOM     27  N   UNL     1      -3.389  -3.407 130.829  0.00  0.00    +0.000 NA
ATOM     28  C   UNL     1      -4.238  -3.927 129.769  0.00  0.00    +0.000 C 
ATOM     29  C   UNL     1      -5.547  -4.212 130.476  0.00  0.00    +0.000 C 
ATOM     30  C   UNL     1      -5.088  -4.717 131.835  0.00  0.00    +0.000 C 
ATOM     31  C   UNL     1      -3.771  -4.003 132.099  0.00  0.00    +0.000 C 
ENDBRANCH  26  27
ENDBRANCH  24  26
ENDBRANCH  19  22
BRANCH  21  32
ATOM     32  N   UNL     1      -5.031   1.977 131.126  0.00  0.00    +0.000 NA
ATOM     33  C   UNL     1      -4.274   1.883 129.863  0.00  0.00    +0.000 C 
ATOM     34  C   UNL     1      -4.239   2.615 132.141  0.00  0.00    +0.000 C 
ENDBRANCH  21  32
BRANCH   8  35
ATOM     35  O   UNL     1      -8.500  -0.654 122.857  0.00  0.00    +0.000 OA
ATOM     36  H   UNL     1      -8.068   0.182 123.132  0.00  0.00    +0.000 HD
ENDBRANCH   8  35
BRANCH  13  37
ATOM     37  O   UNL     1      -6.217  -2.102 127.580  0.00  0.00    +0.000 OA
ATOM     38  H   UNL     1      -5.840  -1.631 128.352  0.00  0.00    +0.000 HD
ENDBRANCH  13  37
BRANCH  15  39
ATOM     39  O   UNL     1      -6.308   2.442 126.910  0.00  0.00    +0.000 OA
ATOM     40  H   UNL     1      -6.986   2.639 126.207  0.00  0.00    +0.000 HD
ENDBRANCH  15  39
BRANCH  16  41
ATOM     41  O   UNL     1      -6.566   2.795 129.275  0.00  0.00    +0.000 OA
ATOM     42  H   UNL     1      -6.605   2.955 128.306  0.00  0.00    +0.000 HD
ENDBRANCH  16  41
BRANCH  20  43
ATOM     43  O   UNL     1      -8.234   1.081 132.878  0.00  0.00    +0.000 OA
ATOM     44  H   UNL     1      -8.524   0.151 133.002  0.00  0.00    +0.000 HD
ENDBRANCH  20  43
TORSDOF 9
ENDMDL
MODEL 7
REMARK VINA RESULT:      -7.9      2.299      5.132
REMARK  Name = Rolitetracycline
REMARK  12 active torsions:
REMARK  status: ('A' for Active; 'I' for Inactive)
REMARK    1  A    between atoms: C_10  and  O_11
REMARK    2  A    between atoms: C_16  and  C_17
REMARK    3  A    between atoms: C_16  and  O_18
REMARK    4  A    between atoms: C_19  and  O_20
REMARK    5  A    between atoms: C_21  and  O_22
REMARK    6  A    between atoms: C_25  and  C_26
REMARK    7  A    between atoms: N_28  and  C_29
REMARK    8  A    between atoms: C_29  and  N_30
REMARK    9  A    between atoms: C_35  and  O_36
REMARK   10  A    between atoms: C_37  and  N_38
REMARK   11  A    between atoms: N_38  and  C_39
REMARK   12  A    between atoms: N_38  and  C_40
REMARK                            x       y       z     vdW  Elec       q    Type
REMARK                         _______ _______ _______ _____ _____    ______ ____
ROOT
ATOM      1  C   UNL     1      -6.192   4.457 130.915  0.00  0.00    +0.000 C 
ATOM      2  C   UNL     1      -7.871   4.624 131.348  0.00  0.00    +0.000 C 
ATOM      3  C   UNL     1      -8.688   5.716 130.868  0.00  0.00    +0.000 C 
ATOM      4  C   UNL     1      -8.765   5.526 129.448  0.00  0.00    +0.000 C 
ATOM      5  C   UNL     1      -9.802   6.306 128.733  0.00  0.00    +0.000 C 
ATOM      6  O   UNL     1      -9.788   6.465 127.519  0.00  0.00    +0.000 OA
ATOM      7  C   UNL     1     -10.901   6.824 129.611  0.00  0.00    +0.000 A 
ATOM      8  C   UNL     1     -11.855   7.718 129.161  0.00  0.00    +0.000 A 
ATOM      9  C   UNL     1     -12.837   8.184 130.045  0.00  0.00    +0.000 A 
ATOM     10  C   UNL     1     -12.896   7.758 131.366  0.00  0.00    +0.000 A 
ATOM     11  C   UNL     1     -11.992   6.840 131.802  0.00  0.00    +0.000 A 
ATOM     12  C   UNL     1     -10.993   6.394 130.947  0.00  0.00    +0.000 A 
ATOM     13  C   UNL     1     -10.030   5.436 131.523  0.00  0.00    +0.000 C 
ATOM     14  C   UNL     1      -9.793   5.671 133.031  0.00  0.00    +0.000 C 
ATOM     15  C   UNL     1      -7.969   4.555 129.008  0.00  0.00    +0.000 C 
ATOM     16  C   UNL     1      -6.902   3.578 130.106  0.00  0.00    +0.000 C 
ATOM     17  C   UNL     1      -6.826   2.985 132.059  0.00  0.00    +0.000 C 
ATOM     18  O   UNL     1      -6.910   3.671 133.173  0.00  0.00    +0.000 OA
ATOM     19  C   UNL     1      -6.042   1.884 132.732  0.00  0.00    +0.000 C 
ATOM     20  C   UNL     1      -4.941   2.581 132.255  0.00  0.00    +0.000 C 
ATOM     21  C   UNL     1      -5.111   2.906 130.791  0.00  0.00    +0.000 C 
ENDROOT
BRANCH  19  22
ATOM     22  C   UNL     1      -7.103   0.776 132.524  0.00  0.00    +0.000 C 
ATOM     23  O   UNL     1      -8.295   1.077 132.393  0.00  0.00    +0.000 OA
ATOM     24  N   UNL     1      -6.791  -0.565 132.500  0.00  0.00    +0.000 N 
ATOM     25  H   UNL     1      -6.053  -0.956 133.062  0.00  0.00    +0.000 HD
BRANCH  24  26
ATOM     26  C   UNL     1      -7.812  -1.404 131.900  0.00  0.00    +0.000 C 
BRANCH  26  27
ATOM     27  N   UNL     1      -7.434  -2.776 131.680  0.00  0.00    +0.000 NA
ATOM     28  C   UNL     1      -6.217  -3.251 132.316  0.00  0.00    +0.000 C 
ATOM     29  C   UNL     1      -5.219  -3.291 131.177  0.00  0.00    +0.000 C 
ATOM     30  C   UNL     1      -6.071  -3.749 130.004  0.00  0.00    +0.000 C 
ATOM     31  C   UNL     1      -7.465  -3.212 130.293  0.00  0.00    +0.000 C 
ENDBRANCH  26  27
ENDBRANCH  24  26
ENDBRANCH  19  22
BRANCH  21  32
ATOM     32  N   UNL     1      -5.807   1.506 130.240  0.00  0.00    +0.000 NA
ATOM     33  C   UNL     1      -6.992   1.362 129.372  0.00  0.00    +0.000 C 
ATOM     34  C   UNL     1      -4.925   0.383 130.081  0.00  0.00    +0.000 C 
ENDBRANCH  21  32
BRANCH   8  35
ATOM     35  O   UNL     1     -11.893   8.196 127.884  0.00  0.00    +0.000 OA
ATOM     36  H   UNL     1     -12.454   7.603 127.341  0.00  0.00    +0.000 HD
ENDBRANCH   8  35
BRANCH  13  37
ATOM     37  O   UNL     1     -10.573   4.130 131.252  0.00  0.00    +0.000 OA
ATOM     38  H   UNL     1     -10.388   3.874 130.324  0.00  0.00    +0.000 HD
ENDBRANCH  13  37
BRANCH  15  39
ATOM     39  O   UNL     1      -7.800   4.456 127.605  0.00  0.00    +0.000 OA
ATOM     40  H   UNL     1      -7.138   3.734 127.421  0.00  0.00    +0.000 HD
ENDBRANCH  15  39
BRANCH  16  41
ATOM     41  O   UNL     1      -5.951   3.677 128.929  0.00  0.00    +0.000 OA
ATOM     42  H   UNL     1      -6.040   2.833 128.433  0.00  0.00    +0.000 HD
ENDBRANCH  16  41
BRANCH  20  43
ATOM     43  O   UNL     1      -4.309   3.664 132.930  0.00  0.00    +0.000 OA
ATOM     44  H   UNL     1      -4.332   3.527 133.902  0.00  0.00    +0.000 HD
ENDBRANCH  20  43
TORSDOF 9
ENDMDL
MODEL 8
REMARK VINA RESULT:      -7.9      3.510      6.711
REMARK  Name = Rolitetracycline
REMARK  12 active torsions:
REMARK  status: ('A' for Active; 'I' for Inactive)
REMARK    1  A    between atoms: C_10  and  O_11
REMARK    2  A    between atoms: C_16  and  C_17
REMARK    3  A    between atoms: C_16  and  O_18
REMARK    4  A    between atoms: C_19  and  O_20
REMARK    5  A    between atoms: C_21  and  O_22
REMARK    6  A    between atoms: C_25  and  C_26
REMARK    7  A    between atoms: N_28  and  C_29
REMARK    8  A    between atoms: C_29  and  N_30
REMARK    9  A    between atoms: C_35  and  O_36
REMARK   10  A    between atoms: C_37  and  N_38
REMARK   11  A    between atoms: N_38  and  C_39
REMARK   12  A    between atoms: N_38  and  C_40
REMARK                            x       y       z     vdW  Elec       q    Type
REMARK                         _______ _______ _______ _____ _____    ______ ____
ROOT
ATOM      1  C   UNL     1      -6.048   3.145 130.015  0.00  0.00    +0.000 C 
ATOM      2  C   UNL     1      -6.469   3.802 128.457  0.00  0.00    +0.000 C 
ATOM      3  C   UNL     1      -6.239   3.079 127.226  0.00  0.00    +0.000 C 
ATOM      4  C   UNL     1      -7.095   1.930 127.304  0.00  0.00    +0.000 C 
ATOM      5  C   UNL     1      -7.311   1.182 126.044  0.00  0.00    +0.000 C 
ATOM      6  O   UNL     1      -7.764   0.044 126.022  0.00  0.00    +0.000 OA
ATOM      7  C   UNL     1      -6.994   1.957 124.802  0.00  0.00    +0.000 A 
ATOM      8  C   UNL     1      -6.962   1.376 123.548  0.00  0.00    +0.000 A 
ATOM      9  C   UNL     1      -6.628   2.155 122.433  0.00  0.00    +0.000 A 
ATOM     10  C   UNL     1      -6.347   3.511 122.544  0.00  0.00    +0.000 A 
ATOM     11  C   UNL     1      -6.427   4.101 123.766  0.00  0.00    +0.000 A 
ATOM     12  C   UNL     1      -6.723   3.335 124.886  0.00  0.00    +0.000 A 
ATOM     13  C   UNL     1      -6.741   4.054 126.174  0.00  0.00    +0.000 C 
ATOM     14  C   UNL     1      -5.737   5.228 126.210  0.00  0.00    +0.000 C 
ATOM     15  C   UNL     1      -7.681   1.797 128.491  0.00  0.00    +0.000 C 
ATOM     16  C   UNL     1      -7.417   2.960 129.861  0.00  0.00    +0.000 C 
ATOM     17  C   UNL     1      -6.899   4.914 130.148  0.00  0.00    +0.000 C 
ATOM     18  O   UNL     1      -5.887   5.615 129.696  0.00  0.00    +0.000 OA
ATOM     19  C   UNL     1      -7.059   5.818 131.348  0.00  0.00    +0.000 C 
ATOM     20  C   UNL     1      -6.265   4.869 131.979  0.00  0.00    +0.000 C 
ATOM     21  C   UNL     1      -6.794   3.479 131.724  0.00  0.00    +0.000 C 
ENDROOT
BRANCH  19  22
ATOM     22  C   UNL     1      -8.472   6.332 130.980  0.00  0.00    +0.000 C 
ATOM     23  O   UNL     1      -9.184   6.857 131.844  0.00  0.00    +0.000 OA
ATOM     24  N   UNL     1      -9.006   6.214 129.717  0.00  0.00    +0.000 N 
ATOM     25  H   UNL     1      -8.805   5.428 129.119  0.00  0.00    +0.000 HD
BRANCH  24  26
ATOM     26  C   UNL     1     -10.133   7.092 129.461  0.00  0.00    +0.000 C 
BRANCH  26  27
ATOM     27  N   UNL     1     -11.157   6.552 128.604  0.00  0.00    +0.000 NA
ATOM     28  C   UNL     1     -11.497   7.300 127.406  0.00  0.00    +0.000 C 
ATOM     29  C   UNL     1     -12.812   7.960 127.766  0.00  0.00    +0.000 C 
ATOM     30  C   UNL     1     -13.501   6.893 128.602  0.00  0.00    +0.000 C 
ATOM     31  C   UNL     1     -12.373   6.133 129.282  0.00  0.00    +0.000 C 
ENDBRANCH  26  27
ENDBRANCH  24  26
ENDBRANCH  19  22
BRANCH  21  32
ATOM     32  N   UNL     1      -8.427   3.743 131.829  0.00  0.00    +0.000 NA
ATOM     33  C   UNL     1      -9.488   3.238 130.936  0.00  0.00    +0.000 C 
ATOM     34  C   UNL     1      -8.946   3.971 133.149  0.00  0.00    +0.000 C 
ENDBRANCH  21  32
BRANCH   8  35
ATOM     35  O   UNL     1      -7.226   0.056 123.326  0.00  0.00    +0.000 OA
ATOM     36  H   UNL     1      -7.999  -0.207 123.869  0.00  0.00    +0.000 HD
ENDBRANCH   8  35
BRANCH  13  37
ATOM     37  O   UNL     1      -8.100   4.491 126.356  0.00  0.00    +0.000 OA
ATOM     38  H   UNL     1      -8.407   4.270 127.260  0.00  0.00    +0.000 HD
ENDBRANCH  13  37
BRANCH  15  39
ATOM     39  O   UNL     1      -8.349   0.571 128.738  0.00  0.00    +0.000 OA
ATOM     40  H   UNL     1      -8.192  -0.030 127.959  0.00  0.00    +0.000 HD
ENDBRANCH  15  39
BRANCH  16  41
ATOM     41  O   UNL     1      -7.477   1.686 130.682  0.00  0.00    +0.000 OA
ATOM     42  H   UNL     1      -8.292   1.216 130.398  0.00  0.00    +0.000 HD
ENDBRANCH  16  41
BRANCH  20  43
ATOM     43  O   UNL     1      -4.842   4.864 131.969  0.00  0.00    +0.000 OA
ATOM     44  H   UNL     1      -4.494   5.725 131.650  0.00  0.00    +0.000 HD
ENDBRANCH  20  43
TORSDOF 9
ENDMDL
MODEL 9
REMARK VINA RESULT:      -7.8      2.113      6.873
REMARK  Name = Rolitetracycline
REMARK  12 active torsions:
REMARK  status: ('A' for Active; 'I' for Inactive)
REMARK    1  A    between atoms: C_10  and  O_11
REMARK    2  A    between atoms: C_16  and  C_17
REMARK    3  A    between atoms: C_16  and  O_18
REMARK    4  A    between atoms: C_19  and  O_20
REMARK    5  A    between atoms: C_21  and  O_22
REMARK    6  A    between atoms: C_25  and  C_26
REMARK    7  A    between atoms: N_28  and  C_29
REMARK    8  A    between atoms: C_29  and  N_30
REMARK    9  A    between atoms: C_35  and  O_36
REMARK   10  A    between atoms: C_37  and  N_38
REMARK   11  A    between atoms: N_38  and  C_39
REMARK   12  A    between atoms: N_38  and  C_40
REMARK                            x       y       z     vdW  Elec       q    Type
REMARK                         _______ _______ _______ _____ _____    ______ ____
ROOT
ATOM      1  C   UNL     1      -9.132   2.834 131.510  0.00  0.00    +0.000 C 
ATOM      2  C   UNL     1      -7.444   2.442 131.686  0.00  0.00    +0.000 C 
ATOM      3  C   UNL     1      -6.954   1.083 131.613  0.00  0.00    +0.000 C 
ATOM      4  C   UNL     1      -7.218   0.664 130.266  0.00  0.00    +0.000 C 
ATOM      5  C   UNL     1      -6.531  -0.567 129.812  0.00  0.00    +0.000 C 
ATOM      6  O   UNL     1      -6.881  -1.188 128.816  0.00  0.00    +0.000 OA
ATOM      7  C   UNL     1      -5.336  -0.947 130.631  0.00  0.00    +0.000 A 
ATOM      8  C   UNL     1      -4.677  -2.152 130.474  0.00  0.00    +0.000 A 
ATOM      9  C   UNL     1      -3.583  -2.455 131.295  0.00  0.00    +0.000 A 
ATOM     10  C   UNL     1      -3.122  -1.566 132.259  0.00  0.00    +0.000 A 
ATOM     11  C   UNL     1      -3.732  -0.357 132.384  0.00  0.00    +0.000 A 
ATOM     12  C   UNL     1      -4.838  -0.057 131.600  0.00  0.00    +0.000 A 
ATOM     13  C   UNL     1      -5.462   1.258 131.841  0.00  0.00    +0.000 C 
ATOM     14  C   UNL     1      -5.336   1.712 133.312  0.00  0.00    +0.000 C 
ATOM     15  C   UNL     1      -7.943   1.544 129.580  0.00  0.00    +0.000 C 
ATOM     16  C   UNL     1      -8.530   3.110 130.289  0.00  0.00    +0.000 C 
ATOM     17  C   UNL     1      -8.009   4.431 131.756  0.00  0.00    +0.000 C 
ATOM     18  O   UNL     1      -7.746   4.250 133.028  0.00  0.00    +0.000 OA
ATOM     19  C   UNL     1      -8.416   5.867 131.990  0.00  0.00    +0.000 C 
ATOM     20  C   UNL     1      -9.695   5.335 132.063  0.00  0.00    +0.000 C 
ATOM     21  C   UNL     1      -9.960   4.421 130.891  0.00  0.00    +0.000 C 
ENDROOT
BRANCH  19  22
ATOM     22  C   UNL     1      -7.288   6.498 131.136  0.00  0.00    +0.000 C 
ATOM     23  O   UNL     1      -7.443   7.620 130.639  0.00  0.00    +0.000 OA
ATOM     24  N   UNL     1      -6.101   5.854 130.871  0.00  0.00    +0.000 N 
ATOM     25  H   UNL     1      -6.045   4.855 130.755  0.00  0.00    +0.000 HD
BRANCH  24  26
ATOM     26  C   UNL     1      -5.035   6.730 130.421  0.00  0.00    +0.000 C 
BRANCH  26  27
ATOM     27  N   UNL     1      -4.560   6.491 129.082  0.00  0.00    +0.000 NA
ATOM     28  C   UNL     1      -4.318   5.113 128.689  0.00  0.00    +0.000 C 
ATOM     29  C   UNL     1      -2.808   4.995 128.737  0.00  0.00    +0.000 C 
ATOM     30  C   UNL     1      -2.353   6.355 128.233  0.00  0.00    +0.000 C 
ATOM     31  C   UNL     1      -3.444   7.324 128.664  0.00  0.00    +0.000 C 
ENDBRANCH  26  27
ENDBRANCH  24  26
ENDBRANCH  19  22
BRANCH  21  32
ATOM     32  N   UNL     1      -9.224   5.264 129.668  0.00  0.00    +0.000 NA
ATOM     33  C   UNL     1      -8.285   4.753 128.651  0.00  0.00    +0.000 C 
ATOM     34  C   UNL     1      -9.944   6.401 129.164  0.00  0.00    +0.000 C 
ENDBRANCH  21  32
BRANCH   8  35
ATOM     35  O   UNL     1      -5.043  -3.093 129.557  0.00  0.00    +0.000 OA
ATOM     36  H   UNL     1      -4.776  -2.786 128.665  0.00  0.00    +0.000 HD
ENDBRANCH   8  35
BRANCH  13  37
ATOM     37  O   UNL     1      -4.816   2.168 130.931  0.00  0.00    +0.000 OA
ATOM     38  H   UNL     1      -4.225   1.674 130.324  0.00  0.00    +0.000 HD
ENDBRANCH  13  37
BRANCH  15  39
ATOM     39  O   UNL     1      -8.451   1.113 128.329  0.00  0.00    +0.000 OA
ATOM     40  H   UNL     1      -9.408   1.382 128.273  0.00  0.00    +0.000 HD
ENDBRANCH  15  39
BRANCH  16  41
ATOM     41  O   UNL     1      -9.756   2.789 129.456  0.00  0.00    +0.000 OA
ATOM     42  H   UNL     1      -9.422   2.488 128.582  0.00  0.00    +0.000 HD
ENDBRANCH  16  41
BRANCH  20  43
ATOM     43  O   UNL     1     -10.289   4.805 133.244  0.00  0.00    +0.000 OA
ATOM     44  H   UNL     1      -9.644   4.253 133.738  0.00  0.00    +0.000 HD
ENDBRANCH  20  43
TORSDOF 9
ENDMDL
