MODEL 1
REMARK VINA RESULT:      -8.8      0.000      0.000
REMARK  Name = Romidepsin
REMARK  7 active torsions:
REMARK  status: ('A' for Active; 'I' for Inactive)
REMARK    1  A    between atoms: C_1  and  C_2
REMARK    2  A    between atoms: C_20  and  C_21
REMARK    3  A    between atoms: C_21  and  C_22
REMARK    4  A    between atoms: C_21  and  C_23
REMARK    5  A    between atoms: C_30  and  C_34
REMARK    6  A    between atoms: C_34  and  C_35
REMARK    7  A    between atoms: C_34  and  C_36
REMARK                            x       y       z     vdW  Elec       q    Type
REMARK                         _______ _______ _______ _____ _____    ______ ____
ROOT
ATOM      1  C   UNL     1      -6.243   4.458 131.950  0.00  0.00    +0.000 C 
ATOM      2  C   UNL     1      -5.188   3.479 131.538  0.00  0.00    +0.000 C 
ATOM      3  C   UNL     1      -5.350   2.916 130.333  0.00  0.00    +0.000 C 
ATOM      4  N   UNL     1      -5.053   1.579 130.158  0.00  0.00    +0.000 N 
ATOM      5  C   UNL     1      -5.897   0.541 129.909  0.00  0.00    +0.000 C 
ATOM      6  O   UNL     1      -5.500  -0.135 128.957  0.00  0.00    +0.000 OA
ATOM      7  C   UNL     1      -7.056  -0.051 130.795  0.00  0.00    +0.000 C 
ATOM      8  C   UNL     1      -7.626   0.971 132.193  0.00  0.00    +0.000 C 
ATOM      9  S   UNL     1      -8.854   2.348 132.547  0.00  0.00    +0.000 S 
ATOM     10  S   UNL     1      -9.815   2.856 130.861  0.00  0.00    +0.000 S 
ATOM     11  C   UNL     1      -8.637   3.759 129.740  0.00  0.00    +0.000 C 
ATOM     12  C   UNL     1      -8.149   2.782 128.736  0.00  0.00    +0.000 C 
ATOM     13  C   UNL     1      -8.082   3.089 127.212  0.00  0.00    +0.000 C 
ATOM     14  C   UNL     1      -7.278   2.515 126.242  0.00  0.00    +0.000 C 
ATOM     15  C   UNL     1      -7.298   2.605 124.692  0.00  0.00    +0.000 C 
ATOM     16  C   UNL     1      -7.030   1.091 123.815  0.00  0.00    +0.000 C 
ATOM     17  C   UNL     1      -7.913  -0.419 123.902  0.00  0.00    +0.000 C 
ATOM     18  O   UNL     1      -8.790  -0.599 123.036  0.00  0.00    +0.000 OA
ATOM     19  N   UNL     1      -7.752  -1.456 124.942  0.00  0.00    +0.000 N 
ATOM     20  C   UNL     1      -8.227  -1.398 126.585  0.00  0.00    +0.000 C 
ATOM     21  C   UNL     1      -7.337  -1.797 128.207  0.00  0.00    +0.000 C 
ATOM     22  O   UNL     1      -6.215  -2.398 128.054  0.00  0.00    +0.000 OA
ATOM     23  N   UNL     1      -7.778  -1.349 129.758  0.00  0.00    +0.000 N 
ATOM     24  O   UNL     1      -6.363   3.721 124.451  0.00  0.00    +0.000 OA
ATOM     25  C   UNL     1      -6.377   4.643 125.504  0.00  0.00    +0.000 C 
ATOM     26  O   UNL     1      -7.342   5.391 125.684  0.00  0.00    +0.000 OA
ATOM     27  C   UNL     1      -5.238   4.350 126.654  0.00  0.00    +0.000 C 
ATOM     28  N   UNL     1      -5.709   3.853 128.009  0.00  0.00    +0.000 N 
ATOM     29  C   UNL     1      -5.100   3.999 129.226  0.00  0.00    +0.000 C 
ATOM     30  O   UNL     1      -4.429   4.999 129.463  0.00  0.00    +0.000 OA
ATOM     31  H   UNL     1      -4.295   1.204 130.711  0.00  0.00    +0.000 HD
ATOM     32  H   UNL     1      -6.893  -1.969 124.817  0.00  0.00    +0.000 HD
ATOM     33  H   UNL     1      -8.780  -1.440 129.914  0.00  0.00    +0.000 HD
ATOM     34  H   UNL     1      -6.620   4.254 128.134  0.00  0.00    +0.000 HD
ENDROOT
BRANCH  20  35
ATOM     35  C   UNL     1      -8.147   0.046 126.503  0.00  0.00    +0.000 C 
ATOM     36  C   UNL     1      -8.002   0.464 127.845  0.00  0.00    +0.000 C 
ATOM     37  C   UNL     1      -9.393   0.885 126.011  0.00  0.00    +0.000 C 
ENDBRANCH  20  35
BRANCH  27  38
ATOM     38  C   UNL     1      -4.053   3.453 126.171  0.00  0.00    +0.000 C 
ATOM     39  C   UNL     1      -3.967   1.972 126.562  0.00  0.00    +0.000 C 
ATOM     40  C   UNL     1      -2.718   3.979 126.691  0.00  0.00    +0.000 C 
ENDBRANCH  27  38
TORSDOF 2
ENDMDL
MODEL 2
REMARK VINA RESULT:      -8.8      1.655      1.887
REMARK  Name = Romidepsin
REMARK  7 active torsions:
REMARK  status: ('A' for Active; 'I' for Inactive)
REMARK    1  A    between atoms: C_1  and  C_2
REMARK    2  A    between atoms: C_20  and  C_21
REMARK    3  A    between atoms: C_21  and  C_22
REMARK    4  A    between atoms: C_21  and  C_23
REMARK    5  A    between atoms: C_30  and  C_34
REMARK    6  A    between atoms: C_34  and  C_35
REMARK    7  A    between atoms: C_34  and  C_36
REMARK                            x       y       z     vdW  Elec       q    Type
REMARK                         _______ _______ _______ _____ _____    ______ ____
ROOT
ATOM      1  C   UNL     1      -5.296   1.661 132.209  0.00  0.00    +0.000 C 
ATOM      2  C   UNL     1      -4.360   1.155 131.157  0.00  0.00    +0.000 C 
ATOM      3  C   UNL     1      -4.845   1.120 129.908  0.00  0.00    +0.000 C 
ATOM      4  N   UNL     1      -4.538   0.056 129.084  0.00  0.00    +0.000 N 
ATOM      5  C   UNL     1      -5.356  -0.924 128.611  0.00  0.00    +0.000 C 
ATOM      6  O   UNL     1      -5.227  -1.059 127.392  0.00  0.00    +0.000 OA
ATOM      7  C   UNL     1      -6.156  -2.032 129.391  0.00  0.00    +0.000 C 
ATOM      8  C   UNL     1      -6.336  -1.804 131.191  0.00  0.00    +0.000 C 
ATOM      9  S   UNL     1      -7.478  -0.951 132.415  0.00  0.00    +0.000 S 
ATOM     10  S   UNL     1      -8.930   0.021 131.430  0.00  0.00    +0.000 S 
ATOM     11  C   UNL     1      -8.201   1.507 130.584  0.00  0.00    +0.000 C 
ATOM     12  C   UNL     1      -7.984   1.141 129.163  0.00  0.00    +0.000 C 
ATOM     13  C   UNL     1      -8.398   2.057 127.975  0.00  0.00    +0.000 C 
ATOM     14  C   UNL     1      -7.893   2.095 126.686  0.00  0.00    +0.000 C 
ATOM     15  C   UNL     1      -8.385   2.812 125.400  0.00  0.00    +0.000 C 
ATOM     16  C   UNL     1      -8.307   1.875 123.901  0.00  0.00    +0.000 C 
ATOM     17  C   UNL     1      -9.034   0.328 123.515  0.00  0.00    +0.000 C 
ATOM     18  O   UNL     1     -10.119   0.363 122.905  0.00  0.00    +0.000 OA
ATOM     19  N   UNL     1      -8.506  -0.997 123.903  0.00  0.00    +0.000 N 
ATOM     20  C   UNL     1      -8.465  -1.712 125.457  0.00  0.00    +0.000 C 
ATOM     21  C   UNL     1      -7.105  -2.572 126.453  0.00  0.00    +0.000 C 
ATOM     22  O   UNL     1      -6.048  -2.836 125.776  0.00  0.00    +0.000 OA
ATOM     23  N   UNL     1      -7.082  -2.895 128.094  0.00  0.00    +0.000 N 
ATOM     24  O   UNL     1      -7.633   4.080 125.465  0.00  0.00    +0.000 OA
ATOM     25  C   UNL     1      -7.382   4.465 126.787  0.00  0.00    +0.000 C 
ATOM     26  O   UNL     1      -8.289   4.879 127.515  0.00  0.00    +0.000 OA
ATOM     27  C   UNL     1      -5.933   3.940 127.364  0.00  0.00    +0.000 C 
ATOM     28  N   UNL     1      -5.943   2.849 128.421  0.00  0.00    +0.000 N 
ATOM     29  C   UNL     1      -5.005   2.590 129.382  0.00  0.00    +0.000 C 
ATOM     30  O   UNL     1      -4.353   3.508 129.871  0.00  0.00    +0.000 OA
ATOM     31  H   UNL     1      -3.628  -0.366 129.205  0.00  0.00    +0.000 HD
ATOM     32  H   UNL     1      -7.696  -1.242 123.354  0.00  0.00    +0.000 HD
ATOM     33  H   UNL     1      -7.983  -3.226 128.434  0.00  0.00    +0.000 HD
ATOM     34  H   UNL     1      -6.795   2.986 128.932  0.00  0.00    +0.000 HD
ENDROOT
BRANCH  20  35
ATOM     35  C   UNL     1      -8.497  -0.375 126.016  0.00  0.00    +0.000 C 
ATOM     36  C   UNL     1      -8.119  -0.552 127.365  0.00  0.00    +0.000 C 
ATOM     37  C   UNL     1      -9.868   0.402 126.139  0.00  0.00    +0.000 C 
ENDBRANCH  20  35
BRANCH  27  38
ATOM     38  C   UNL     1      -4.900   3.560 126.255  0.00  0.00    +0.000 C 
ATOM     39  C   UNL     1      -4.490   2.099 126.018  0.00  0.00    +0.000 C 
ATOM     40  C   UNL     1      -3.546   4.212 126.519  0.00  0.00    +0.000 C 
ENDBRANCH  27  38
TORSDOF 2
ENDMDL
MODEL 3
REMARK VINA RESULT:      -8.7      1.455      1.663
REMARK  Name = Romidepsin
REMARK  7 active torsions:
REMARK  status: ('A' for Active; 'I' for Inactive)
REMARK    1  A    between atoms: C_1  and  C_2
REMARK    2  A    between atoms: C_20  and  C_21
REMARK    3  A    between atoms: C_21  and  C_22
REMARK    4  A    between atoms: C_21  and  C_23
REMARK    5  A    between atoms: C_30  and  C_34
REMARK    6  A    between atoms: C_34  and  C_35
REMARK    7  A    between atoms: C_34  and  C_36
REMARK                            x       y       z     vdW  Elec       q    Type
REMARK                         _______ _______ _______ _____ _____    ______ ____
ROOT
ATOM      1  C   UNL     1      -6.696   6.469 131.821  0.00  0.00    +0.000 C 
ATOM      2  C   UNL     1      -5.618   5.436 131.927  0.00  0.00    +0.000 C 
ATOM      3  C   UNL     1      -5.589   4.517 130.953  0.00  0.00    +0.000 C 
ATOM      4  N   UNL     1      -5.310   3.201 131.263  0.00  0.00    +0.000 N 
ATOM      5  C   UNL     1      -6.131   2.117 131.214  0.00  0.00    +0.000 C 
ATOM      6  O   UNL     1      -5.599   1.184 130.607  0.00  0.00    +0.000 OA
ATOM      7  C   UNL     1      -7.442   1.808 132.029  0.00  0.00    +0.000 C 
ATOM      8  C   UNL     1      -8.210   3.206 132.912  0.00  0.00    +0.000 C 
ATOM      9  S   UNL     1      -9.437   4.594 132.597  0.00  0.00    +0.000 S 
ATOM     10  S   UNL     1     -10.079   4.518 130.698  0.00  0.00    +0.000 S 
ATOM     11  C   UNL     1      -8.700   5.049 129.569  0.00  0.00    +0.000 C 
ATOM     12  C   UNL     1      -8.079   3.816 129.024  0.00  0.00    +0.000 C 
ATOM     13  C   UNL     1      -7.743   3.626 127.517  0.00  0.00    +0.000 C 
ATOM     14  C   UNL     1      -6.804   2.794 126.931  0.00  0.00    +0.000 C 
ATOM     15  C   UNL     1      -6.556   2.389 125.453  0.00  0.00    +0.000 C 
ATOM     16  C   UNL     1      -6.190   0.682 125.158  0.00  0.00    +0.000 C 
ATOM     17  C   UNL     1      -7.123  -0.744 125.566  0.00  0.00    +0.000 C 
ATOM     18  O   UNL     1      -7.844  -1.210 124.664  0.00  0.00    +0.000 OA
ATOM     19  N   UNL     1      -7.175  -1.394 126.891  0.00  0.00    +0.000 N 
ATOM     20  C   UNL     1      -7.921  -0.831 128.324  0.00  0.00    +0.000 C 
ATOM     21  C   UNL     1      -7.334  -0.674 130.116  0.00  0.00    +0.000 C 
ATOM     22  O   UNL     1      -6.221  -1.264 130.356  0.00  0.00    +0.000 OA
ATOM     23  N   UNL     1      -8.018   0.231 131.346  0.00  0.00    +0.000 N 
ATOM     24  O   UNL     1      -5.559   3.394 125.035  0.00  0.00    +0.000 OA
ATOM     25  C   UNL     1      -5.723   4.601 125.724  0.00  0.00    +0.000 C 
ATOM     26  O   UNL     1      -6.680   5.344 125.491  0.00  0.00    +0.000 OA
ATOM     27  C   UNL     1      -4.806   4.715 127.086  0.00  0.00    +0.000 C 
ATOM     28  N   UNL     1      -5.517   4.661 128.427  0.00  0.00    +0.000 N 
ATOM     29  C   UNL     1      -5.120   5.200 129.620  0.00  0.00    +0.000 C 
ATOM     30  O   UNL     1      -4.468   6.240 129.641  0.00  0.00    +0.000 OA
ATOM     31  H   UNL     1      -4.669   3.039 132.027  0.00  0.00    +0.000 HD
ATOM     32  H   UNL     1      -6.323  -1.898 127.084  0.00  0.00    +0.000 HD
ATOM     33  H   UNL     1      -9.034   0.171 131.349  0.00  0.00    +0.000 HD
ATOM     34  H   UNL     1      -6.423   5.059 128.261  0.00  0.00    +0.000 HD
ENDROOT
BRANCH  20  35
ATOM     35  C   UNL     1      -7.782   0.515 127.805  0.00  0.00    +0.000 C 
ATOM     36  C   UNL     1      -7.927   1.344 128.941  0.00  0.00    +0.000 C 
ATOM     37  C   UNL     1      -8.862   1.099 126.811  0.00  0.00    +0.000 C 
ENDBRANCH  20  35
BRANCH  27  38
ATOM     38  C   UNL     1      -3.585   3.740 127.122  0.00  0.00    +0.000 C 
ATOM     39  C   UNL     1      -3.536   2.566 128.109  0.00  0.00    +0.000 C 
ATOM     40  C   UNL     1      -2.300   4.483 127.474  0.00  0.00    +0.000 C 
ENDBRANCH  27  38
TORSDOF 2
ENDMDL
MODEL 4
REMARK VINA RESULT:      -8.6      2.568      6.099
REMARK  Name = Romidepsin
REMARK  7 active torsions:
REMARK  status: ('A' for Active; 'I' for Inactive)
REMARK    1  A    between atoms: C_1  and  C_2
REMARK    2  A    between atoms: C_20  and  C_21
REMARK    3  A    between atoms: C_21  and  C_22
REMARK    4  A    between atoms: C_21  and  C_23
REMARK    5  A    between atoms: C_30  and  C_34
REMARK    6  A    between atoms: C_34  and  C_35
REMARK    7  A    between atoms: C_34  and  C_36
REMARK                            x       y       z     vdW  Elec       q    Type
REMARK                         _______ _______ _______ _____ _____    ______ ____
ROOT
ATOM      1  C   UNL     1      -6.858  -1.383 127.801  0.00  0.00    +0.000 C 
ATOM      2  C   UNL     1      -7.767  -0.273 127.374  0.00  0.00    +0.000 C 
ATOM      3  C   UNL     1      -7.326   0.970 127.612  0.00  0.00    +0.000 C 
ATOM      4  N   UNL     1      -8.209   1.938 128.046  0.00  0.00    +0.000 N 
ATOM      5  C   UNL     1      -8.279   2.553 129.258  0.00  0.00    +0.000 C 
ATOM      6  O   UNL     1      -8.343   3.778 129.131  0.00  0.00    +0.000 OA
ATOM      7  C   UNL     1      -8.577   1.946 130.679  0.00  0.00    +0.000 C 
ATOM      8  C   UNL     1      -8.471   0.133 130.839  0.00  0.00    +0.000 C 
ATOM      9  S   UNL     1      -7.190  -1.196 131.190  0.00  0.00    +0.000 S 
ATOM     10  S   UNL     1      -5.387  -0.356 131.447  0.00  0.00    +0.000 S 
ATOM     11  C   UNL     1      -4.765   0.261 129.806  0.00  0.00    +0.000 C 
ATOM     12  C   UNL     1      -5.034   1.720 129.755  0.00  0.00    +0.000 C 
ATOM     13  C   UNL     1      -3.978   2.763 129.290  0.00  0.00    +0.000 C 
ATOM     14  C   UNL     1      -4.177   4.031 128.767  0.00  0.00    +0.000 C 
ATOM     15  C   UNL     1      -3.197   5.201 128.485  0.00  0.00    +0.000 C 
ATOM     16  C   UNL     1      -3.763   6.821 128.922  0.00  0.00    +0.000 C 
ATOM     17  C   UNL     1      -4.305   7.431 130.472  0.00  0.00    +0.000 C 
ATOM     18  O   UNL     1      -3.458   8.034 131.156  0.00  0.00    +0.000 OA
ATOM     19  N   UNL     1      -5.648   7.237 131.056  0.00  0.00    +0.000 N 
ATOM     20  C   UNL     1      -6.337   5.803 131.687  0.00  0.00    +0.000 C 
ATOM     21  C   UNL     1      -7.998   4.937 131.420  0.00  0.00    +0.000 C 
ATOM     22  O   UNL     1      -8.858   5.639 130.779  0.00  0.00    +0.000 OA
ATOM     23  N   UNL     1      -8.407   3.359 131.801  0.00  0.00    +0.000 N 
ATOM     24  O   UNL     1      -2.836   4.949 127.076  0.00  0.00    +0.000 OA
ATOM     25  C   UNL     1      -2.874   3.584 126.770  0.00  0.00    +0.000 C 
ATOM     26  O   UNL     1      -2.019   2.808 127.206  0.00  0.00    +0.000 OA
ATOM     27  C   UNL     1      -4.319   3.082 126.163  0.00  0.00    +0.000 C 
ATOM     28  N   UNL     1      -5.186   2.196 127.038  0.00  0.00    +0.000 N 
ATOM     29  C   UNL     1      -6.124   1.278 126.651  0.00  0.00    +0.000 C 
ATOM     30  O   UNL     1      -5.983   0.657 125.601  0.00  0.00    +0.000 OA
ATOM     31  H   UNL     1      -9.158   1.876 127.702  0.00  0.00    +0.000 HD
ATOM     32  H   UNL     1      -6.335   7.811 130.591  0.00  0.00    +0.000 HD
ATOM     33  H   UNL     1      -8.042   3.076 132.708  0.00  0.00    +0.000 HD
ATOM     34  H   UNL     1      -4.543   1.674 127.604  0.00  0.00    +0.000 HD
ENDROOT
BRANCH  20  35
ATOM     35  C   UNL     1      -5.427   5.056 130.841  0.00  0.00    +0.000 C 
ATOM     36  C   UNL     1      -6.251   4.535 129.818  0.00  0.00    +0.000 C 
ATOM     37  C   UNL     1      -4.704   3.766 131.396  0.00  0.00    +0.000 C 
ENDBRANCH  20  35
BRANCH  27  38
ATOM     38  C   UNL     1      -5.201   4.230 125.574  0.00  0.00    +0.000 C 
ATOM     39  C   UNL     1      -6.620   4.489 126.097  0.00  0.00    +0.000 C 
ATOM     40  C   UNL     1      -5.465   4.011 124.087  0.00  0.00    +0.000 C 
ENDBRANCH  27  38
TORSDOF 2
ENDMDL
MODEL 5
REMARK VINA RESULT:      -8.6      3.454      5.225
REMARK  Name = Romidepsin
REMARK  7 active torsions:
REMARK  status: ('A' for Active; 'I' for Inactive)
REMARK    1  A    between atoms: C_1  and  C_2
REMARK    2  A    between atoms: C_20  and  C_21
REMARK    3  A    between atoms: C_21  and  C_22
REMARK    4  A    between atoms: C_21  and  C_23
REMARK    5  A    between atoms: C_30  and  C_34
REMARK    6  A    between atoms: C_34  and  C_35
REMARK    7  A    between atoms: C_34  and  C_36
REMARK                            x       y       z     vdW  Elec       q    Type
REMARK                         _______ _______ _______ _____ _____    ______ ____
ROOT
ATOM      1  C   UNL     1      -6.869   5.721 135.345  0.00  0.00    +0.000 C 
ATOM      2  C   UNL     1      -5.693   4.796 135.359  0.00  0.00    +0.000 C 
ATOM      3  C   UNL     1      -5.075   4.616 134.184  0.00  0.00    +0.000 C 
ATOM      4  N   UNL     1      -4.620   3.360 133.836  0.00  0.00    +0.000 N 
ATOM      5  C   UNL     1      -5.069   2.527 132.858  0.00  0.00    +0.000 C 
ATOM      6  O   UNL     1      -4.137   2.111 132.166  0.00  0.00    +0.000 OA
ATOM      7  C   UNL     1      -6.472   1.831 132.693  0.00  0.00    +0.000 C 
ATOM      8  C   UNL     1      -7.833   2.469 133.725  0.00  0.00    +0.000 C 
ATOM      9  S   UNL     1      -9.150   3.809 133.681  0.00  0.00    +0.000 S 
ATOM     10  S   UNL     1      -8.990   4.869 131.986  0.00  0.00    +0.000 S 
ATOM     11  C   UNL     1      -7.462   5.926 132.073  0.00  0.00    +0.000 C 
ATOM     12  C   UNL     1      -6.400   5.228 131.307  0.00  0.00    +0.000 C 
ATOM     13  C   UNL     1      -5.486   5.944 130.272  0.00  0.00    +0.000 C 
ATOM     14  C   UNL     1      -4.223   5.588 129.831  0.00  0.00    +0.000 C 
ATOM     15  C   UNL     1      -3.345   6.114 128.663  0.00  0.00    +0.000 C 
ATOM     16  C   UNL     1      -2.489   4.891 127.712  0.00  0.00    +0.000 C 
ATOM     17  C   UNL     1      -3.127   3.517 126.832  0.00  0.00    +0.000 C 
ATOM     18  O   UNL     1      -3.318   3.680 125.612  0.00  0.00    +0.000 OA
ATOM     19  N   UNL     1      -3.513   2.217 127.420  0.00  0.00    +0.000 N 
ATOM     20  C   UNL     1      -4.858   1.857 128.415  0.00  0.00    +0.000 C 
ATOM     21  C   UNL     1      -5.047   0.927 130.052  0.00  0.00    +0.000 C 
ATOM     22  O   UNL     1      -3.998   0.281 130.411  0.00  0.00    +0.000 OA
ATOM     23  N   UNL     1      -6.343   0.961 131.109  0.00  0.00    +0.000 N 
ATOM     24  O   UNL     1      -2.543   7.151 129.342  0.00  0.00    +0.000 OA
ATOM     25  C   UNL     1      -3.245   7.734 130.403  0.00  0.00    +0.000 C 
ATOM     26  O   UNL     1      -4.194   8.496 130.199  0.00  0.00    +0.000 OA
ATOM     27  C   UNL     1      -2.967   7.012 131.856  0.00  0.00    +0.000 C 
ATOM     28  N   UNL     1      -4.094   6.203 132.473  0.00  0.00    +0.000 N 
ATOM     29  C   UNL     1      -4.321   5.936 133.796  0.00  0.00    +0.000 C 
ATOM     30  O   UNL     1      -4.002   6.754 134.654  0.00  0.00    +0.000 OA
ATOM     31  H   UNL     1      -4.296   2.768 134.588  0.00  0.00    +0.000 HD
ATOM     32  H   UNL     1      -2.701   1.676 127.673  0.00  0.00    +0.000 HD
ATOM     33  H   UNL     1      -7.237   0.933 130.623  0.00  0.00    +0.000 HD
ATOM     34  H   UNL     1      -4.938   6.644 132.158  0.00  0.00    +0.000 HD
ENDROOT
BRANCH  20  35
ATOM     35  C   UNL     1      -4.868   3.250 128.815  0.00  0.00    +0.000 C 
ATOM     36  C   UNL     1      -4.337   3.240 130.125  0.00  0.00    +0.000 C 
ATOM     37  C   UNL     1      -6.239   4.013 129.003  0.00  0.00    +0.000 C 
ENDBRANCH  20  35
BRANCH  27  38
ATOM     38  C   UNL     1      -1.651   6.171 131.913  0.00  0.00    +0.000 C 
ATOM     39  C   UNL     1      -1.661   4.713 132.391  0.00  0.00    +0.000 C 
ATOM     40  C   UNL     1      -0.643   6.795 132.874  0.00  0.00    +0.000 C 
ENDBRANCH  27  38
TORSDOF 2
ENDMDL
MODEL 6
REMARK VINA RESULT:      -8.5      3.707      7.483
REMARK  Name = Romidepsin
REMARK  7 active torsions:
REMARK  status: ('A' for Active; 'I' for Inactive)
REMARK    1  A    between atoms: C_1  and  C_2
REMARK    2  A    between atoms: C_20  and  C_21
REMARK    3  A    between atoms: C_21  and  C_22
REMARK    4  A    between atoms: C_21  and  C_23
REMARK    5  A    between atoms: C_30  and  C_34
REMARK    6  A    between atoms: C_34  and  C_35
REMARK    7  A    between atoms: C_34  and  C_36
REMARK                            x       y       z     vdW  Elec       q    Type
REMARK                         _______ _______ _______ _____ _____    ______ ____
ROOT
ATOM      1  C   UNL     1      -4.996   2.037 127.391  0.00  0.00    +0.000 C 
ATOM      2  C   UNL     1      -5.830   3.279 127.435  0.00  0.00    +0.000 C 
ATOM      3  C   UNL     1      -5.924   3.879 128.629  0.00  0.00    +0.000 C 
ATOM      4  N   UNL     1      -7.130   4.419 129.030  0.00  0.00    +0.000 N 
ATOM      5  C   UNL     1      -7.962   4.008 130.026  0.00  0.00    +0.000 C 
ATOM      6  O   UNL     1      -8.284   4.952 130.752  0.00  0.00    +0.000 OA
ATOM      7  C   UNL     1      -8.755   2.658 130.184  0.00  0.00    +0.000 C 
ATOM      8  C   UNL     1      -8.256   1.278 129.101  0.00  0.00    +0.000 C 
ATOM      9  S   UNL     1      -7.019  -0.135 129.069  0.00  0.00    +0.000 S 
ATOM     10  S   UNL     1      -5.895  -0.096 130.730  0.00  0.00    +0.000 S 
ATOM     11  C   UNL     1      -4.729   1.350 130.640  0.00  0.00    +0.000 C 
ATOM     12  C   UNL     1      -5.320   2.442 131.453  0.00  0.00    +0.000 C 
ATOM     13  C   UNL     1      -4.503   3.274 132.483  0.00  0.00    +0.000 C 
ATOM     14  C   UNL     1      -4.748   4.550 132.964  0.00  0.00    +0.000 C 
ATOM     15  C   UNL     1      -4.120   5.357 134.131  0.00  0.00    +0.000 C 
ATOM     16  C   UNL     1      -5.243   6.278 135.143  0.00  0.00    +0.000 C 
ATOM     17  C   UNL     1      -6.632   5.723 136.055  0.00  0.00    +0.000 C 
ATOM     18  O   UNL     1      -6.443   5.491 137.264  0.00  0.00    +0.000 OA
ATOM     19  N   UNL     1      -7.975   5.449 135.505  0.00  0.00    +0.000 N 
ATOM     20  C   UNL     1      -8.468   4.160 134.493  0.00  0.00    +0.000 C 
ATOM     21  C   UNL     1      -9.463   4.081 132.886  0.00  0.00    +0.000 C 
ATOM     22  O   UNL     1     -10.039   5.183 132.572  0.00  0.00    +0.000 OA
ATOM     23  N   UNL     1      -9.562   2.813 131.799  0.00  0.00    +0.000 N 
ATOM     24  O   UNL     1      -3.048   6.095 133.435  0.00  0.00    +0.000 OA
ATOM     25  C   UNL     1      -2.555   5.378 132.339  0.00  0.00    +0.000 C 
ATOM     26  O   UNL     1      -1.860   4.370 132.496  0.00  0.00    +0.000 OA
ATOM     27  C   UNL     1      -3.301   5.745 130.919  0.00  0.00    +0.000 C 
ATOM     28  N   UNL     1      -4.212   4.697 130.305  0.00  0.00    +0.000 N 
ATOM     29  C   UNL     1      -4.539   4.523 128.988  0.00  0.00    +0.000 C 
ATOM     30  O   UNL     1      -3.728   4.802 128.109  0.00  0.00    +0.000 OA
ATOM     31  H   UNL     1      -7.720   4.804 128.306  0.00  0.00    +0.000 HD
ATOM     32  H   UNL     1      -8.462   6.305 135.288  0.00  0.00    +0.000 HD
ATOM     33  H   UNL     1      -9.640   1.911 132.266  0.00  0.00    +0.000 HD
ATOM     34  H   UNL     1      -3.826   3.815 130.586  0.00  0.00    +0.000 HD
ENDROOT
BRANCH  20  35
ATOM     35  C   UNL     1      -7.094   4.056 134.045  0.00  0.00    +0.000 C 
ATOM     36  C   UNL     1      -7.127   4.518 132.710  0.00  0.00    +0.000 C 
ATOM     37  C   UNL     1      -6.409   2.639 133.904  0.00  0.00    +0.000 C 
ENDBRANCH  20  35
BRANCH  27  38
ATOM     38  C   UNL     1      -4.042   7.121 130.919  0.00  0.00    +0.000 C 
ATOM     39  C   UNL     1      -5.574   7.198 130.872  0.00  0.00    +0.000 C 
ATOM     40  C   UNL     1      -3.661   7.949 129.696  0.00  0.00    +0.000 C 
ENDBRANCH  27  38
TORSDOF 2
ENDMDL
MODEL 7
REMARK VINA RESULT:      -8.5      2.250      3.716
REMARK  Name = Romidepsin
REMARK  7 active torsions:
REMARK  status: ('A' for Active; 'I' for Inactive)
REMARK    1  A    between atoms: C_1  and  C_2
REMARK    2  A    between atoms: C_20  and  C_21
REMARK    3  A    between atoms: C_21  and  C_22
REMARK    4  A    between atoms: C_21  and  C_23
REMARK    5  A    between atoms: C_30  and  C_34
REMARK    6  A    between atoms: C_34  and  C_35
REMARK    7  A    between atoms: C_34  and  C_36
REMARK                            x       y       z     vdW  Elec       q    Type
REMARK                         _______ _______ _______ _____ _____    ______ ____
ROOT
ATOM      1  C   UNL     1      -6.371   6.901 131.162  0.00  0.00    +0.000 C 
ATOM      2  C   UNL     1      -5.155   6.032 131.243  0.00  0.00    +0.000 C 
ATOM      3  C   UNL     1      -5.316   4.761 130.852  0.00  0.00    +0.000 C 
ATOM      4  N   UNL     1      -4.696   3.745 131.552  0.00  0.00    +0.000 N 
ATOM      5  C   UNL     1      -5.253   2.775 132.326  0.00  0.00    +0.000 C 
ATOM      6  O   UNL     1      -4.818   1.662 132.024  0.00  0.00    +0.000 OA
ATOM      7  C   UNL     1      -6.081   2.901 133.659  0.00  0.00    +0.000 C 
ATOM      8  C   UNL     1      -6.717   4.557 134.080  0.00  0.00    +0.000 C 
ATOM      9  S   UNL     1      -8.213   5.640 133.740  0.00  0.00    +0.000 S 
ATOM     10  S   UNL     1      -9.489   4.680 132.526  0.00  0.00    +0.000 S 
ATOM     11  C   UNL     1      -8.758   4.601 130.818  0.00  0.00    +0.000 C 
ATOM     12  C   UNL     1      -8.161   3.252 130.657  0.00  0.00    +0.000 C 
ATOM     13  C   UNL     1      -8.382   2.368 129.396  0.00  0.00    +0.000 C 
ATOM     14  C   UNL     1      -7.588   1.349 128.896  0.00  0.00    +0.000 C 
ATOM     15  C   UNL     1      -7.836   0.290 127.789  0.00  0.00    +0.000 C 
ATOM     16  C   UNL     1      -7.287  -1.356 128.140  0.00  0.00    +0.000 C 
ATOM     17  C   UNL     1      -7.710  -2.410 129.473  0.00  0.00    +0.000 C 
ATOM     18  O   UNL     1      -8.612  -3.241 129.257  0.00  0.00    +0.000 OA
ATOM     19  N   UNL     1      -7.139  -2.355 130.835  0.00  0.00    +0.000 N 
ATOM     20  C   UNL     1      -7.391  -1.173 132.047  0.00  0.00    +0.000 C 
ATOM     21  C   UNL     1      -6.220  -0.192 133.163  0.00  0.00    +0.000 C 
ATOM     22  O   UNL     1      -5.007  -0.608 133.145  0.00  0.00    +0.000 OA
ATOM     23  N   UNL     1      -6.556   1.193 134.039  0.00  0.00    +0.000 N 
ATOM     24  O   UNL     1      -7.278   0.969 126.603  0.00  0.00    +0.000 OA
ATOM     25  C   UNL     1      -7.401   2.360 126.698  0.00  0.00    +0.000 C 
ATOM     26  O   UNL     1      -8.500   2.912 126.590  0.00  0.00    +0.000 OA
ATOM     27  C   UNL     1      -6.083   3.097 127.352  0.00  0.00    +0.000 C 
ATOM     28  N   UNL     1      -6.219   3.691 128.743  0.00  0.00    +0.000 N 
ATOM     29  C   UNL     1      -5.517   4.726 129.296  0.00  0.00    +0.000 C 
ATOM     30  O   UNL     1      -5.116   5.647 128.589  0.00  0.00    +0.000 OA
ATOM     31  H   UNL     1      -3.798   3.959 131.965  0.00  0.00    +0.000 HD
ATOM     32  H   UNL     1      -6.198  -2.715 130.851  0.00  0.00    +0.000 HD
ATOM     33  H   UNL     1      -7.467   1.151 134.493  0.00  0.00    +0.000 HD
ATOM     34  H   UNL     1      -7.180   3.970 128.817  0.00  0.00    +0.000 HD
ENDROOT
BRANCH  20  35
ATOM     35  C   UNL     1      -7.716  -0.235 130.991  0.00  0.00    +0.000 C 
ATOM     36  C   UNL     1      -6.584   0.607 130.913  0.00  0.00    +0.000 C 
ATOM     37  C   UNL     1      -8.901   0.793 131.178  0.00  0.00    +0.000 C 
ENDBRANCH  20  35
BRANCH  27  38
ATOM     38  C   UNL     1      -4.775   2.244 127.292  0.00  0.00    +0.000 C 
ATOM     39  C   UNL     1      -4.036   1.832 128.572  0.00  0.00    +0.000 C 
ATOM     40  C   UNL     1      -3.674   2.981 126.534  0.00  0.00    +0.000 C 
ENDBRANCH  27  38
TORSDOF 2
ENDMDL
MODEL 8
REMARK VINA RESULT:      -8.4      3.312      6.271
REMARK  Name = Romidepsin
REMARK  7 active torsions:
REMARK  status: ('A' for Active; 'I' for Inactive)
REMARK    1  A    between atoms: C_1  and  C_2
REMARK    2  A    between atoms: C_20  and  C_21
REMARK    3  A    between atoms: C_21  and  C_22
REMARK    4  A    between atoms: C_21  and  C_23
REMARK    5  A    between atoms: C_30  and  C_34
REMARK    6  A    between atoms: C_34  and  C_35
REMARK    7  A    between atoms: C_34  and  C_36
REMARK                            x       y       z     vdW  Elec       q    Type
REMARK                         _______ _______ _______ _____ _____    ______ ____
ROOT
ATOM      1  C   UNL     1      -7.156   4.960 135.561  0.00  0.00    +0.000 C 
ATOM      2  C   UNL     1      -7.594   5.869 134.456  0.00  0.00    +0.000 C 
ATOM      3  C   UNL     1      -7.423   5.402 133.211  0.00  0.00    +0.000 C 
ATOM      4  N   UNL     1      -6.998   6.257 132.213  0.00  0.00    +0.000 N 
ATOM      5  C   UNL     1      -5.810   6.275 131.550  0.00  0.00    +0.000 C 
ATOM      6  O   UNL     1      -5.984   6.327 130.330  0.00  0.00    +0.000 OA
ATOM      7  C   UNL     1      -4.355   6.530 132.095  0.00  0.00    +0.000 C 
ATOM      8  C   UNL     1      -4.126   6.442 133.902  0.00  0.00    +0.000 C 
ATOM      9  S   UNL     1      -3.768   5.168 135.234  0.00  0.00    +0.000 S 
ATOM     10  S   UNL     1      -3.609   3.345 134.411  0.00  0.00    +0.000 S 
ATOM     11  C   UNL     1      -5.293   2.775 133.869  0.00  0.00    +0.000 C 
ATOM     12  C   UNL     1      -5.394   3.025 132.410  0.00  0.00    +0.000 C 
ATOM     13  C   UNL     1      -5.938   1.973 131.401  0.00  0.00    +0.000 C 
ATOM     14  C   UNL     1      -6.504   2.174 130.153  0.00  0.00    +0.000 C 
ATOM     15  C   UNL     1      -6.868   1.189 129.010  0.00  0.00    +0.000 C 
ATOM     16  C   UNL     1      -6.477   1.717 127.366  0.00  0.00    +0.000 C 
ATOM     17  C   UNL     1      -4.935   2.196 126.686  0.00  0.00    +0.000 C 
ATOM     18  O   UNL     1      -4.306   1.316 126.068  0.00  0.00    +0.000 OA
ATOM     19  N   UNL     1      -4.297   3.519 126.837  0.00  0.00    +0.000 N 
ATOM     20  C   UNL     1      -3.584   4.204 128.234  0.00  0.00    +0.000 C 
ATOM     21  C   UNL     1      -3.757   5.885 129.086  0.00  0.00    +0.000 C 
ATOM     22  O   UNL     1      -4.396   6.758 128.397  0.00  0.00    +0.000 OA
ATOM     23  N   UNL     1      -3.299   6.301 130.640  0.00  0.00    +0.000 N 
ATOM     24  O   UNL     1      -8.277   0.882 129.323  0.00  0.00    +0.000 OA
ATOM     25  C   UNL     1      -8.526   0.949 130.698  0.00  0.00    +0.000 C 
ATOM     26  O   UNL     1      -8.090   0.089 131.469  0.00  0.00    +0.000 OA
ATOM     27  C   UNL     1      -9.061   2.421 131.203  0.00  0.00    +0.000 C 
ATOM     28  N   UNL     1      -8.121   3.269 132.041  0.00  0.00    +0.000 N 
ATOM     29  C   UNL     1      -8.437   4.232 132.960  0.00  0.00    +0.000 C 
ATOM     30  O   UNL     1      -9.466   4.137 133.623  0.00  0.00    +0.000 OA
ATOM     31  H   UNL     1      -7.305   7.218 132.276  0.00  0.00    +0.000 HD
ATOM     32  H   UNL     1      -4.760   4.214 126.271  0.00  0.00    +0.000 HD
ATOM     33  H   UNL     1      -2.394   5.908 130.893  0.00  0.00    +0.000 HD
ATOM     34  H   UNL     1      -7.557   2.613 132.549  0.00  0.00    +0.000 HD
ENDROOT
BRANCH  20  35
ATOM     35  C   UNL     1      -4.431   3.335 129.027  0.00  0.00    +0.000 C 
ATOM     36  C   UNL     1      -4.426   3.923 130.312  0.00  0.00    +0.000 C 
ATOM     37  C   UNL     1      -3.987   1.848 129.324  0.00  0.00    +0.000 C 
ENDBRANCH  20  35
BRANCH  27  38
ATOM     38  C   UNL     1      -9.665   3.309 130.067  0.00  0.00    +0.000 C 
ATOM     39  C   UNL     1      -8.993   4.622 129.643  0.00  0.00    +0.000 C 
ATOM     40  C   UNL     1     -11.065   3.793 130.434  0.00  0.00    +0.000 C 
ENDBRANCH  27  38
TORSDOF 2
ENDMDL
MODEL 9
REMARK VINA RESULT:      -8.4      1.716      2.246
REMARK  Name = Romidepsin
REMARK  7 active torsions:
REMARK  status: ('A' for Active; 'I' for Inactive)
REMARK    1  A    between atoms: C_1  and  C_2
REMARK    2  A    between atoms: C_20  and  C_21
REMARK    3  A    between atoms: C_21  and  C_22
REMARK    4  A    between atoms: C_21  and  C_23
REMARK    5  A    between atoms: C_30  and  C_34
REMARK    6  A    between atoms: C_34  and  C_35
REMARK    7  A    between atoms: C_34  and  C_36
REMARK                            x       y       z     vdW  Elec       q    Type
REMARK                         _______ _______ _______ _____ _____    ______ ____
ROOT
ATOM      1  C   UNL     1      -4.668   6.264 130.762  0.00  0.00    +0.000 C 
ATOM      2  C   UNL     1      -3.720   5.337 130.067  0.00  0.00    +0.000 C 
ATOM      3  C   UNL     1      -4.280   4.412 129.276  0.00  0.00    +0.000 C 
ATOM      4  N   UNL     1      -3.765   3.131 129.251  0.00  0.00    +0.000 N 
ATOM      5  C   UNL     1      -4.322   1.976 129.705  0.00  0.00    +0.000 C 
ATOM      6  O   UNL     1      -4.263   1.089 128.851  0.00  0.00    +0.000 OA
ATOM      7  C   UNL     1      -4.722   1.558 131.169  0.00  0.00    +0.000 C 
ATOM      8  C   UNL     1      -4.807   2.890 132.412  0.00  0.00    +0.000 C 
ATOM      9  S   UNL     1      -6.031   4.154 133.068  0.00  0.00    +0.000 S 
ATOM     10  S   UNL     1      -7.770   3.996 132.081  0.00  0.00    +0.000 S 
ATOM     11  C   UNL     1      -7.547   4.637 130.350  0.00  0.00    +0.000 C 
ATOM     12  C   UNL     1      -7.357   3.460 129.466  0.00  0.00    +0.000 C 
ATOM     13  C   UNL     1      -8.103   3.284 128.112  0.00  0.00    +0.000 C 
ATOM     14  C   UNL     1      -7.736   2.534 127.006  0.00  0.00    +0.000 C 
ATOM     15  C   UNL     1      -8.510   2.135 125.722  0.00  0.00    +0.000 C 
ATOM     16  C   UNL     1      -8.306   0.466 125.169  0.00  0.00    +0.000 C 
ATOM     17  C   UNL     1      -8.614  -1.035 126.020  0.00  0.00    +0.000 C 
ATOM     18  O   UNL     1      -9.714  -1.576 125.806  0.00  0.00    +0.000 OA
ATOM     19  N   UNL     1      -7.715  -1.670 127.005  0.00  0.00    +0.000 N 
ATOM     20  C   UNL     1      -7.351  -1.160 128.598  0.00  0.00    +0.000 C 
ATOM     21  C   UNL     1      -5.730  -0.928 129.546  0.00  0.00    +0.000 C 
ATOM     22  O   UNL     1      -4.702  -1.410 128.951  0.00  0.00    +0.000 OA
ATOM     23  N   UNL     1      -5.483  -0.074 130.964  0.00  0.00    +0.000 N 
ATOM     24  O   UNL     1      -8.130   3.222 124.799  0.00  0.00    +0.000 OA
ATOM     25  C   UNL     1      -7.884   4.418 125.484  0.00  0.00    +0.000 C 
ATOM     26  O   UNL     1      -8.805   5.066 125.988  0.00  0.00    +0.000 OA
ATOM     27  C   UNL     1      -6.304   4.633 125.890  0.00  0.00    +0.000 C 
ATOM     28  N   UNL     1      -5.928   4.531 127.358  0.00  0.00    +0.000 N 
ATOM     29  C   UNL     1      -4.878   5.118 128.009  0.00  0.00    +0.000 C 
ATOM     30  O   UNL     1      -4.462   6.214 127.644  0.00  0.00    +0.000 OA
ATOM     31  H   UNL     1      -2.768   3.039 129.383  0.00  0.00    +0.000 HD
ATOM     32  H   UNL     1      -6.918  -2.092 126.554  0.00  0.00    +0.000 HD
ATOM     33  H   UNL     1      -6.228  -0.228 131.640  0.00  0.00    +0.000 HD
ATOM     34  H   UNL     1      -6.739   4.841 127.860  0.00  0.00    +0.000 HD
ENDROOT
BRANCH  20  35
ATOM     35  C   UNL     1      -7.700   0.186 128.190  0.00  0.00    +0.000 C 
ATOM     36  C   UNL     1      -6.455   0.815 127.962  0.00  0.00    +0.000 C 
ATOM     37  C   UNL     1      -8.403   1.168 129.208  0.00  0.00    +0.000 C 
ENDBRANCH  20  35
BRANCH  27  38
ATOM     38  C   UNL     1      -5.302   3.775 125.051  0.00  0.00    +0.000 C 
ATOM     39  C   UNL     1      -3.833   3.634 125.471  0.00  0.00    +0.000 C 
ATOM     40  C   UNL     1      -5.158   4.327 123.636  0.00  0.00    +0.000 C 
ENDBRANCH  27  38
TORSDOF 2
ENDMDL
