MODEL 1
REMARK VINA RESULT:      -6.8      0.000      0.000
REMARK  Name = Ropinirole
REMARK  9 active torsions:
REMARK  status: ('A' for Active; 'I' for Inactive)
REMARK    1  A    between atoms: C_1  and  C_2
REMARK    2  A    between atoms: C_2  and  C_3
REMARK    3  A    between atoms: C_3  and  N_4
REMARK    4  A    between atoms: N_4  and  C_5
REMARK    5  A    between atoms: N_4  and  C_8
REMARK    6  A    between atoms: C_5  and  C_6
REMARK    7  A    between atoms: C_6  and  C_7
REMARK    8  A    between atoms: C_8  and  C_9
REMARK    9  A    between atoms: C_9  and  C_10
REMARK                            x       y       z     vdW  Elec       q    Type
REMARK                         _______ _______ _______ _____ _____    ______ ____
ROOT
ATOM      1  C   UNL     1     -12.793   7.501 129.934  0.00  0.00    +0.000 A 
ATOM      2  C   UNL     1     -13.121   8.841 129.758  0.00  0.00    +0.000 A 
ATOM      3  C   UNL     1     -12.994  10.009 130.698  0.00  0.00    +0.000 C 
ATOM      4  C   UNL     1     -13.517  11.171 129.856  0.00  0.00    +0.000 C 
ATOM      5  O   UNL     1     -13.603  12.328 130.202  0.00  0.00    +0.000 OA
ATOM      6  N   UNL     1     -13.839  10.656 128.604  0.00  0.00    +0.000 N 
ATOM      7  C   UNL     1     -13.622   9.289 128.542  0.00  0.00    +0.000 A 
ATOM      8  C   UNL     1     -13.831   8.445 127.474  0.00  0.00    +0.000 A 
ATOM      9  C   UNL     1     -13.545   7.089 127.653  0.00  0.00    +0.000 A 
ATOM     10  C   UNL     1     -13.040   6.617 128.875  0.00  0.00    +0.000 A 
ATOM     11  H   UNL     1     -14.180  11.234 127.853  0.00  0.00    +0.000 HD
ENDROOT
BRANCH   1  12
ATOM     12  C   UNL     1     -12.154   7.024 131.202  0.00  0.00    +0.000 C 
BRANCH  12  13
ATOM     13  C   UNL     1     -11.444   5.676 130.981  0.00  0.00    +0.000 C 
BRANCH  13  14
ATOM     14  N   UNL     1     -10.124   5.779 130.318  0.00  0.00    +0.000 NA
BRANCH  14  15
ATOM     15  C   UNL     1      -9.331   6.789 131.070  0.00  0.00    +0.000 C 
BRANCH  15  17
ATOM     16  C   UNL     1      -6.767   6.914 131.169  0.00  0.00    +0.000 C 
ATOM     17  C   UNL     1      -8.026   6.248 131.641  0.00  0.00    +0.000 C 
ENDBRANCH  15  17
ENDBRANCH  14  15
BRANCH  14  18
ATOM     18  C   UNL     1      -9.487   4.438 130.279  0.00  0.00    +0.000 C 
BRANCH  18  19
ATOM     19  C   UNL     1     -10.405   3.280 130.638  0.00  0.00    +0.000 C 
ATOM     20  C   UNL     1      -9.856   2.324 131.655  0.00  0.00    +0.000 C 
ENDBRANCH  18  19
ENDBRANCH  14  18
ENDBRANCH  13  14
ENDBRANCH  12  13
ENDBRANCH   1  12
TORSDOF 7
ENDMDL
MODEL 2
REMARK VINA RESULT:      -6.6      1.152      2.214
REMARK  Name = Ropinirole
REMARK  9 active torsions:
REMARK  status: ('A' for Active; 'I' for Inactive)
REMARK    1  A    between atoms: C_1  and  C_2
REMARK    2  A    between atoms: C_2  and  C_3
REMARK    3  A    between atoms: C_3  and  N_4
REMARK    4  A    between atoms: N_4  and  C_5
REMARK    5  A    between atoms: N_4  and  C_8
REMARK    6  A    between atoms: C_5  and  C_6
REMARK    7  A    between atoms: C_6  and  C_7
REMARK    8  A    between atoms: C_8  and  C_9
REMARK    9  A    between atoms: C_9  and  C_10
REMARK                            x       y       z     vdW  Elec       q    Type
REMARK                         _______ _______ _______ _____ _____    ______ ____
ROOT
ATOM      1  C   UNL     1     -12.671   7.339 129.968  0.00  0.00    +0.000 A 
ATOM      2  C   UNL     1     -13.011   8.677 129.807  0.00  0.00    +0.000 A 
ATOM      3  C   UNL     1     -12.936   9.827 130.773  0.00  0.00    +0.000 C 
ATOM      4  C   UNL     1     -13.444  10.999 129.935  0.00  0.00    +0.000 C 
ATOM      5  O   UNL     1     -13.559  12.148 130.300  0.00  0.00    +0.000 OA
ATOM      6  N   UNL     1     -13.712  10.504 128.662  0.00  0.00    +0.000 N 
ATOM      7  C   UNL     1     -13.473   9.142 128.582  0.00  0.00    +0.000 A 
ATOM      8  C   UNL     1     -13.631   8.317 127.491  0.00  0.00    +0.000 A 
ATOM      9  C   UNL     1     -13.333   6.961 127.654  0.00  0.00    +0.000 A 
ATOM     10  C   UNL     1     -12.866   6.472 128.884  0.00  0.00    +0.000 A 
ATOM     11  H   UNL     1     -14.034  11.093 127.910  0.00  0.00    +0.000 HD
ENDROOT
BRANCH   1  12
ATOM     12  C   UNL     1     -12.073   6.845 131.250  0.00  0.00    +0.000 C 
BRANCH  12  13
ATOM     13  C   UNL     1     -11.303   5.531 131.021  0.00  0.00    +0.000 C 
BRANCH  13  14
ATOM     14  N   UNL     1      -9.939   5.509 131.595  0.00  0.00    +0.000 NA
BRANCH  14  15
ATOM     15  C   UNL     1      -9.704   4.136 132.121  0.00  0.00    +0.000 C 
BRANCH  15  17
ATOM     16  C   UNL     1      -7.935   3.479 133.863  0.00  0.00    +0.000 C 
ATOM     17  C   UNL     1      -9.270   4.100 133.581  0.00  0.00    +0.000 C 
ENDBRANCH  15  17
ENDBRANCH  14  15
BRANCH  14  18
ATOM     18  C   UNL     1      -8.960   5.918 130.555  0.00  0.00    +0.000 C 
BRANCH  18  19
ATOM     19  C   UNL     1      -8.049   7.069 130.949  0.00  0.00    +0.000 C 
ATOM     20  C   UNL     1      -6.625   6.687 131.227  0.00  0.00    +0.000 C 
ENDBRANCH  18  19
ENDBRANCH  14  18
ENDBRANCH  13  14
ENDBRANCH  12  13
ENDBRANCH   1  12
TORSDOF 7
ENDMDL
MODEL 3
REMARK VINA RESULT:      -6.3     11.297     12.643
REMARK  Name = Ropinirole
REMARK  9 active torsions:
REMARK  status: ('A' for Active; 'I' for Inactive)
REMARK    1  A    between atoms: C_1  and  C_2
REMARK    2  A    between atoms: C_2  and  C_3
REMARK    3  A    between atoms: C_3  and  N_4
REMARK    4  A    between atoms: N_4  and  C_5
REMARK    5  A    between atoms: N_4  and  C_8
REMARK    6  A    between atoms: C_5  and  C_6
REMARK    7  A    between atoms: C_6  and  C_7
REMARK    8  A    between atoms: C_8  and  C_9
REMARK    9  A    between atoms: C_9  and  C_10
REMARK                            x       y       z     vdW  Elec       q    Type
REMARK                         _______ _______ _______ _____ _____    ______ ____
ROOT
ATOM      1  C   UNL     1      -7.171  -2.137 127.120  0.00  0.00    +0.000 A 
ATOM      2  C   UNL     1      -6.786  -2.413 128.427  0.00  0.00    +0.000 A 
ATOM      3  C   UNL     1      -5.627  -1.893 129.234  0.00  0.00    +0.000 C 
ATOM      4  C   UNL     1      -5.819  -2.593 130.578  0.00  0.00    +0.000 C 
ATOM      5  O   UNL     1      -5.115  -2.476 131.557  0.00  0.00    +0.000 OA
ATOM      6  N   UNL     1      -6.978  -3.358 130.479  0.00  0.00    +0.000 N 
ATOM      7  C   UNL     1      -7.543  -3.268 129.218  0.00  0.00    +0.000 A 
ATOM      8  C   UNL     1      -8.683  -3.887 128.754  0.00  0.00    +0.000 A 
ATOM      9  C   UNL     1      -9.056  -3.651 127.428  0.00  0.00    +0.000 A 
ATOM     10  C   UNL     1      -8.302  -2.791 126.613  0.00  0.00    +0.000 A 
ATOM     11  H   UNL     1      -7.338  -3.896 131.251  0.00  0.00    +0.000 HD
ENDROOT
BRANCH   1  12
ATOM     12  C   UNL     1      -6.424  -1.136 126.292  0.00  0.00    +0.000 C 
BRANCH  12  13
ATOM     13  C   UNL     1      -7.131  -0.910 124.943  0.00  0.00    +0.000 C 
BRANCH  13  14
ATOM     14  N   UNL     1      -6.347  -1.329 123.759  0.00  0.00    +0.000 NA
BRANCH  14  15
ATOM     15  C   UNL     1      -5.261  -2.225 124.245  0.00  0.00    +0.000 C 
BRANCH  15  17
ATOM     16  C   UNL     1      -4.303  -4.523 123.614  0.00  0.00    +0.000 C 
ATOM     17  C   UNL     1      -5.508  -3.702 123.964  0.00  0.00    +0.000 C 
ENDBRANCH  15  17
ENDBRANCH  14  15
BRANCH  14  18
ATOM     18  C   UNL     1      -7.249  -1.977 122.774  0.00  0.00    +0.000 C 
BRANCH  18  19
ATOM     19  C   UNL     1      -8.733  -1.849 123.082  0.00  0.00    +0.000 C 
ATOM     20  C   UNL     1      -9.464  -3.150 123.243  0.00  0.00    +0.000 C 
ENDBRANCH  18  19
ENDBRANCH  14  18
ENDBRANCH  13  14
ENDBRANCH  12  13
ENDBRANCH   1  12
TORSDOF 7
ENDMDL
MODEL 4
REMARK VINA RESULT:      -6.3      9.000     10.966
REMARK  Name = Ropinirole
REMARK  9 active torsions:
REMARK  status: ('A' for Active; 'I' for Inactive)
REMARK    1  A    between atoms: C_1  and  C_2
REMARK    2  A    between atoms: C_2  and  C_3
REMARK    3  A    between atoms: C_3  and  N_4
REMARK    4  A    between atoms: N_4  and  C_5
REMARK    5  A    between atoms: N_4  and  C_8
REMARK    6  A    between atoms: C_5  and  C_6
REMARK    7  A    between atoms: C_6  and  C_7
REMARK    8  A    between atoms: C_8  and  C_9
REMARK    9  A    between atoms: C_9  and  C_10
REMARK                            x       y       z     vdW  Elec       q    Type
REMARK                         _______ _______ _______ _____ _____    ______ ____
ROOT
ATOM      1  C   UNL     1      -7.497   0.751 125.115  0.00  0.00    +0.000 A 
ATOM      2  C   UNL     1      -7.696   1.608 124.038  0.00  0.00    +0.000 A 
ATOM      3  C   UNL     1      -6.707   2.237 123.095  0.00  0.00    +0.000 C 
ATOM      4  C   UNL     1      -7.606   3.036 122.154  0.00  0.00    +0.000 C 
ATOM      5  O   UNL     1      -7.246   3.715 121.218  0.00  0.00    +0.000 OA
ATOM      6  N   UNL     1      -8.920   2.806 122.552  0.00  0.00    +0.000 N 
ATOM      7  C   UNL     1      -8.981   1.980 123.663  0.00  0.00    +0.000 A 
ATOM      8  C   UNL     1     -10.102   1.543 124.334  0.00  0.00    +0.000 A 
ATOM      9  C   UNL     1      -9.912   0.715 125.444  0.00  0.00    +0.000 A 
ATOM     10  C   UNL     1      -8.621   0.330 125.839  0.00  0.00    +0.000 A 
ATOM     11  H   UNL     1      -9.709   3.201 122.067  0.00  0.00    +0.000 HD
ENDROOT
BRANCH   1  12
ATOM     12  C   UNL     1      -6.126   0.258 125.464  0.00  0.00    +0.000 C 
BRANCH  12  13
ATOM     13  C   UNL     1      -6.112  -1.278 125.575  0.00  0.00    +0.000 C 
BRANCH  13  14
ATOM     14  N   UNL     1      -6.506  -1.988 124.337  0.00  0.00    +0.000 NA
BRANCH  14  15
ATOM     15  C   UNL     1      -5.275  -2.609 123.775  0.00  0.00    +0.000 C 
BRANCH  15  17
ATOM     16  C   UNL     1      -4.103  -4.857 123.364  0.00  0.00    +0.000 C 
ATOM     17  C   UNL     1      -5.077  -4.063 124.183  0.00  0.00    +0.000 C 
ENDBRANCH  15  17
ENDBRANCH  14  15
BRANCH  14  18
ATOM     18  C   UNL     1      -7.573  -2.972 124.652  0.00  0.00    +0.000 C 
BRANCH  18  19
ATOM     19  C   UNL     1      -8.833  -2.844 123.811  0.00  0.00    +0.000 C 
ATOM     20  C   UNL     1      -8.770  -1.813 122.723  0.00  0.00    +0.000 C 
ENDBRANCH  18  19
ENDBRANCH  14  18
ENDBRANCH  13  14
ENDBRANCH  12  13
ENDBRANCH   1  12
TORSDOF 7
ENDMDL
MODEL 5
REMARK VINA RESULT:      -6.3      9.311     10.782
REMARK  Name = Ropinirole
REMARK  9 active torsions:
REMARK  status: ('A' for Active; 'I' for Inactive)
REMARK    1  A    between atoms: C_1  and  C_2
REMARK    2  A    between atoms: C_2  and  C_3
REMARK    3  A    between atoms: C_3  and  N_4
REMARK    4  A    between atoms: N_4  and  C_5
REMARK    5  A    between atoms: N_4  and  C_8
REMARK    6  A    between atoms: C_5  and  C_6
REMARK    7  A    between atoms: C_6  and  C_7
REMARK    8  A    between atoms: C_8  and  C_9
REMARK    9  A    between atoms: C_9  and  C_10
REMARK                            x       y       z     vdW  Elec       q    Type
REMARK                         _______ _______ _______ _____ _____    ______ ____
ROOT
ATOM      1  C   UNL     1      -6.827   3.573 122.173  0.00  0.00    +0.000 A 
ATOM      2  C   UNL     1      -7.499   3.848 120.987  0.00  0.00    +0.000 A 
ATOM      3  C   UNL     1      -8.953   3.701 120.631  0.00  0.00    +0.000 C 
ATOM      4  C   UNL     1      -8.994   4.199 119.188  0.00  0.00    +0.000 C 
ATOM      5  O   UNL     1      -9.972   4.267 118.478  0.00  0.00    +0.000 OA
ATOM      6  N   UNL     1      -7.701   4.597 118.857  0.00  0.00    +0.000 N 
ATOM      7  C   UNL     1      -6.817   4.382 119.901  0.00  0.00    +0.000 A 
ATOM      8  C   UNL     1      -5.466   4.647 119.935  0.00  0.00    +0.000 A 
ATOM      9  C   UNL     1      -4.773   4.335 121.108  0.00  0.00    +0.000 A 
ATOM     10  C   UNL     1      -5.444   3.793 122.215  0.00  0.00    +0.000 A 
ATOM     11  H   UNL     1      -7.471   4.994 117.960  0.00  0.00    +0.000 HD
ENDROOT
BRANCH   1  12
ATOM     12  C   UNL     1      -7.569   3.096 123.385  0.00  0.00    +0.000 C 
BRANCH  12  13
ATOM     13  C   UNL     1      -7.031   1.730 123.849  0.00  0.00    +0.000 C 
BRANCH  13  14
ATOM     14  N   UNL     1      -8.078   0.738 124.183  0.00  0.00    +0.000 NA
BRANCH  14  15
ATOM     15  C   UNL     1      -7.511  -0.171 125.216  0.00  0.00    +0.000 C 
BRANCH  15  17
ATOM     16  C   UNL     1      -9.076  -2.146 125.710  0.00  0.00    +0.000 C 
ATOM     17  C   UNL     1      -8.558  -0.801 126.125  0.00  0.00    +0.000 C 
ENDBRANCH  15  17
ENDBRANCH  14  15
BRANCH  14  18
ATOM     18  C   UNL     1      -9.304   1.447 124.630  0.00  0.00    +0.000 C 
BRANCH  18  19
ATOM     19  C   UNL     1     -10.512   1.274 123.724  0.00  0.00    +0.000 C 
ATOM     20  C   UNL     1     -10.262   0.482 122.474  0.00  0.00    +0.000 C 
ENDBRANCH  18  19
ENDBRANCH  14  18
ENDBRANCH  13  14
ENDBRANCH  12  13
ENDBRANCH   1  12
TORSDOF 7
ENDMDL
MODEL 6
REMARK VINA RESULT:      -6.3      2.530      5.952
REMARK  Name = Ropinirole
REMARK  9 active torsions:
REMARK  status: ('A' for Active; 'I' for Inactive)
REMARK    1  A    between atoms: C_1  and  C_2
REMARK    2  A    between atoms: C_2  and  C_3
REMARK    3  A    between atoms: C_3  and  N_4
REMARK    4  A    between atoms: N_4  and  C_5
REMARK    5  A    between atoms: N_4  and  C_8
REMARK    6  A    between atoms: C_5  and  C_6
REMARK    7  A    between atoms: C_6  and  C_7
REMARK    8  A    between atoms: C_8  and  C_9
REMARK    9  A    between atoms: C_9  and  C_10
REMARK                            x       y       z     vdW  Elec       q    Type
REMARK                         _______ _______ _______ _____ _____    ______ ____
ROOT
ATOM      1  C   UNL     1     -11.052   5.921 130.442  0.00  0.00    +0.000 A 
ATOM      2  C   UNL     1      -9.669   6.043 130.524  0.00  0.00    +0.000 A 
ATOM      3  C   UNL     1      -8.801   7.268 130.616  0.00  0.00    +0.000 C 
ATOM      4  C   UNL     1      -7.396   6.674 130.693  0.00  0.00    +0.000 C 
ATOM      5  O   UNL     1      -6.357   7.291 130.781  0.00  0.00    +0.000 OA
ATOM      6  N   UNL     1      -7.537   5.289 130.682  0.00  0.00    +0.000 N 
ATOM      7  C   UNL     1      -8.865   4.912 130.570  0.00  0.00    +0.000 A 
ATOM      8  C   UNL     1      -9.382   3.636 130.522  0.00  0.00    +0.000 A 
ATOM      9  C   UNL     1     -10.767   3.501 130.397  0.00  0.00    +0.000 A 
ATOM     10  C   UNL     1     -11.596   4.633 130.347  0.00  0.00    +0.000 A 
ATOM     11  H   UNL     1      -6.749   4.665 130.754  0.00  0.00    +0.000 HD
ENDROOT
BRANCH   1  12
ATOM     12  C   UNL     1     -11.936   7.129 130.498  0.00  0.00    +0.000 C 
BRANCH  12  13
ATOM     13  C   UNL     1     -13.174   6.939 129.602  0.00  0.00    +0.000 C 
BRANCH  13  14
ATOM     14  N   UNL     1     -13.315   7.946 128.526  0.00  0.00    +0.000 NA
BRANCH  14  15
ATOM     15  C   UNL     1     -12.733   9.219 129.035  0.00  0.00    +0.000 C 
BRANCH  15  17
ATOM     16  C   UNL     1     -13.584  11.379 130.133  0.00  0.00    +0.000 C 
ATOM     17  C   UNL     1     -13.700  10.395 129.007  0.00  0.00    +0.000 C 
ENDBRANCH  15  17
ENDBRANCH  14  15
BRANCH  14  18
ATOM     18  C   UNL     1     -12.654   7.447 127.294  0.00  0.00    +0.000 C 
BRANCH  18  19
ATOM     19  C   UNL     1     -11.234   7.946 127.080  0.00  0.00    +0.000 C 
ATOM     20  C   UNL     1     -10.217   6.876 126.813  0.00  0.00    +0.000 C 
ENDBRANCH  18  19
ENDBRANCH  14  18
ENDBRANCH  13  14
ENDBRANCH  12  13
ENDBRANCH   1  12
TORSDOF 7
ENDMDL
MODEL 7
REMARK VINA RESULT:      -6.2      9.328     11.203
REMARK  Name = Ropinirole
REMARK  9 active torsions:
REMARK  status: ('A' for Active; 'I' for Inactive)
REMARK    1  A    between atoms: C_1  and  C_2
REMARK    2  A    between atoms: C_2  and  C_3
REMARK    3  A    between atoms: C_3  and  N_4
REMARK    4  A    between atoms: N_4  and  C_5
REMARK    5  A    between atoms: N_4  and  C_8
REMARK    6  A    between atoms: C_5  and  C_6
REMARK    7  A    between atoms: C_6  and  C_7
REMARK    8  A    between atoms: C_8  and  C_9
REMARK    9  A    between atoms: C_9  and  C_10
REMARK                            x       y       z     vdW  Elec       q    Type
REMARK                         _______ _______ _______ _____ _____    ______ ____
ROOT
ATOM      1  C   UNL     1      -6.464   0.972 125.305  0.00  0.00    +0.000 A 
ATOM      2  C   UNL     1      -6.976   1.848 124.354  0.00  0.00    +0.000 A 
ATOM      3  C   UNL     1      -8.110   1.677 123.379  0.00  0.00    +0.000 C 
ATOM      4  C   UNL     1      -8.136   3.025 122.662  0.00  0.00    +0.000 C 
ATOM      5  O   UNL     1      -8.898   3.357 121.780  0.00  0.00    +0.000 OA
ATOM      6  N   UNL     1      -7.145   3.815 123.238  0.00  0.00    +0.000 N 
ATOM      7  C   UNL     1      -6.452   3.128 124.222  0.00  0.00    +0.000 A 
ATOM      8  C   UNL     1      -5.409   3.582 124.998  0.00  0.00    +0.000 A 
ATOM      9  C   UNL     1      -4.858   2.696 125.928  0.00  0.00    +0.000 A 
ATOM     10  C   UNL     1      -5.373   1.399 126.075  0.00  0.00    +0.000 A 
ATOM     11  H   UNL     1      -6.981   4.768 122.956  0.00  0.00    +0.000 HD
ENDROOT
BRANCH   1  12
ATOM     12  C   UNL     1      -7.087  -0.371 125.529  0.00  0.00    +0.000 C 
BRANCH  12  13
ATOM     13  C   UNL     1      -6.139  -1.495 125.072  0.00  0.00    +0.000 C 
BRANCH  13  14
ATOM     14  N   UNL     1      -6.669  -2.339 123.977  0.00  0.00    +0.000 NA
BRANCH  14  15
ATOM     15  C   UNL     1      -5.508  -2.765 123.148  0.00  0.00    +0.000 C 
BRANCH  15  17
ATOM     16  C   UNL     1      -4.243  -4.991 123.360  0.00  0.00    +0.000 C 
ATOM     17  C   UNL     1      -4.491  -3.614 123.901  0.00  0.00    +0.000 C 
ENDBRANCH  15  17
ENDBRANCH  14  15
BRANCH  14  18
ATOM     18  C   UNL     1      -7.429  -3.476 124.556  0.00  0.00    +0.000 C 
BRANCH  18  19
ATOM     19  C   UNL     1      -8.935  -3.406 124.363  0.00  0.00    +0.000 C 
ATOM     20  C   UNL     1      -9.385  -2.689 123.124  0.00  0.00    +0.000 C 
ENDBRANCH  18  19
ENDBRANCH  14  18
ENDBRANCH  13  14
ENDBRANCH  12  13
ENDBRANCH   1  12
TORSDOF 7
ENDMDL
MODEL 8
REMARK VINA RESULT:      -6.2      9.423     11.881
REMARK  Name = Ropinirole
REMARK  9 active torsions:
REMARK  status: ('A' for Active; 'I' for Inactive)
REMARK    1  A    between atoms: C_1  and  C_2
REMARK    2  A    between atoms: C_2  and  C_3
REMARK    3  A    between atoms: C_3  and  N_4
REMARK    4  A    between atoms: N_4  and  C_5
REMARK    5  A    between atoms: N_4  and  C_8
REMARK    6  A    between atoms: C_5  and  C_6
REMARK    7  A    between atoms: C_6  and  C_7
REMARK    8  A    between atoms: C_8  and  C_9
REMARK    9  A    between atoms: C_9  and  C_10
REMARK                            x       y       z     vdW  Elec       q    Type
REMARK                         _______ _______ _______ _____ _____    ______ ____
ROOT
ATOM      1  C   UNL     1      -7.368  -1.381 124.416  0.00  0.00    +0.000 A 
ATOM      2  C   UNL     1      -7.841  -2.058 125.534  0.00  0.00    +0.000 A 
ATOM      3  C   UNL     1      -7.500  -1.896 126.991  0.00  0.00    +0.000 C 
ATOM      4  C   UNL     1      -8.394  -2.939 127.659  0.00  0.00    +0.000 C 
ATOM      5  O   UNL     1      -8.464  -3.174 128.845  0.00  0.00    +0.000 OA
ATOM      6  N   UNL     1      -9.142  -3.542 126.651  0.00  0.00    +0.000 N 
ATOM      7  C   UNL     1      -8.814  -3.040 125.402  0.00  0.00    +0.000 A 
ATOM      8  C   UNL     1      -9.340  -3.399 124.180  0.00  0.00    +0.000 A 
ATOM      9  C   UNL     1      -8.841  -2.755 123.045  0.00  0.00    +0.000 A 
ATOM     10  C   UNL     1      -7.857  -1.761 123.159  0.00  0.00    +0.000 A 
ATOM     11  H   UNL     1      -9.833  -4.250 126.840  0.00  0.00    +0.000 HD
ENDROOT
BRANCH   1  12
ATOM     12  C   UNL     1      -6.397  -0.248 124.555  0.00  0.00    +0.000 C 
BRANCH  12  13
ATOM     13  C   UNL     1      -7.136   1.069 124.854  0.00  0.00    +0.000 C 
BRANCH  13  14
ATOM     14  N   UNL     1      -7.595   1.803 123.652  0.00  0.00    +0.000 NA
BRANCH  14  15
ATOM     15  C   UNL     1      -8.940   2.361 123.964  0.00  0.00    +0.000 C 
BRANCH  15  17
ATOM     16  C   UNL     1     -10.287   0.700 122.541  0.00  0.00    +0.000 C 
ATOM     17  C   UNL     1     -10.066   1.339 123.880  0.00  0.00    +0.000 C 
ENDBRANCH  15  17
ENDBRANCH  14  15
BRANCH  14  18
ATOM     18  C   UNL     1      -6.594   2.841 123.297  0.00  0.00    +0.000 C 
BRANCH  18  19
ATOM     19  C   UNL     1      -6.749   3.432 121.905  0.00  0.00    +0.000 C 
ATOM     20  C   UNL     1      -5.584   3.211 120.986  0.00  0.00    +0.000 C 
ENDBRANCH  18  19
ENDBRANCH  14  18
ENDBRANCH  13  14
ENDBRANCH  12  13
ENDBRANCH   1  12
TORSDOF 7
ENDMDL
MODEL 9
REMARK VINA RESULT:      -6.2      9.154     10.242
REMARK  Name = Ropinirole
REMARK  9 active torsions:
REMARK  status: ('A' for Active; 'I' for Inactive)
REMARK    1  A    between atoms: C_1  and  C_2
REMARK    2  A    between atoms: C_2  and  C_3
REMARK    3  A    between atoms: C_3  and  N_4
REMARK    4  A    between atoms: N_4  and  C_5
REMARK    5  A    between atoms: N_4  and  C_8
REMARK    6  A    between atoms: C_5  and  C_6
REMARK    7  A    between atoms: C_6  and  C_7
REMARK    8  A    between atoms: C_8  and  C_9
REMARK    9  A    between atoms: C_9  and  C_10
REMARK                            x       y       z     vdW  Elec       q    Type
REMARK                         _______ _______ _______ _____ _____    ______ ____
ROOT
ATOM      1  C   UNL     1      -8.247   1.413 124.957  0.00  0.00    +0.000 A 
ATOM      2  C   UNL     1      -8.216   2.154 123.782  0.00  0.00    +0.000 A 
ATOM      3  C   UNL     1      -9.223   2.263 122.669  0.00  0.00    +0.000 C 
ATOM      4  C   UNL     1      -8.559   3.255 121.716  0.00  0.00    +0.000 C 
ATOM      5  O   UNL     1      -9.010   3.656 120.666  0.00  0.00    +0.000 OA
ATOM      6  N   UNL     1      -7.357   3.642 122.302  0.00  0.00    +0.000 N 
ATOM      7  C   UNL     1      -7.142   2.991 123.506  0.00  0.00    +0.000 A 
ATOM      8  C   UNL     1      -6.066   3.116 124.357  0.00  0.00    +0.000 A 
ATOM      9  C   UNL     1      -6.066   2.343 125.521  0.00  0.00    +0.000 A 
ATOM     10  C   UNL     1      -7.142   1.491 125.816  0.00  0.00    +0.000 A 
ATOM     11  H   UNL     1      -6.742   4.318 121.879  0.00  0.00    +0.000 HD
ENDROOT
BRANCH   1  12
ATOM     12  C   UNL     1      -9.445   0.588 125.317  0.00  0.00    +0.000 C 
BRANCH  12  13
ATOM     13  C   UNL     1      -9.016  -0.792 125.849  0.00  0.00    +0.000 C 
BRANCH  13  14
ATOM     14  N   UNL     1      -9.475  -1.937 125.030  0.00  0.00    +0.000 NA
BRANCH  14  15
ATOM     15  C   UNL     1      -8.784  -1.842 123.714  0.00  0.00    +0.000 C 
BRANCH  15  17
ATOM     16  C   UNL     1      -6.483  -1.532 122.615  0.00  0.00    +0.000 C 
ATOM     17  C   UNL     1      -7.272  -2.009 123.799  0.00  0.00    +0.000 C 
ENDBRANCH  15  17
ENDBRANCH  14  15
BRANCH  14  18
ATOM     18  C   UNL     1      -9.196  -3.203 125.753  0.00  0.00    +0.000 C 
BRANCH  18  19
ATOM     19  C   UNL     1      -8.605  -3.032 127.144  0.00  0.00    +0.000 C 
ATOM     20  C   UNL     1      -9.048  -4.049 128.153  0.00  0.00    +0.000 C 
ENDBRANCH  18  19
ENDBRANCH  14  18
ENDBRANCH  13  14
ENDBRANCH  12  13
ENDBRANCH   1  12
TORSDOF 7
ENDMDL
