MODEL 1
REMARK VINA RESULT:      -6.7      0.000      0.000
REMARK  Name = Ropivacaine
REMARK  7 active torsions:
REMARK  status: ('A' for Active; 'I' for Inactive)
REMARK    1  A    between atoms: C_1  and  C_2
REMARK    2  A    between atoms: C_2  and  C_3
REMARK    3  A    between atoms: C_3  and  N_4
REMARK    4  A    between atoms: C_9  and  C_10
REMARK    5  A    between atoms: N_12  and  C_13
REMARK    6  A    between atoms: C_14  and  C_15
REMARK    7  A    between atoms: C_19  and  C_20
REMARK                            x       y       z     vdW  Elec       q    Type
REMARK                         _______ _______ _______ _____ _____    ______ ____
ROOT
ATOM      1  C   UNL     1      -8.496   0.220 125.720  0.00  0.00    +0.000 C 
ATOM      2  O   UNL     1      -9.594   0.301 126.292  0.00  0.00    +0.000 OA
ATOM      3  N   UNL     1      -7.567  -0.732 126.108  0.00  0.00    +0.000 N 
ATOM      4  H   UNL     1      -6.586  -0.533 125.969  0.00  0.00    +0.000 HD
ENDROOT
BRANCH   3   5
ATOM      5  C   UNL     1      -7.937  -1.666 127.118  0.00  0.00    +0.000 A 
ATOM      6  C   UNL     1      -7.612  -1.397 128.473  0.00  0.00    +0.000 A 
ATOM      7  C   UNL     1      -6.977  -0.113 128.955  0.00  0.00    +0.000 C 
ATOM      8  C   UNL     1      -7.896  -2.356 129.456  0.00  0.00    +0.000 A 
ATOM      9  C   UNL     1      -8.520  -3.549 129.121  0.00  0.00    +0.000 A 
ATOM     10  C   UNL     1      -8.867  -3.802 127.797  0.00  0.00    +0.000 A 
ATOM     11  C   UNL     1      -8.592  -2.869 126.779  0.00  0.00    +0.000 A 
ATOM     12  C   UNL     1      -8.934  -3.254 125.366  0.00  0.00    +0.000 C 
ENDBRANCH   3   5
BRANCH   1  18
ATOM     13  N   UNL     1      -7.803   0.423 123.295  0.00  0.00    +0.000 NA
ATOM     14  C   UNL     1      -8.974  -0.353 122.839  0.00  0.00    +0.000 C 
ATOM     15  C   UNL     1     -10.197   0.520 122.623  0.00  0.00    +0.000 C 
ATOM     16  C   UNL     1     -10.511   1.389 123.830  0.00  0.00    +0.000 C 
ATOM     17  C   UNL     1      -9.269   2.151 124.285  0.00  0.00    +0.000 C 
ATOM     18  C   UNL     1      -8.113   1.180 124.555  0.00  0.00    +0.000 C 
BRANCH  13  19
ATOM     19  C   UNL     1      -6.585  -0.404 123.459  0.00  0.00    +0.000 C 
BRANCH  19  21
ATOM     20  C   UNL     1      -5.717  -2.777 123.367  0.00  0.00    +0.000 C 
ATOM     21  C   UNL     1      -6.642  -1.757 122.742  0.00  0.00    +0.000 C 
ENDBRANCH  19  21
ENDBRANCH  13  19
ENDBRANCH   1  18
TORSDOF 4
ENDMDL
MODEL 2
REMARK VINA RESULT:      -6.7      3.192      6.562
REMARK  Name = Ropivacaine
REMARK  7 active torsions:
REMARK  status: ('A' for Active; 'I' for Inactive)
REMARK    1  A    between atoms: C_1  and  C_2
REMARK    2  A    between atoms: C_2  and  C_3
REMARK    3  A    between atoms: C_3  and  N_4
REMARK    4  A    between atoms: C_9  and  C_10
REMARK    5  A    between atoms: N_12  and  C_13
REMARK    6  A    between atoms: C_14  and  C_15
REMARK    7  A    between atoms: C_19  and  C_20
REMARK                            x       y       z     vdW  Elec       q    Type
REMARK                         _______ _______ _______ _____ _____    ______ ____
ROOT
ATOM      1  C   UNL     1      -8.075   1.600 123.607  0.00  0.00    +0.000 C 
ATOM      2  O   UNL     1      -7.173   0.917 123.097  0.00  0.00    +0.000 OA
ATOM      3  N   UNL     1      -8.111   2.972 123.419  0.00  0.00    +0.000 N 
ATOM      4  H   UNL     1      -8.538   3.545 124.134  0.00  0.00    +0.000 HD
ENDROOT
BRANCH   3   5
ATOM      5  C   UNL     1      -7.141   3.564 122.561  0.00  0.00    +0.000 A 
ATOM      6  C   UNL     1      -7.450   3.771 121.192  0.00  0.00    +0.000 A 
ATOM      7  C   UNL     1      -8.802   3.497 120.576  0.00  0.00    +0.000 C 
ATOM      8  C   UNL     1      -6.465   4.271 120.328  0.00  0.00    +0.000 A 
ATOM      9  C   UNL     1      -5.204   4.597 120.806  0.00  0.00    +0.000 A 
ATOM     10  C   UNL     1      -4.908   4.424 122.155  0.00  0.00    +0.000 A 
ATOM     11  C   UNL     1      -5.866   3.916 123.053  0.00  0.00    +0.000 A 
ATOM     12  C   UNL     1      -5.440   3.692 124.478  0.00  0.00    +0.000 C 
ENDBRANCH   3   5
BRANCH   1  18
ATOM     13  N   UNL     1      -9.075  -0.546 124.497  0.00  0.00    +0.000 NA
ATOM     14  C   UNL     1      -7.785  -0.972 125.077  0.00  0.00    +0.000 C 
ATOM     15  C   UNL     1      -7.570  -0.422 126.476  0.00  0.00    +0.000 C 
ATOM     16  C   UNL     1      -7.770   1.084 126.546  0.00  0.00    +0.000 C 
ATOM     17  C   UNL     1      -9.101   1.482 125.913  0.00  0.00    +0.000 C 
ATOM     18  C   UNL     1      -9.192   0.952 124.477  0.00  0.00    +0.000 C 
BRANCH  13  19
ATOM     19  C   UNL     1      -9.327  -1.117 123.155  0.00  0.00    +0.000 C 
BRANCH  19  21
ATOM     20  C   UNL     1      -9.659  -3.593 123.545  0.00  0.00    +0.000 C 
ATOM     21  C   UNL     1      -8.763  -2.528 122.955  0.00  0.00    +0.000 C 
ENDBRANCH  19  21
ENDBRANCH  13  19
ENDBRANCH   1  18
TORSDOF 4
ENDMDL
MODEL 3
REMARK VINA RESULT:      -6.5      7.222     10.105
REMARK  Name = Ropivacaine
REMARK  7 active torsions:
REMARK  status: ('A' for Active; 'I' for Inactive)
REMARK    1  A    between atoms: C_1  and  C_2
REMARK    2  A    between atoms: C_2  and  C_3
REMARK    3  A    between atoms: C_3  and  N_4
REMARK    4  A    between atoms: C_9  and  C_10
REMARK    5  A    between atoms: N_12  and  C_13
REMARK    6  A    between atoms: C_14  and  C_15
REMARK    7  A    between atoms: C_19  and  C_20
REMARK                            x       y       z     vdW  Elec       q    Type
REMARK                         _______ _______ _______ _____ _____    ______ ____
ROOT
ATOM      1  C   UNL     1      -8.994   6.144 130.054  0.00  0.00    +0.000 C 
ATOM      2  O   UNL     1      -8.699   7.308 130.367  0.00  0.00    +0.000 OA
ATOM      3  N   UNL     1     -10.267   5.837 129.601  0.00  0.00    +0.000 N 
ATOM      4  H   UNL     1     -10.624   4.904 129.760  0.00  0.00    +0.000 HD
ENDROOT
BRANCH   3   5
ATOM      5  C   UNL     1     -11.198   6.900 129.425  0.00  0.00    +0.000 A 
ATOM      6  C   UNL     1     -11.283   7.556 128.170  0.00  0.00    +0.000 A 
ATOM      7  C   UNL     1     -10.514   7.136 126.939  0.00  0.00    +0.000 C 
ATOM      8  C   UNL     1     -12.135   8.659 128.022  0.00  0.00    +0.000 A 
ATOM      9  C   UNL     1     -12.919   9.096 129.081  0.00  0.00    +0.000 A 
ATOM     10  C   UNL     1     -12.859   8.435 130.305  0.00  0.00    +0.000 A 
ATOM     11  C   UNL     1     -12.011   7.329 130.497  0.00  0.00    +0.000 A 
ATOM     12  C   UNL     1     -11.955   6.720 131.871  0.00  0.00    +0.000 C 
ENDBRANCH   3   5
BRANCH   1  18
ATOM     13  N   UNL     1      -7.508   4.778 131.579  0.00  0.00    +0.000 NA
ATOM     14  C   UNL     1      -8.644   4.413 132.450  0.00  0.00    +0.000 C 
ATOM     15  C   UNL     1      -9.375   3.177 131.958  0.00  0.00    +0.000 C 
ATOM     16  C   UNL     1      -9.775   3.281 130.495  0.00  0.00    +0.000 C 
ATOM     17  C   UNL     1      -8.580   3.686 129.636  0.00  0.00    +0.000 C 
ATOM     18  C   UNL     1      -7.959   4.986 130.161  0.00  0.00    +0.000 C 
BRANCH  13  19
ATOM     19  C   UNL     1      -6.749   5.950 132.073  0.00  0.00    +0.000 C 
BRANCH  19  21
ATOM     20  C   UNL     1      -5.124   7.310 130.693  0.00  0.00    +0.000 C 
ATOM     21  C   UNL     1      -5.325   6.058 131.517  0.00  0.00    +0.000 C 
ENDBRANCH  19  21
ENDBRANCH  13  19
ENDBRANCH   1  18
TORSDOF 4
ENDMDL
MODEL 4
REMARK VINA RESULT:      -6.5      1.586      2.750
REMARK  Name = Ropivacaine
REMARK  7 active torsions:
REMARK  status: ('A' for Active; 'I' for Inactive)
REMARK    1  A    between atoms: C_1  and  C_2
REMARK    2  A    between atoms: C_2  and  C_3
REMARK    3  A    between atoms: C_3  and  N_4
REMARK    4  A    between atoms: C_9  and  C_10
REMARK    5  A    between atoms: N_12  and  C_13
REMARK    6  A    between atoms: C_14  and  C_15
REMARK    7  A    between atoms: C_19  and  C_20
REMARK                            x       y       z     vdW  Elec       q    Type
REMARK                         _______ _______ _______ _____ _____    ______ ____
ROOT
ATOM      1  C   UNL     1      -6.984  -0.836 125.818  0.00  0.00    +0.000 C 
ATOM      2  O   UNL     1      -7.707  -0.099 126.506  0.00  0.00    +0.000 OA
ATOM      3  N   UNL     1      -6.505  -2.031 126.331  0.00  0.00    +0.000 N 
ATOM      4  H   UNL     1      -5.628  -2.390 125.979  0.00  0.00    +0.000 HD
ENDROOT
BRANCH   3   5
ATOM      5  C   UNL     1      -6.931  -2.430 127.630  0.00  0.00    +0.000 A 
ATOM      6  C   UNL     1      -8.176  -3.091 127.787  0.00  0.00    +0.000 A 
ATOM      7  C   UNL     1      -9.066  -3.510 126.638  0.00  0.00    +0.000 C 
ATOM      8  C   UNL     1      -8.637  -3.405 129.073  0.00  0.00    +0.000 A 
ATOM      9  C   UNL     1      -7.872  -3.103 130.192  0.00  0.00    +0.000 A 
ATOM     10  C   UNL     1      -6.636  -2.481 130.038  0.00  0.00    +0.000 A 
ATOM     11  C   UNL     1      -6.142  -2.143 128.765  0.00  0.00    +0.000 A 
ATOM     12  C   UNL     1      -4.832  -1.407 128.695  0.00  0.00    +0.000 C 
ENDBRANCH   3   5
BRANCH   1  18
ATOM     13  N   UNL     1      -6.355  -1.670 123.514  0.00  0.00    +0.000 NA
ATOM     14  C   UNL     1      -7.584  -2.484 123.413  0.00  0.00    +0.000 C 
ATOM     15  C   UNL     1      -8.759  -1.690 122.870  0.00  0.00    +0.000 C 
ATOM     16  C   UNL     1      -8.983  -0.391 123.627  0.00  0.00    +0.000 C 
ATOM     17  C   UNL     1      -7.684   0.404 123.731  0.00  0.00    +0.000 C 
ATOM     18  C   UNL     1      -6.581  -0.452 124.364  0.00  0.00    +0.000 C 
BRANCH  13  19
ATOM     19  C   UNL     1      -5.184  -2.442 123.991  0.00  0.00    +0.000 C 
BRANCH  19  21
ATOM     20  C   UNL     1      -4.015  -4.636 123.528  0.00  0.00    +0.000 C 
ATOM     21  C   UNL     1      -5.330  -3.960 123.847  0.00  0.00    +0.000 C 
ENDBRANCH  19  21
ENDBRANCH  13  19
ENDBRANCH   1  18
TORSDOF 4
ENDMDL
MODEL 5
REMARK VINA RESULT:      -6.4      7.133      9.902
REMARK  Name = Ropivacaine
REMARK  7 active torsions:
REMARK  status: ('A' for Active; 'I' for Inactive)
REMARK    1  A    between atoms: C_1  and  C_2
REMARK    2  A    between atoms: C_2  and  C_3
REMARK    3  A    between atoms: C_3  and  N_4
REMARK    4  A    between atoms: C_9  and  C_10
REMARK    5  A    between atoms: N_12  and  C_13
REMARK    6  A    between atoms: C_14  and  C_15
REMARK    7  A    between atoms: C_19  and  C_20
REMARK                            x       y       z     vdW  Elec       q    Type
REMARK                         _______ _______ _______ _____ _____    ______ ____
ROOT
ATOM      1  C   UNL     1      -8.999   5.974 129.977  0.00  0.00    +0.000 C 
ATOM      2  O   UNL     1      -8.622   7.103 130.327  0.00  0.00    +0.000 OA
ATOM      3  N   UNL     1     -10.295   5.770 129.533  0.00  0.00    +0.000 N 
ATOM      4  H   UNL     1     -10.711   4.857 129.664  0.00  0.00    +0.000 HD
ENDROOT
BRANCH   3   5
ATOM      5  C   UNL     1     -11.154   6.898 129.410  0.00  0.00    +0.000 A 
ATOM      6  C   UNL     1     -11.937   7.308 130.519  0.00  0.00    +0.000 A 
ATOM      7  C   UNL     1     -11.853   6.685 131.894  0.00  0.00    +0.000 C 
ATOM      8  C   UNL     1     -12.848   8.364 130.372  0.00  0.00    +0.000 A 
ATOM      9  C   UNL     1     -12.968   9.031 129.161  0.00  0.00    +0.000 A 
ATOM     10  C   UNL     1     -12.179   8.651 128.079  0.00  0.00    +0.000 A 
ATOM     11  C   UNL     1     -11.258   7.591 128.184  0.00  0.00    +0.000 A 
ATOM     12  C   UNL     1     -10.500   7.199 126.946  0.00  0.00    +0.000 C 
ENDBRANCH   3   5
BRANCH   1  18
ATOM     13  N   UNL     1      -7.458   4.557 131.398  0.00  0.00    +0.000 NA
ATOM     14  C   UNL     1      -8.517   4.310 132.398  0.00  0.00    +0.000 C 
ATOM     15  C   UNL     1      -9.382   3.115 132.040  0.00  0.00    +0.000 C 
ATOM     16  C   UNL     1      -9.929   3.196 130.623  0.00  0.00    +0.000 C 
ATOM     17  C   UNL     1      -8.806   3.479 129.627  0.00  0.00    +0.000 C 
ATOM     18  C   UNL     1      -8.042   4.746 130.027  0.00  0.00    +0.000 C 
BRANCH  13  19
ATOM     19  C   UNL     1      -6.570   5.686 131.758  0.00  0.00    +0.000 C 
BRANCH  19  21
ATOM     20  C   UNL     1      -4.982   7.304 130.638  0.00  0.00    +0.000 C 
ATOM     21  C   UNL     1      -5.358   5.853 130.835  0.00  0.00    +0.000 C 
ENDBRANCH  19  21
ENDBRANCH  13  19
ENDBRANCH   1  18
TORSDOF 4
ENDMDL
MODEL 6
REMARK VINA RESULT:      -6.4      1.420      3.239
REMARK  Name = Ropivacaine
REMARK  7 active torsions:
REMARK  status: ('A' for Active; 'I' for Inactive)
REMARK    1  A    between atoms: C_1  and  C_2
REMARK    2  A    between atoms: C_2  and  C_3
REMARK    3  A    between atoms: C_3  and  N_4
REMARK    4  A    between atoms: C_9  and  C_10
REMARK    5  A    between atoms: N_12  and  C_13
REMARK    6  A    between atoms: C_14  and  C_15
REMARK    7  A    between atoms: C_19  and  C_20
REMARK                            x       y       z     vdW  Elec       q    Type
REMARK                         _______ _______ _______ _____ _____    ______ ____
ROOT
ATOM      1  C   UNL     1      -8.588  -1.661 125.556  0.00  0.00    +0.000 C 
ATOM      2  O   UNL     1      -8.967  -0.705 126.250  0.00  0.00    +0.000 OA
ATOM      3  N   UNL     1      -7.768  -2.640 126.092  0.00  0.00    +0.000 N 
ATOM      4  H   UNL     1      -7.140  -3.135 125.473  0.00  0.00    +0.000 HD
ENDROOT
BRANCH   3   5
ATOM      5  C   UNL     1      -7.441  -2.566 127.476  0.00  0.00    +0.000 A 
ATOM      6  C   UNL     1      -6.312  -1.814 127.890  0.00  0.00    +0.000 A 
ATOM      7  C   UNL     1      -5.462  -0.977 126.962  0.00  0.00    +0.000 C 
ATOM      8  C   UNL     1      -5.938  -1.814 129.241  0.00  0.00    +0.000 A 
ATOM      9  C   UNL     1      -6.680  -2.515 130.181  0.00  0.00    +0.000 A 
ATOM     10  C   UNL     1      -7.806  -3.230 129.782  0.00  0.00    +0.000 A 
ATOM     11  C   UNL     1      -8.210  -3.262 128.434  0.00  0.00    +0.000 A 
ATOM     12  C   UNL     1      -9.395  -4.117 128.079  0.00  0.00    +0.000 C 
ENDBRANCH   3   5
BRANCH   1  18
ATOM     13  N   UNL     1      -8.668  -0.564 123.278  0.00  0.00    +0.000 NA
ATOM     14  C   UNL     1      -7.212  -0.314 123.286  0.00  0.00    +0.000 C 
ATOM     15  C   UNL     1      -6.420  -1.495 122.755  0.00  0.00    +0.000 C 
ATOM     16  C   UNL     1      -6.789  -2.800 123.443  0.00  0.00    +0.000 C 
ATOM     17  C   UNL     1      -8.302  -3.005 123.435  0.00  0.00    +0.000 C 
ATOM     18  C   UNL     1      -9.010  -1.798 124.063  0.00  0.00    +0.000 C 
BRANCH  13  19
ATOM     19  C   UNL     1      -9.460   0.598 123.741  0.00  0.00    +0.000 C 
BRANCH  19  21
ATOM     20  C   UNL     1      -8.739   2.897 124.509  0.00  0.00    +0.000 C 
ATOM     21  C   UNL     1      -8.883   1.957 123.333  0.00  0.00    +0.000 C 
ENDBRANCH  19  21
ENDBRANCH  13  19
ENDBRANCH   1  18
TORSDOF 4
ENDMDL
MODEL 7
REMARK VINA RESULT:      -6.4      1.466      3.509
REMARK  Name = Ropivacaine
REMARK  7 active torsions:
REMARK  status: ('A' for Active; 'I' for Inactive)
REMARK    1  A    between atoms: C_1  and  C_2
REMARK    2  A    between atoms: C_2  and  C_3
REMARK    3  A    between atoms: C_3  and  N_4
REMARK    4  A    between atoms: C_9  and  C_10
REMARK    5  A    between atoms: N_12  and  C_13
REMARK    6  A    between atoms: C_14  and  C_15
REMARK    7  A    between atoms: C_19  and  C_20
REMARK                            x       y       z     vdW  Elec       q    Type
REMARK                         _______ _______ _______ _____ _____    ______ ____
ROOT
ATOM      1  C   UNL     1      -8.507  -1.527 125.656  0.00  0.00    +0.000 C 
ATOM      2  O   UNL     1      -8.826  -0.582 126.394  0.00  0.00    +0.000 OA
ATOM      3  N   UNL     1      -7.729  -2.566 126.139  0.00  0.00    +0.000 N 
ATOM      4  H   UNL     1      -7.137  -3.067 125.490  0.00  0.00    +0.000 HD
ENDROOT
BRANCH   3   5
ATOM      5  C   UNL     1      -7.378  -2.565 127.519  0.00  0.00    +0.000 A 
ATOM      6  C   UNL     1      -8.187  -3.269 128.448  0.00  0.00    +0.000 A 
ATOM      7  C   UNL     1      -9.369  -4.128 128.064  0.00  0.00    +0.000 C 
ATOM      8  C   UNL     1      -7.892  -3.195 129.817  0.00  0.00    +0.000 A 
ATOM      9  C   UNL     1      -6.799  -2.468 130.268  0.00  0.00    +0.000 A 
ATOM     10  C   UNL     1      -5.987  -1.802 129.355  0.00  0.00    +0.000 A 
ATOM     11  C   UNL     1      -6.253  -1.844 127.974  0.00  0.00    +0.000 A 
ATOM     12  C   UNL     1      -5.367  -1.036 127.065  0.00  0.00    +0.000 C 
ENDBRANCH   3   5
BRANCH   1  18
ATOM     13  N   UNL     1      -8.438  -0.407 123.389  0.00  0.00    +0.000 NA
ATOM     14  C   UNL     1      -6.960  -0.383 123.385  0.00  0.00    +0.000 C 
ATOM     15  C   UNL     1      -6.363  -1.666 122.835  0.00  0.00    +0.000 C 
ATOM     16  C   UNL     1      -6.922  -2.906 123.515  0.00  0.00    +0.000 C 
ATOM     17  C   UNL     1      -8.448  -2.876 123.521  0.00  0.00    +0.000 C 
ATOM     18  C   UNL     1      -8.958  -1.582 124.167  0.00  0.00    +0.000 C 
BRANCH  13  19
ATOM     19  C   UNL     1      -9.038   0.858 123.871  0.00  0.00    +0.000 C 
BRANCH  19  21
ATOM     20  C   UNL     1      -8.522   2.923 122.507  0.00  0.00    +0.000 C 
ATOM     21  C   UNL     1      -9.503   1.800 122.756  0.00  0.00    +0.000 C 
ENDBRANCH  19  21
ENDBRANCH  13  19
ENDBRANCH   1  18
TORSDOF 4
ENDMDL
MODEL 8
REMARK VINA RESULT:      -6.4      2.661      3.697
REMARK  Name = Ropivacaine
REMARK  7 active torsions:
REMARK  status: ('A' for Active; 'I' for Inactive)
REMARK    1  A    between atoms: C_1  and  C_2
REMARK    2  A    between atoms: C_2  and  C_3
REMARK    3  A    between atoms: C_3  and  N_4
REMARK    4  A    between atoms: C_9  and  C_10
REMARK    5  A    between atoms: N_12  and  C_13
REMARK    6  A    between atoms: C_14  and  C_15
REMARK    7  A    between atoms: C_19  and  C_20
REMARK                            x       y       z     vdW  Elec       q    Type
REMARK                         _______ _______ _______ _____ _____    ______ ____
ROOT
ATOM      1  C   UNL     1      -5.710  -1.850 126.861  0.00  0.00    +0.000 C 
ATOM      2  O   UNL     1      -6.567  -2.743 126.784  0.00  0.00    +0.000 OA
ATOM      3  N   UNL     1      -5.104  -1.558 128.072  0.00  0.00    +0.000 N 
ATOM      4  H   UNL     1      -4.767  -0.617 128.228  0.00  0.00    +0.000 HD
ENDROOT
BRANCH   3   5
ATOM      5  C   UNL     1      -5.427  -2.361 129.203  0.00  0.00    +0.000 A 
ATOM      6  C   UNL     1      -4.587  -3.450 129.551  0.00  0.00    +0.000 A 
ATOM      7  C   UNL     1      -3.283  -3.772 128.858  0.00  0.00    +0.000 C 
ATOM      8  C   UNL     1      -4.952  -4.294 130.609  0.00  0.00    +0.000 A 
ATOM      9  C   UNL     1      -6.109  -4.056 131.339  0.00  0.00    +0.000 A 
ATOM     10  C   UNL     1      -6.919  -2.971 131.018  0.00  0.00    +0.000 A 
ATOM     11  C   UNL     1      -6.592  -2.104 129.958  0.00  0.00    +0.000 A 
ATOM     12  C   UNL     1      -7.560  -0.999 129.633  0.00  0.00    +0.000 C 
ENDBRANCH   3   5
BRANCH   1  18
ATOM     13  N   UNL     1      -6.211  -1.256 124.454  0.00  0.00    +0.000 NA
ATOM     14  C   UNL     1      -7.592  -0.847 124.785  0.00  0.00    +0.000 C 
ATOM     15  C   UNL     1      -7.675   0.604 125.223  0.00  0.00    +0.000 C 
ATOM     16  C   UNL     1      -6.690   0.935 126.332  0.00  0.00    +0.000 C 
ATOM     17  C   UNL     1      -5.283   0.472 125.960  0.00  0.00    +0.000 C 
ATOM     18  C   UNL     1      -5.285  -1.021 125.613  0.00  0.00    +0.000 C 
BRANCH  13  19
ATOM     19  C   UNL     1      -6.118  -2.653 123.973  0.00  0.00    +0.000 C 
BRANCH  19  21
ATOM     20  C   UNL     1      -4.418  -4.510 123.738  0.00  0.00    +0.000 C 
ATOM     21  C   UNL     1      -4.728  -3.055 123.470  0.00  0.00    +0.000 C 
ENDBRANCH  19  21
ENDBRANCH  13  19
ENDBRANCH   1  18
TORSDOF 4
ENDMDL
MODEL 9
REMARK VINA RESULT:      -6.3      6.719      9.605
REMARK  Name = Ropivacaine
REMARK  7 active torsions:
REMARK  status: ('A' for Active; 'I' for Inactive)
REMARK    1  A    between atoms: C_1  and  C_2
REMARK    2  A    between atoms: C_2  and  C_3
REMARK    3  A    between atoms: C_3  and  N_4
REMARK    4  A    between atoms: C_9  and  C_10
REMARK    5  A    between atoms: N_12  and  C_13
REMARK    6  A    between atoms: C_14  and  C_15
REMARK    7  A    between atoms: C_19  and  C_20
REMARK                            x       y       z     vdW  Elec       q    Type
REMARK                         _______ _______ _______ _____ _____    ______ ____
ROOT
ATOM      1  C   UNL     1     -10.384   5.215 130.630  0.00  0.00    +0.000 C 
ATOM      2  O   UNL     1     -11.140   4.408 130.067  0.00  0.00    +0.000 OA
ATOM      3  N   UNL     1     -10.403   6.557 130.285  0.00  0.00    +0.000 N 
ATOM      4  H   UNL     1      -9.556   7.096 130.401  0.00  0.00    +0.000 HD
ENDROOT
BRANCH   3   5
ATOM      5  C   UNL     1     -11.366   6.998 129.334  0.00  0.00    +0.000 A 
ATOM      6  C   UNL     1     -12.645   7.425 129.777  0.00  0.00    +0.000 A 
ATOM      7  C   UNL     1     -13.041   7.548 131.230  0.00  0.00    +0.000 C 
ATOM      8  C   UNL     1     -13.623   7.775 128.836  0.00  0.00    +0.000 A 
ATOM      9  C   UNL     1     -13.343   7.739 127.477  0.00  0.00    +0.000 A 
ATOM     10  C   UNL     1     -12.080   7.349 127.040  0.00  0.00    +0.000 A 
ATOM     11  C   UNL     1     -11.073   6.982 127.953  0.00  0.00    +0.000 A 
ATOM     12  C   UNL     1      -9.761   6.505 127.393  0.00  0.00    +0.000 C 
ENDBRANCH   3   5
BRANCH   1  18
ATOM     13  N   UNL     1      -8.357   3.808 131.189  0.00  0.00    +0.000 NA
ATOM     14  C   UNL     1      -7.553   4.446 130.126  0.00  0.00    +0.000 C 
ATOM     15  C   UNL     1      -6.874   5.718 130.600  0.00  0.00    +0.000 C 
ATOM     16  C   UNL     1      -7.846   6.688 131.253  0.00  0.00    +0.000 C 
ATOM     17  C   UNL     1      -8.674   5.982 132.325  0.00  0.00    +0.000 C 
ATOM     18  C   UNL     1      -9.385   4.759 131.734  0.00  0.00    +0.000 C 
BRANCH  13  19
ATOM     19  C   UNL     1      -8.984   2.536 130.761  0.00  0.00    +0.000 C 
BRANCH  19  21
ATOM     20  C   UNL     1      -9.135   0.239 131.807  0.00  0.00    +0.000 C 
ATOM     21  C   UNL     1      -9.543   1.692 131.910  0.00  0.00    +0.000 C 
ENDBRANCH  19  21
ENDBRANCH  13  19
ENDBRANCH   1  18
TORSDOF 4
ENDMDL
