MODEL 1
REMARK VINA RESULT:      -7.4      0.000      0.000
REMARK  Name = Rosiglitazone
REMARK  8 active torsions:
REMARK  status: ('A' for Active; 'I' for Inactive)
REMARK    1  A    between atoms: C_1  and  N_2
REMARK    2  A    between atoms: N_2  and  C_3
REMARK    3  A    between atoms: N_2  and  C_20
REMARK    4  A    between atoms: C_3  and  C_4
REMARK    5  A    between atoms: C_4  and  O_5
REMARK    6  A    between atoms: O_5  and  C_6
REMARK    7  A    between atoms: C_9  and  C_10
REMARK    8  A    between atoms: C_10  and  C_11
REMARK                            x       y       z     vdW  Elec       q    Type
REMARK                         _______ _______ _______ _____ _____    ______ ____
ROOT
ATOM      1  C   UNL     1      -9.099  -2.814 126.460  0.00  0.00    +0.000 A 
ATOM      2  C   UNL     1      -8.190  -1.787 126.731  0.00  0.00    +0.000 A 
ATOM      3  C   UNL     1      -7.369  -1.813 127.879  0.00  0.00    +0.000 A 
ATOM      4  C   UNL     1      -7.499  -2.844 128.807  0.00  0.00    +0.000 A 
ATOM      5  C   UNL     1      -8.403  -3.844 128.466  0.00  0.00    +0.000 A 
ATOM      6  C   UNL     1      -9.204  -3.853 127.347  0.00  0.00    +0.000 A 
ENDROOT
BRANCH   1   7
ATOM      7  O   UNL     1      -9.767  -2.795 125.271  0.00  0.00    +0.000 OA
BRANCH   7   8
ATOM      8  C   UNL     1      -9.046  -3.425 124.208  0.00  0.00    +0.000 C 
BRANCH   8   9
ATOM      9  C   UNL     1      -9.017  -2.523 122.975  0.00  0.00    +0.000 C 
BRANCH   9  11
ATOM     10  C   UNL     1      -6.555  -1.787 122.930  0.00  0.00    +0.000 C 
ATOM     11  N   UNL     1      -7.975  -1.496 123.038  0.00  0.00    +0.000 N 
BRANCH  11  12
ATOM     12  C   UNL     1      -8.360  -0.211 123.405  0.00  0.00    +0.000 A 
ATOM     13  C   UNL     1      -7.385   0.747 123.693  0.00  0.00    +0.000 A 
ATOM     14  C   UNL     1      -7.745   2.045 124.047  0.00  0.00    +0.000 A 
ATOM     15  C   UNL     1      -9.086   2.369 124.134  0.00  0.00    +0.000 A 
ATOM     16  C   UNL     1     -10.003   1.377 123.838  0.00  0.00    +0.000 A 
ATOM     17  N   UNL     1      -9.670   0.116 123.460  0.00  0.00    +0.000 NA
ENDBRANCH  11  12
ENDBRANCH   9  11
ENDBRANCH   8   9
ENDBRANCH   7   8
ENDBRANCH   1   7
BRANCH   4  18
ATOM     18  C   UNL     1      -6.744  -2.857 130.127  0.00  0.00    +0.000 C 
BRANCH  18  19
ATOM     19  C   UNL     1      -5.689  -3.974 130.370  0.00  0.00    +0.000 C 
ATOM     20  S   UNL     1      -5.366  -4.400 132.131  0.00  0.00    +0.000 S 
ATOM     21  C   UNL     1      -3.709  -3.832 132.049  0.00  0.00    +0.000 C 
ATOM     22  O   UNL     1      -3.066  -3.464 133.027  0.00  0.00    +0.000 OA
ATOM     23  N   UNL     1      -3.342  -3.639 130.757  0.00  0.00    +0.000 N 
ATOM     24  C   UNL     1      -4.326  -3.602 129.802  0.00  0.00    +0.000 C 
ATOM     25  O   UNL     1      -4.123  -3.242 128.651  0.00  0.00    +0.000 OA
ATOM     26  H   UNL     1      -2.484  -3.138 130.565  0.00  0.00    +0.000 HD
ENDBRANCH  18  19
ENDBRANCH   4  18
TORSDOF 7
ENDMDL
MODEL 2
REMARK VINA RESULT:      -7.0      2.274      3.138
REMARK  Name = Rosiglitazone
REMARK  8 active torsions:
REMARK  status: ('A' for Active; 'I' for Inactive)
REMARK    1  A    between atoms: C_1  and  N_2
REMARK    2  A    between atoms: N_2  and  C_3
REMARK    3  A    between atoms: N_2  and  C_20
REMARK    4  A    between atoms: C_3  and  C_4
REMARK    5  A    between atoms: C_4  and  O_5
REMARK    6  A    between atoms: O_5  and  C_6
REMARK    7  A    between atoms: C_9  and  C_10
REMARK    8  A    between atoms: C_10  and  C_11
REMARK                            x       y       z     vdW  Elec       q    Type
REMARK                         _______ _______ _______ _____ _____    ______ ____
ROOT
ATOM      1  C   UNL     1      -8.853  -1.636 125.897  0.00  0.00    +0.000 A 
ATOM      2  C   UNL     1      -9.278  -2.912 126.278  0.00  0.00    +0.000 A 
ATOM      3  C   UNL     1      -8.852  -3.501 127.488  0.00  0.00    +0.000 A 
ATOM      4  C   UNL     1      -7.936  -2.838 128.301  0.00  0.00    +0.000 A 
ATOM      5  C   UNL     1      -7.571  -1.566 127.877  0.00  0.00    +0.000 A 
ATOM      6  C   UNL     1      -7.983  -0.961 126.712  0.00  0.00    +0.000 A 
ENDROOT
BRANCH   1   7
ATOM      7  O   UNL     1      -9.402  -1.072 124.783  0.00  0.00    +0.000 OA
BRANCH   7   8
ATOM      8  C   UNL     1      -8.510  -0.188 124.100  0.00  0.00    +0.000 C 
BRANCH   8   9
ATOM      9  C   UNL     1      -9.271   1.013 123.541  0.00  0.00    +0.000 C 
BRANCH   9  11
ATOM     10  C   UNL     1      -8.486   3.042 124.909  0.00  0.00    +0.000 C 
ATOM     11  N   UNL     1      -8.536   2.273 123.677  0.00  0.00    +0.000 N 
BRANCH  11  12
ATOM     12  C   UNL     1      -8.024   2.847 122.518  0.00  0.00    +0.000 A 
ATOM     13  C   UNL     1      -6.642   2.878 122.316  0.00  0.00    +0.000 A 
ATOM     14  C   UNL     1      -6.105   3.432 121.156  0.00  0.00    +0.000 A 
ATOM     15  C   UNL     1      -6.959   3.974 120.214  0.00  0.00    +0.000 A 
ATOM     16  C   UNL     1      -8.316   3.913 120.472  0.00  0.00    +0.000 A 
ATOM     17  N   UNL     1      -8.859   3.348 121.582  0.00  0.00    +0.000 NA
ENDBRANCH  11  12
ENDBRANCH   9  11
ENDBRANCH   8   9
ENDBRANCH   7   8
ENDBRANCH   1   7
BRANCH   4  18
ATOM     18  C   UNL     1      -7.333  -3.476 129.544  0.00  0.00    +0.000 C 
BRANCH  18  19
ATOM     19  C   UNL     1      -6.472  -2.591 130.491  0.00  0.00    +0.000 C 
ATOM     20  S   UNL     1      -4.660  -2.612 130.176  0.00  0.00    +0.000 S 
ATOM     21  C   UNL     1      -4.317  -3.363 131.723  0.00  0.00    +0.000 C 
ATOM     22  O   UNL     1      -3.307  -4.021 131.952  0.00  0.00    +0.000 OA
ATOM     23  N   UNL     1      -5.413  -3.313 132.522  0.00  0.00    +0.000 N 
ATOM     24  C   UNL     1      -6.620  -3.006 131.949  0.00  0.00    +0.000 C 
ATOM     25  O   UNL     1      -7.686  -3.127 132.537  0.00  0.00    +0.000 OA
ATOM     26  H   UNL     1      -5.423  -3.869 133.367  0.00  0.00    +0.000 HD
ENDBRANCH  18  19
ENDBRANCH   4  18
TORSDOF 7
ENDMDL
MODEL 3
REMARK VINA RESULT:      -7.0      1.949      3.325
REMARK  Name = Rosiglitazone
REMARK  8 active torsions:
REMARK  status: ('A' for Active; 'I' for Inactive)
REMARK    1  A    between atoms: C_1  and  N_2
REMARK    2  A    between atoms: N_2  and  C_3
REMARK    3  A    between atoms: N_2  and  C_20
REMARK    4  A    between atoms: C_3  and  C_4
REMARK    5  A    between atoms: C_4  and  O_5
REMARK    6  A    between atoms: O_5  and  C_6
REMARK    7  A    between atoms: C_9  and  C_10
REMARK    8  A    between atoms: C_10  and  C_11
REMARK                            x       y       z     vdW  Elec       q    Type
REMARK                         _______ _______ _______ _____ _____    ______ ____
ROOT
ATOM      1  C   UNL     1      -6.296  -0.324 126.551  0.00  0.00    +0.000 A 
ATOM      2  C   UNL     1      -7.323  -0.047 127.457  0.00  0.00    +0.000 A 
ATOM      3  C   UNL     1      -7.618  -0.918 128.528  0.00  0.00    +0.000 A 
ATOM      4  C   UNL     1      -6.923  -2.118 128.662  0.00  0.00    +0.000 A 
ATOM      5  C   UNL     1      -5.901  -2.322 127.743  0.00  0.00    +0.000 A 
ATOM      6  C   UNL     1      -5.580  -1.483 126.700  0.00  0.00    +0.000 A 
ENDROOT
BRANCH   1   7
ATOM      7  O   UNL     1      -5.976   0.620 125.619  0.00  0.00    +0.000 OA
BRANCH   7   8
ATOM      8  C   UNL     1      -7.122   1.228 125.017  0.00  0.00    +0.000 C 
BRANCH   8   9
ATOM      9  C   UNL     1      -7.330   0.690 123.602  0.00  0.00    +0.000 C 
BRANCH   9  11
ATOM     10  C   UNL     1      -9.764   0.332 122.858  0.00  0.00    +0.000 C 
ATOM     11  N   UNL     1      -8.533  -0.137 123.472  0.00  0.00    +0.000 N 
BRANCH  11  12
ATOM     12  C   UNL     1      -8.548  -1.358 124.136  0.00  0.00    +0.000 A 
ATOM     13  C   UNL     1      -7.641  -2.356 123.767  0.00  0.00    +0.000 A 
ATOM     14  C   UNL     1      -7.626  -3.582 124.427  0.00  0.00    +0.000 A 
ATOM     15  C   UNL     1      -8.537  -3.810 125.441  0.00  0.00    +0.000 A 
ATOM     16  C   UNL     1      -9.407  -2.784 125.759  0.00  0.00    +0.000 A 
ATOM     17  N   UNL     1      -9.416  -1.571 125.148  0.00  0.00    +0.000 NA
ENDBRANCH  11  12
ENDBRANCH   9  11
ENDBRANCH   8   9
ENDBRANCH   7   8
ENDBRANCH   1   7
BRANCH   4  18
ATOM     18  C   UNL     1      -7.285  -3.161 129.708  0.00  0.00    +0.000 C 
BRANCH  18  19
ATOM     19  C   UNL     1      -6.413  -3.260 130.993  0.00  0.00    +0.000 C 
ATOM     20  S   UNL     1      -5.413  -1.770 131.397  0.00  0.00    +0.000 S 
ATOM     21  C   UNL     1      -3.899  -2.621 131.156  0.00  0.00    +0.000 C 
ATOM     22  O   UNL     1      -2.841  -2.065 130.875  0.00  0.00    +0.000 OA
ATOM     23  N   UNL     1      -4.117  -3.959 131.090  0.00  0.00    +0.000 N 
ATOM     24  C   UNL     1      -5.404  -4.397 130.909  0.00  0.00    +0.000 C 
ATOM     25  O   UNL     1      -5.680  -5.559 130.643  0.00  0.00    +0.000 OA
ATOM     26  H   UNL     1      -3.368  -4.558 130.769  0.00  0.00    +0.000 HD
ENDBRANCH  18  19
ENDBRANCH   4  18
TORSDOF 7
ENDMDL
MODEL 4
REMARK VINA RESULT:      -6.9      8.582     11.016
REMARK  Name = Rosiglitazone
REMARK  8 active torsions:
REMARK  status: ('A' for Active; 'I' for Inactive)
REMARK    1  A    between atoms: C_1  and  N_2
REMARK    2  A    between atoms: N_2  and  C_3
REMARK    3  A    between atoms: N_2  and  C_20
REMARK    4  A    between atoms: C_3  and  C_4
REMARK    5  A    between atoms: C_4  and  O_5
REMARK    6  A    between atoms: O_5  and  C_6
REMARK    7  A    between atoms: C_9  and  C_10
REMARK    8  A    between atoms: C_10  and  C_11
REMARK                            x       y       z     vdW  Elec       q    Type
REMARK                         _______ _______ _______ _____ _____    ______ ____
ROOT
ATOM      1  C   UNL     1      -8.469   4.916 130.903  0.00  0.00    +0.000 A 
ATOM      2  C   UNL     1      -9.645   4.164 130.835  0.00  0.00    +0.000 A 
ATOM      3  C   UNL     1     -10.915   4.780 130.826  0.00  0.00    +0.000 A 
ATOM      4  C   UNL     1     -11.020   6.163 130.952  0.00  0.00    +0.000 A 
ATOM      5  C   UNL     1      -9.814   6.853 130.991  0.00  0.00    +0.000 A 
ATOM      6  C   UNL     1      -8.563   6.280 130.985  0.00  0.00    +0.000 A 
ENDROOT
BRANCH   1   7
ATOM      7  O   UNL     1      -7.275   4.270 130.776  0.00  0.00    +0.000 OA
BRANCH   7   8
ATOM      8  C   UNL     1      -7.230   3.382 129.656  0.00  0.00    +0.000 C 
BRANCH   8   9
ATOM      9  C   UNL     1      -6.806   4.133 128.395  0.00  0.00    +0.000 C 
BRANCH   9  11
ATOM     10  C   UNL     1      -5.037   2.556 127.400  0.00  0.00    +0.000 C 
ATOM     11  N   UNL     1      -5.435   3.829 127.977  0.00  0.00    +0.000 N 
BRANCH  11  12
ATOM     12  C   UNL     1      -4.441   4.737 128.325  0.00  0.00    +0.000 A 
ATOM     13  C   UNL     1      -3.545   4.421 129.350  0.00  0.00    +0.000 A 
ATOM     14  C   UNL     1      -2.531   5.307 129.706  0.00  0.00    +0.000 A 
ATOM     15  C   UNL     1      -2.434   6.518 129.046  0.00  0.00    +0.000 A 
ATOM     16  C   UNL     1      -3.351   6.771 128.041  0.00  0.00    +0.000 A 
ATOM     17  N   UNL     1      -4.326   5.907 127.659  0.00  0.00    +0.000 NA
ENDBRANCH  11  12
ENDBRANCH   9  11
ENDBRANCH   8   9
ENDBRANCH   7   8
ENDBRANCH   1   7
BRANCH   4  18
ATOM     18  C   UNL     1     -12.359   6.874 131.087  0.00  0.00    +0.000 C 
BRANCH  18  19
ATOM     19  C   UNL     1     -13.017   7.471 129.810  0.00  0.00    +0.000 C 
ATOM     20  S   UNL     1     -12.443   6.766 128.211  0.00  0.00    +0.000 S 
ATOM     21  C   UNL     1     -11.736   8.288 127.701  0.00  0.00    +0.000 C 
ATOM     22  O   UNL     1     -10.829   8.377 126.879  0.00  0.00    +0.000 OA
ATOM     23  N   UNL     1     -12.163   9.296 128.503  0.00  0.00    +0.000 N 
ATOM     24  C   UNL     1     -12.769   8.968 129.689  0.00  0.00    +0.000 C 
ATOM     25  O   UNL     1     -13.009   9.790 130.563  0.00  0.00    +0.000 OA
ATOM     26  H   UNL     1     -11.697  10.192 128.447  0.00  0.00    +0.000 HD
ENDBRANCH  18  19
ENDBRANCH   4  18
TORSDOF 7
ENDMDL
MODEL 5
REMARK VINA RESULT:      -6.9      0.959      1.757
REMARK  Name = Rosiglitazone
REMARK  8 active torsions:
REMARK  status: ('A' for Active; 'I' for Inactive)
REMARK    1  A    between atoms: C_1  and  N_2
REMARK    2  A    between atoms: N_2  and  C_3
REMARK    3  A    between atoms: N_2  and  C_20
REMARK    4  A    between atoms: C_3  and  C_4
REMARK    5  A    between atoms: C_4  and  O_5
REMARK    6  A    between atoms: O_5  and  C_6
REMARK    7  A    between atoms: C_9  and  C_10
REMARK    8  A    between atoms: C_10  and  C_11
REMARK                            x       y       z     vdW  Elec       q    Type
REMARK                         _______ _______ _______ _____ _____    ______ ____
ROOT
ATOM      1  C   UNL     1      -8.913  -2.375 126.308  0.00  0.00    +0.000 A 
ATOM      2  C   UNL     1      -9.085  -3.577 127.001  0.00  0.00    +0.000 A 
ATOM      3  C   UNL     1      -8.517  -3.781 128.277  0.00  0.00    +0.000 A 
ATOM      4  C   UNL     1      -7.710  -2.799 128.846  0.00  0.00    +0.000 A 
ATOM      5  C   UNL     1      -7.598  -1.621 128.117  0.00  0.00    +0.000 A 
ATOM      6  C   UNL     1      -8.154  -1.388 126.880  0.00  0.00    +0.000 A 
ENDROOT
BRANCH   1   7
ATOM      7  O   UNL     1      -9.594  -2.193 125.141  0.00  0.00    +0.000 OA
BRANCH   7   8
ATOM      8  C   UNL     1      -8.899  -2.698 123.997  0.00  0.00    +0.000 C 
BRANCH   8   9
ATOM      9  C   UNL     1      -8.123  -1.579 123.307  0.00  0.00    +0.000 C 
BRANCH   9  11
ATOM     10  C   UNL     1     -10.063  -0.181 122.364  0.00  0.00    +0.000 C 
ATOM     11  N   UNL     1      -8.883  -0.331 123.199  0.00  0.00    +0.000 N 
BRANCH  11  12
ATOM     12  C   UNL     1      -8.335   0.808 123.780  0.00  0.00    +0.000 A 
ATOM     13  C   UNL     1      -9.138   1.933 123.986  0.00  0.00    +0.000 A 
ATOM     14  C   UNL     1      -8.617   3.079 124.580  0.00  0.00    +0.000 A 
ATOM     15  C   UNL     1      -7.283   3.100 124.944  0.00  0.00    +0.000 A 
ATOM     16  C   UNL     1      -6.541   1.956 124.714  0.00  0.00    +0.000 A 
ATOM     17  N   UNL     1      -7.040   0.817 124.165  0.00  0.00    +0.000 NA
ENDBRANCH  11  12
ENDBRANCH   9  11
ENDBRANCH   8   9
ENDBRANCH   7   8
ENDBRANCH   1   7
BRANCH   4  18
ATOM     18  C   UNL     1      -6.959  -3.012 130.152  0.00  0.00    +0.000 C 
BRANCH  18  19
ATOM     19  C   UNL     1      -5.791  -4.040 130.179  0.00  0.00    +0.000 C 
ATOM     20  S   UNL     1      -5.371  -4.727 131.834  0.00  0.00    +0.000 S 
ATOM     21  C   UNL     1      -3.781  -3.988 131.826  0.00  0.00    +0.000 C 
ATOM     22  O   UNL     1      -3.144  -3.730 132.843  0.00  0.00    +0.000 OA
ATOM     23  N   UNL     1      -3.478  -3.539 130.581  0.00  0.00    +0.000 N 
ATOM     24  C   UNL     1      -4.491  -3.440 129.663  0.00  0.00    +0.000 C 
ATOM     25  O   UNL     1      -4.363  -2.868 128.589  0.00  0.00    +0.000 OA
ATOM     26  H   UNL     1      -2.679  -2.928 130.467  0.00  0.00    +0.000 HD
ENDBRANCH  18  19
ENDBRANCH   4  18
TORSDOF 7
ENDMDL
MODEL 6
REMARK VINA RESULT:      -6.8      1.694      3.185
REMARK  Name = Rosiglitazone
REMARK  8 active torsions:
REMARK  status: ('A' for Active; 'I' for Inactive)
REMARK    1  A    between atoms: C_1  and  N_2
REMARK    2  A    between atoms: N_2  and  C_3
REMARK    3  A    between atoms: N_2  and  C_20
REMARK    4  A    between atoms: C_3  and  C_4
REMARK    5  A    between atoms: C_4  and  O_5
REMARK    6  A    between atoms: O_5  and  C_6
REMARK    7  A    between atoms: C_9  and  C_10
REMARK    8  A    between atoms: C_10  and  C_11
REMARK                            x       y       z     vdW  Elec       q    Type
REMARK                         _______ _______ _______ _____ _____    ______ ____
ROOT
ATOM      1  C   UNL     1      -9.095  -1.617 125.993  0.00  0.00    +0.000 A 
ATOM      2  C   UNL     1      -9.212  -2.999 126.167  0.00  0.00    +0.000 A 
ATOM      3  C   UNL     1      -8.695  -3.644 127.311  0.00  0.00    +0.000 A 
ATOM      4  C   UNL     1      -7.992  -2.914 128.266  0.00  0.00    +0.000 A 
ATOM      5  C   UNL     1      -7.931  -1.543 128.044  0.00  0.00    +0.000 A 
ATOM      6  C   UNL     1      -8.440  -0.885 126.948  0.00  0.00    +0.000 A 
ENDROOT
BRANCH   1   7
ATOM      7  O   UNL     1      -9.729  -1.038 124.932  0.00  0.00    +0.000 OA
BRANCH   7   8
ATOM      8  C   UNL     1      -9.505   0.371 124.842  0.00  0.00    +0.000 C 
BRANCH   8   9
ATOM      9  C   UNL     1      -8.965   0.740 123.462  0.00  0.00    +0.000 C 
BRANCH   9  11
ATOM     10  C   UNL     1      -6.821   2.053 122.929  0.00  0.00    +0.000 C 
ATOM     11  N   UNL     1      -7.506   0.874 123.431  0.00  0.00    +0.000 N 
BRANCH  11  12
ATOM     12  C   UNL     1      -6.751  -0.257 123.723  0.00  0.00    +0.000 A 
ATOM     13  C   UNL     1      -6.771  -1.345 122.847  0.00  0.00    +0.000 A 
ATOM     14  C   UNL     1      -6.011  -2.483 123.108  0.00  0.00    +0.000 A 
ATOM     15  C   UNL     1      -5.249  -2.531 124.261  0.00  0.00    +0.000 A 
ATOM     16  C   UNL     1      -5.272  -1.422 125.087  0.00  0.00    +0.000 A 
ATOM     17  N   UNL     1      -5.982  -0.292 124.833  0.00  0.00    +0.000 NA
ENDBRANCH  11  12
ENDBRANCH   9  11
ENDBRANCH   8   9
ENDBRANCH   7   8
ENDBRANCH   1   7
BRANCH   4  18
ATOM     18  C   UNL     1      -7.293  -3.570 129.448  0.00  0.00    +0.000 C 
BRANCH  18  19
ATOM     19  C   UNL     1      -6.066  -2.852 130.078  0.00  0.00    +0.000 C 
ATOM     20  S   UNL     1      -4.735  -2.364 128.904  0.00  0.00    +0.000 S 
ATOM     21  C   UNL     1      -3.578  -3.460 129.634  0.00  0.00    +0.000 C 
ATOM     22  O   UNL     1      -2.600  -3.911 129.045  0.00  0.00    +0.000 OA
ATOM     23  N   UNL     1      -4.044  -3.909 130.828  0.00  0.00    +0.000 N 
ATOM     24  C   UNL     1      -5.371  -3.720 131.118  0.00  0.00    +0.000 C 
ATOM     25  O   UNL     1      -5.927  -4.254 132.068  0.00  0.00    +0.000 OA
ATOM     26  H   UNL     1      -3.573  -4.686 131.272  0.00  0.00    +0.000 HD
ENDBRANCH  18  19
ENDBRANCH   4  18
TORSDOF 7
ENDMDL
MODEL 7
REMARK VINA RESULT:      -6.7      8.205      9.846
REMARK  Name = Rosiglitazone
REMARK  8 active torsions:
REMARK  status: ('A' for Active; 'I' for Inactive)
REMARK    1  A    between atoms: C_1  and  N_2
REMARK    2  A    between atoms: N_2  and  C_3
REMARK    3  A    between atoms: N_2  and  C_20
REMARK    4  A    between atoms: C_3  and  C_4
REMARK    5  A    between atoms: C_4  and  O_5
REMARK    6  A    between atoms: O_5  and  C_6
REMARK    7  A    between atoms: C_9  and  C_10
REMARK    8  A    between atoms: C_10  and  C_11
REMARK                            x       y       z     vdW  Elec       q    Type
REMARK                         _______ _______ _______ _____ _____    ______ ____
ROOT
ATOM      1  C   UNL     1      -8.283   6.287 131.034  0.00  0.00    +0.000 A 
ATOM      2  C   UNL     1      -8.272   5.085 130.322  0.00  0.00    +0.000 A 
ATOM      3  C   UNL     1      -7.063   4.460 129.948  0.00  0.00    +0.000 A 
ATOM      4  C   UNL     1      -5.845   5.074 130.229  0.00  0.00    +0.000 A 
ATOM      5  C   UNL     1      -5.925   6.255 130.958  0.00  0.00    +0.000 A 
ATOM      6  C   UNL     1      -7.088   6.877 131.350  0.00  0.00    +0.000 A 
ENDROOT
BRANCH   1   7
ATOM      7  O   UNL     1      -9.479   6.771 131.478  0.00  0.00    +0.000 OA
BRANCH   7   8
ATOM      8  C   UNL     1     -10.606   6.121 130.883  0.00  0.00    +0.000 C 
BRANCH   8   9
ATOM      9  C   UNL     1     -11.901   6.827 131.281  0.00  0.00    +0.000 C 
BRANCH   9  11
ATOM     10  C   UNL     1     -12.974   9.118 130.825  0.00  0.00    +0.000 C 
ATOM     11  N   UNL     1     -12.251   7.935 130.389  0.00  0.00    +0.000 N 
BRANCH  11  12
ATOM     12  C   UNL     1     -12.042   7.752 129.026  0.00  0.00    +0.000 A 
ATOM     13  C   UNL     1     -13.029   7.134 128.253  0.00  0.00    +0.000 A 
ATOM     14  C   UNL     1     -12.851   6.954 126.884  0.00  0.00    +0.000 A 
ATOM     15  C   UNL     1     -11.671   7.376 126.299  0.00  0.00    +0.000 A 
ATOM     16  C   UNL     1     -10.734   7.980 127.117  0.00  0.00    +0.000 A 
ATOM     17  N   UNL     1     -10.903   8.193 128.448  0.00  0.00    +0.000 NA
ENDBRANCH  11  12
ENDBRANCH   9  11
ENDBRANCH   8   9
ENDBRANCH   7   8
ENDBRANCH   1   7
BRANCH   4  18
ATOM     18  C   UNL     1      -4.517   4.523 129.733  0.00  0.00    +0.000 C 
BRANCH  18  19
ATOM     19  C   UNL     1      -4.257   4.474 128.200  0.00  0.00    +0.000 C 
ATOM     20  S   UNL     1      -3.821   2.823 127.515  0.00  0.00    +0.000 S 
ATOM     21  C   UNL     1      -2.212   3.349 127.056  0.00  0.00    +0.000 C 
ATOM     22  O   UNL     1      -1.261   2.587 126.911  0.00  0.00    +0.000 OA
ATOM     23  N   UNL     1      -2.124   4.702 127.120  0.00  0.00    +0.000 N 
ATOM     24  C   UNL     1      -3.109   5.385 127.787  0.00  0.00    +0.000 C 
ATOM     25  O   UNL     1      -3.022   6.572 128.069  0.00  0.00    +0.000 OA
ATOM     26  H   UNL     1      -1.210   5.133 127.065  0.00  0.00    +0.000 HD
ENDBRANCH  18  19
ENDBRANCH   4  18
TORSDOF 7
ENDMDL
MODEL 8
REMARK VINA RESULT:      -6.6      2.394      3.127
REMARK  Name = Rosiglitazone
REMARK  8 active torsions:
REMARK  status: ('A' for Active; 'I' for Inactive)
REMARK    1  A    between atoms: C_1  and  N_2
REMARK    2  A    between atoms: N_2  and  C_3
REMARK    3  A    between atoms: N_2  and  C_20
REMARK    4  A    between atoms: C_3  and  C_4
REMARK    5  A    between atoms: C_4  and  O_5
REMARK    6  A    between atoms: O_5  and  C_6
REMARK    7  A    between atoms: C_9  and  C_10
REMARK    8  A    between atoms: C_10  and  C_11
REMARK                            x       y       z     vdW  Elec       q    Type
REMARK                         _______ _______ _______ _____ _____    ______ ____
ROOT
ATOM      1  C   UNL     1      -8.948  -2.742 126.386  0.00  0.00    +0.000 A 
ATOM      2  C   UNL     1      -9.089  -3.703 127.392  0.00  0.00    +0.000 A 
ATOM      3  C   UNL     1      -8.353  -3.625 128.594  0.00  0.00    +0.000 A 
ATOM      4  C   UNL     1      -7.414  -2.611 128.772  0.00  0.00    +0.000 A 
ATOM      5  C   UNL     1      -7.340  -1.677 127.745  0.00  0.00    +0.000 A 
ATOM      6  C   UNL     1      -8.057  -1.719 126.571  0.00  0.00    +0.000 A 
ENDROOT
BRANCH   1   7
ATOM      7  O   UNL     1      -9.781  -2.802 125.308  0.00  0.00    +0.000 OA
BRANCH   7   8
ATOM      8  C   UNL     1      -9.142  -3.295 124.127  0.00  0.00    +0.000 C 
BRANCH   8   9
ATOM      9  C   UNL     1      -9.155  -2.233 123.029  0.00  0.00    +0.000 C 
BRANCH   9  11
ATOM     10  C   UNL     1      -6.613  -1.857 123.011  0.00  0.00    +0.000 C 
ATOM     11  N   UNL     1      -7.978  -1.362 123.056  0.00  0.00    +0.000 N 
BRANCH  11  12
ATOM     12  C   UNL     1      -8.184  -0.013 123.327  0.00  0.00    +0.000 A 
ATOM     13  C   UNL     1      -9.469   0.442 123.634  0.00  0.00    +0.000 A 
ATOM     14  C   UNL     1      -9.698   1.784 123.924  0.00  0.00    +0.000 A 
ATOM     15  C   UNL     1      -8.638   2.671 123.881  0.00  0.00    +0.000 A 
ATOM     16  C   UNL     1      -7.391   2.159 123.571  0.00  0.00    +0.000 A 
ATOM     17  N   UNL     1      -7.143   0.848 123.317  0.00  0.00    +0.000 NA
ENDBRANCH  11  12
ENDBRANCH   9  11
ENDBRANCH   8   9
ENDBRANCH   7   8
ENDBRANCH   1   7
BRANCH   4  18
ATOM     18  C   UNL     1      -6.493  -2.552 129.982  0.00  0.00    +0.000 C 
BRANCH  18  19
ATOM     19  C   UNL     1      -6.587  -1.320 130.928  0.00  0.00    +0.000 C 
ATOM     20  S   UNL     1      -8.269  -0.609 131.151  0.00  0.00    +0.000 S 
ATOM     21  C   UNL     1      -7.820   0.903 130.385  0.00  0.00    +0.000 C 
ATOM     22  O   UNL     1      -8.623   1.662 129.852  0.00  0.00    +0.000 OA
ATOM     23  N   UNL     1      -6.470   0.984 130.263  0.00  0.00    +0.000 N 
ATOM     24  C   UNL     1      -5.733  -0.159 130.438  0.00  0.00    +0.000 C 
ATOM     25  O   UNL     1      -4.545  -0.234 130.159  0.00  0.00    +0.000 OA
ATOM     26  H   UNL     1      -6.079   1.709 129.676  0.00  0.00    +0.000 HD
ENDBRANCH  18  19
ENDBRANCH   4  18
TORSDOF 7
ENDMDL
MODEL 9
REMARK VINA RESULT:      -6.6      5.847      9.137
REMARK  Name = Rosiglitazone
REMARK  8 active torsions:
REMARK  status: ('A' for Active; 'I' for Inactive)
REMARK    1  A    between atoms: C_1  and  N_2
REMARK    2  A    between atoms: N_2  and  C_3
REMARK    3  A    between atoms: N_2  and  C_20
REMARK    4  A    between atoms: C_3  and  C_4
REMARK    5  A    between atoms: C_4  and  O_5
REMARK    6  A    between atoms: O_5  and  C_6
REMARK    7  A    between atoms: C_9  and  C_10
REMARK    8  A    between atoms: C_10  and  C_11
REMARK                            x       y       z     vdW  Elec       q    Type
REMARK                         _______ _______ _______ _____ _____    ______ ____
ROOT
ATOM      1  C   UNL     1      -3.432   4.332 127.351  0.00  0.00    +0.000 A 
ATOM      2  C   UNL     1      -4.485   5.053 126.781  0.00  0.00    +0.000 A 
ATOM      3  C   UNL     1      -5.465   4.423 125.985  0.00  0.00    +0.000 A 
ATOM      4  C   UNL     1      -5.362   3.064 125.697  0.00  0.00    +0.000 A 
ATOM      5  C   UNL     1      -4.306   2.401 126.313  0.00  0.00    +0.000 A 
ATOM      6  C   UNL     1      -3.346   2.987 127.106  0.00  0.00    +0.000 A 
ENDROOT
BRANCH   1   7
ATOM      7  O   UNL     1      -2.594   4.975 128.214  0.00  0.00    +0.000 OA
BRANCH   7   8
ATOM      8  C   UNL     1      -3.268   5.905 129.067  0.00  0.00    +0.000 C 
BRANCH   8   9
ATOM      9  C   UNL     1      -3.816   5.195 130.303  0.00  0.00    +0.000 C 
BRANCH   9  11
ATOM     10  C   UNL     1      -5.744   6.381 131.522  0.00  0.00    +0.000 C 
ATOM     11  N   UNL     1      -5.242   5.447 130.527  0.00  0.00    +0.000 N 
BRANCH  11  12
ATOM     12  C   UNL     1      -6.151   4.614 129.884  0.00  0.00    +0.000 A 
ATOM     13  C   UNL     1      -5.923   3.235 129.856  0.00  0.00    +0.000 A 
ATOM     14  C   UNL     1      -6.826   2.378 129.233  0.00  0.00    +0.000 A 
ATOM     15  C   UNL     1      -7.944   2.912 128.619  0.00  0.00    +0.000 A 
ATOM     16  C   UNL     1      -8.113   4.283 128.681  0.00  0.00    +0.000 A 
ATOM     17  N   UNL     1      -7.259   5.131 129.312  0.00  0.00    +0.000 NA
ENDBRANCH  11  12
ENDBRANCH   9  11
ENDBRANCH   8   9
ENDBRANCH   7   8
ENDBRANCH   1   7
BRANCH   4  18
ATOM     18  C   UNL     1      -6.305   2.356 124.736  0.00  0.00    +0.000 C 
BRANCH  18  19
ATOM     19  C   UNL     1      -7.660   1.822 125.282  0.00  0.00    +0.000 C 
ATOM     20  S   UNL     1      -8.171   0.164 124.671  0.00  0.00    +0.000 S 
ATOM     21  C   UNL     1      -9.571   0.813 123.837  0.00  0.00    +0.000 C 
ATOM     22  O   UNL     1     -10.112   0.262 122.883  0.00  0.00    +0.000 OA
ATOM     23  N   UNL     1      -9.807   2.088 124.238  0.00  0.00    +0.000 N 
ATOM     24  C   UNL     1      -8.819   2.743 124.929  0.00  0.00    +0.000 C 
ATOM     25  O   UNL     1      -8.854   3.944 125.160  0.00  0.00    +0.000 OA
ATOM     26  H   UNL     1     -10.462   2.649 123.711  0.00  0.00    +0.000 HD
ENDBRANCH  18  19
ENDBRANCH   4  18
TORSDOF 7
ENDMDL
