MODEL 1
REMARK VINA RESULT:      -7.1      0.000      0.000
REMARK  Name = Rosoxacin
REMARK  5 active torsions:
REMARK  status: ('A' for Active; 'I' for Inactive)
REMARK    1  A    between atoms: C_1  and  C_2
REMARK    2  A    between atoms: C_2  and  N_3
REMARK    3  A    between atoms: C_5  and  C_6
REMARK    4  A    between atoms: C_6  and  O_7
REMARK    5  A    between atoms: C_14  and  C_17
REMARK                            x       y       z     vdW  Elec       q    Type
REMARK                         _______ _______ _______ _____ _____    ______ ____
ROOT
ATOM      1  N   UNL     1      -6.506  -1.367 126.074  0.00  0.00    +0.000 N 
ATOM      2  C   UNL     1      -7.045  -1.259 124.796  0.00  0.00    +0.000 A 
ATOM      3  C   UNL     1      -8.189  -1.811 124.366  0.00  0.00    +0.000 A 
ATOM      4  C   UNL     1      -8.949  -2.619 125.332  0.00  0.00    +0.000 A 
ATOM      5  O   UNL     1     -10.003  -3.161 124.998  0.00  0.00    +0.000 OA
ATOM      6  C   UNL     1      -8.385  -2.796 126.681  0.00  0.00    +0.000 A 
ATOM      7  C   UNL     1      -7.184  -2.148 127.029  0.00  0.00    +0.000 A 
ATOM      8  C   UNL     1      -6.719  -2.355 128.327  0.00  0.00    +0.000 A 
ATOM      9  C   UNL     1      -7.281  -3.334 129.155  0.00  0.00    +0.000 A 
ATOM     10  C   UNL     1      -8.389  -4.059 128.710  0.00  0.00    +0.000 A 
ATOM     11  C   UNL     1      -9.028  -3.684 127.543  0.00  0.00    +0.000 A 
ENDROOT
BRANCH   9  12
ATOM     12  C   UNL     1      -6.775  -3.520 130.508  0.00  0.00    +0.000 A 
ATOM     13  C   UNL     1      -5.749  -4.422 130.783  0.00  0.00    +0.000 A 
ATOM     14  C   UNL     1      -5.452  -4.682 132.107  0.00  0.00    +0.000 A 
ATOM     15  N   UNL     1      -6.006  -4.020 133.145  0.00  0.00    +0.000 NA
ATOM     16  C   UNL     1      -6.918  -3.074 132.849  0.00  0.00    +0.000 A 
ATOM     17  C   UNL     1      -7.364  -2.823 131.568  0.00  0.00    +0.000 A 
ENDBRANCH   9  12
BRANCH   1  19
ATOM     18  C   UNL     1      -5.492   0.849 126.244  0.00  0.00    +0.000 C 
ATOM     19  C   UNL     1      -5.281  -0.642 126.452  0.00  0.00    +0.000 C 
ENDBRANCH   1  19
BRANCH   3  20
ATOM     20  C   UNL     1      -8.629  -1.598 122.972  0.00  0.00    +0.000 C 
ATOM     21  O   UNL     1      -8.007  -2.001 122.009  0.00  0.00    +0.000 OA
BRANCH  20  22
ATOM     22  O   UNL     1      -9.789  -0.910 122.851  0.00  0.00    +0.000 OA
ATOM     23  H   UNL     1      -9.986  -0.303 123.607  0.00  0.00    +0.000 HD
ENDBRANCH  20  22
ENDBRANCH   3  20
TORSDOF 4
ENDMDL
MODEL 2
REMARK VINA RESULT:      -7.0      2.365      3.157
REMARK  Name = Rosoxacin
REMARK  5 active torsions:
REMARK  status: ('A' for Active; 'I' for Inactive)
REMARK    1  A    between atoms: C_1  and  C_2
REMARK    2  A    between atoms: C_2  and  N_3
REMARK    3  A    between atoms: C_5  and  C_6
REMARK    4  A    between atoms: C_6  and  O_7
REMARK    5  A    between atoms: C_14  and  C_17
REMARK                            x       y       z     vdW  Elec       q    Type
REMARK                         _______ _______ _______ _____ _____    ______ ____
ROOT
ATOM      1  N   UNL     1      -8.460  -1.747 126.070  0.00  0.00    +0.000 N 
ATOM      2  C   UNL     1      -9.052  -0.769 125.278  0.00  0.00    +0.000 A 
ATOM      3  C   UNL     1      -9.209   0.525 125.595  0.00  0.00    +0.000 A 
ATOM      4  C   UNL     1      -8.718   0.957 126.912  0.00  0.00    +0.000 A 
ATOM      5  O   UNL     1      -8.840   2.130 127.268  0.00  0.00    +0.000 OA
ATOM      6  C   UNL     1      -8.129  -0.061 127.799  0.00  0.00    +0.000 A 
ATOM      7  C   UNL     1      -7.995  -1.389 127.349  0.00  0.00    +0.000 A 
ATOM      8  C   UNL     1      -7.418  -2.292 128.241  0.00  0.00    +0.000 A 
ATOM      9  C   UNL     1      -7.205  -1.956 129.583  0.00  0.00    +0.000 A 
ATOM     10  C   UNL     1      -7.491  -0.661 130.023  0.00  0.00    +0.000 A 
ATOM     11  C   UNL     1      -7.805   0.320 129.101  0.00  0.00    +0.000 A 
ENDROOT
BRANCH   9  12
ATOM     12  C   UNL     1      -6.595  -2.922 130.487  0.00  0.00    +0.000 A 
ATOM     13  C   UNL     1      -5.856  -4.001 130.007  0.00  0.00    +0.000 A 
ATOM     14  C   UNL     1      -5.470  -4.974 130.908  0.00  0.00    +0.000 A 
ATOM     15  N   UNL     1      -5.652  -4.878 132.243  0.00  0.00    +0.000 NA
ATOM     16  C   UNL     1      -6.274  -3.771 132.695  0.00  0.00    +0.000 A 
ATOM     17  C   UNL     1      -6.798  -2.801 131.866  0.00  0.00    +0.000 A 
ENDBRANCH   9  12
BRANCH   1  19
ATOM     18  C   UNL     1      -9.079  -3.317 124.304  0.00  0.00    +0.000 C 
ATOM     19  C   UNL     1      -8.269  -3.122 125.575  0.00  0.00    +0.000 C 
ENDBRANCH   1  19
BRANCH   3  20
ATOM     20  C   UNL     1      -9.858   1.442 124.637  0.00  0.00    +0.000 C 
ATOM     21  O   UNL     1     -10.727   1.090 123.862  0.00  0.00    +0.000 OA
BRANCH  20  22
ATOM     22  O   UNL     1      -9.405   2.717 124.688  0.00  0.00    +0.000 OA
ATOM     23  H   UNL     1      -9.778   3.255 125.430  0.00  0.00    +0.000 HD
ENDBRANCH  20  22
ENDBRANCH   3  20
TORSDOF 4
ENDMDL
MODEL 3
REMARK VINA RESULT:      -7.0      2.104      3.006
REMARK  Name = Rosoxacin
REMARK  5 active torsions:
REMARK  status: ('A' for Active; 'I' for Inactive)
REMARK    1  A    between atoms: C_1  and  C_2
REMARK    2  A    between atoms: C_2  and  N_3
REMARK    3  A    between atoms: C_5  and  C_6
REMARK    4  A    between atoms: C_6  and  O_7
REMARK    5  A    between atoms: C_14  and  C_17
REMARK                            x       y       z     vdW  Elec       q    Type
REMARK                         _______ _______ _______ _____ _____    ______ ____
ROOT
ATOM      1  N   UNL     1      -7.643  -1.861 124.460  0.00  0.00    +0.000 N 
ATOM      2  C   UNL     1      -8.433  -1.047 123.655  0.00  0.00    +0.000 A 
ATOM      3  C   UNL     1      -9.036   0.093 124.024  0.00  0.00    +0.000 A 
ATOM      4  C   UNL     1      -8.858   0.526 125.418  0.00  0.00    +0.000 A 
ATOM      5  O   UNL     1      -9.392   1.559 125.823  0.00  0.00    +0.000 OA
ATOM      6  C   UNL     1      -8.067  -0.336 126.314  0.00  0.00    +0.000 A 
ATOM      7  C   UNL     1      -7.460  -1.502 125.809  0.00  0.00    +0.000 A 
ATOM      8  C   UNL     1      -6.719  -2.259 126.715  0.00  0.00    +0.000 A 
ATOM      9  C   UNL     1      -6.773  -2.008 128.091  0.00  0.00    +0.000 A 
ATOM     10  C   UNL     1      -7.511  -0.920 128.564  0.00  0.00    +0.000 A 
ATOM     11  C   UNL     1      -8.027  -0.003 127.667  0.00  0.00    +0.000 A 
ENDROOT
BRANCH   9  12
ATOM     12  C   UNL     1      -5.982  -2.815 129.010  0.00  0.00    +0.000 A 
ATOM     13  C   UNL     1      -6.583  -3.586 130.002  0.00  0.00    +0.000 A 
ATOM     14  C   UNL     1      -5.768  -4.173 130.951  0.00  0.00    +0.000 A 
ATOM     15  N   UNL     1      -4.418  -4.151 130.898  0.00  0.00    +0.000 NA
ATOM     16  C   UNL     1      -3.858  -3.490 129.866  0.00  0.00    +0.000 A 
ATOM     17  C   UNL     1      -4.586  -2.777 128.936  0.00  0.00    +0.000 A 
ENDBRANCH   9  12
BRANCH   1  19
ATOM     18  C   UNL     1      -5.679  -2.620 123.222  0.00  0.00    +0.000 C 
ATOM     19  C   UNL     1      -6.962  -3.048 123.916  0.00  0.00    +0.000 C 
ENDBRANCH   1  19
BRANCH   3  20
ATOM     20  C   UNL     1      -9.843   0.847 123.043  0.00  0.00    +0.000 C 
ATOM     21  O   UNL     1     -10.807   0.378 122.472  0.00  0.00    +0.000 OA
BRANCH  20  22
ATOM     22  O   UNL     1      -9.417   2.115 122.826  0.00  0.00    +0.000 OA
ATOM     23  H   UNL     1      -8.665   2.398 123.403  0.00  0.00    +0.000 HD
ENDBRANCH  20  22
ENDBRANCH   3  20
TORSDOF 4
ENDMDL
MODEL 4
REMARK VINA RESULT:      -6.8      0.818      1.438
REMARK  Name = Rosoxacin
REMARK  5 active torsions:
REMARK  status: ('A' for Active; 'I' for Inactive)
REMARK    1  A    between atoms: C_1  and  C_2
REMARK    2  A    between atoms: C_2  and  N_3
REMARK    3  A    between atoms: C_5  and  C_6
REMARK    4  A    between atoms: C_6  and  O_7
REMARK    5  A    between atoms: C_14  and  C_17
REMARK                            x       y       z     vdW  Elec       q    Type
REMARK                         _______ _______ _______ _____ _____    ______ ____
ROOT
ATOM      1  N   UNL     1      -7.147  -0.393 126.744  0.00  0.00    +0.000 N 
ATOM      2  C   UNL     1      -7.653  -0.152 125.472  0.00  0.00    +0.000 A 
ATOM      3  C   UNL     1      -8.562  -0.894 124.822  0.00  0.00    +0.000 A 
ATOM      4  C   UNL     1      -9.071  -2.089 125.514  0.00  0.00    +0.000 A 
ATOM      5  O   UNL     1      -9.900  -2.818 124.969  0.00  0.00    +0.000 OA
ATOM      6  C   UNL     1      -8.521  -2.404 126.844  0.00  0.00    +0.000 A 
ATOM      7  C   UNL     1      -7.585  -1.537 127.439  0.00  0.00    +0.000 A 
ATOM      8  C   UNL     1      -7.119  -1.897 128.703  0.00  0.00    +0.000 A 
ATOM      9  C   UNL     1      -7.383  -3.161 129.244  0.00  0.00    +0.000 A 
ATOM     10  C   UNL     1      -8.204  -4.051 128.547  0.00  0.00    +0.000 A 
ATOM     11  C   UNL     1      -8.890  -3.615 127.429  0.00  0.00    +0.000 A 
ENDROOT
BRANCH   9  12
ATOM     12  C   UNL     1      -6.886  -3.503 130.569  0.00  0.00    +0.000 A 
ATOM     13  C   UNL     1      -7.383  -2.883 131.714  0.00  0.00    +0.000 A 
ATOM     14  C   UNL     1      -6.736  -3.119 132.912  0.00  0.00    +0.000 A 
ATOM     15  N   UNL     1      -5.735  -4.013 133.062  0.00  0.00    +0.000 NA
ATOM     16  C   UNL     1      -5.344  -4.682 131.959  0.00  0.00    +0.000 A 
ATOM     17  C   UNL     1      -5.849  -4.432 130.700  0.00  0.00    +0.000 A 
ENDBRANCH   9  12
BRANCH   1  19
ATOM     18  C   UNL     1      -5.136   0.948 126.393  0.00  0.00    +0.000 C 
ATOM     19  C   UNL     1      -6.212   0.546 127.388  0.00  0.00    +0.000 C 
ENDBRANCH   1  19
BRANCH   3  20
ATOM     20  C   UNL     1      -9.002  -0.498 123.470  0.00  0.00    +0.000 C 
ATOM     21  O   UNL     1      -9.369   0.627 123.191  0.00  0.00    +0.000 OA
BRANCH  20  22
ATOM     22  O   UNL     1      -8.966  -1.497 122.555  0.00  0.00    +0.000 OA
ATOM     23  H   UNL     1      -9.355  -1.262 121.677  0.00  0.00    +0.000 HD
ENDBRANCH  20  22
ENDBRANCH   3  20
TORSDOF 4
ENDMDL
MODEL 5
REMARK VINA RESULT:      -6.8      9.140     10.738
REMARK  Name = Rosoxacin
REMARK  5 active torsions:
REMARK  status: ('A' for Active; 'I' for Inactive)
REMARK    1  A    between atoms: C_1  and  C_2
REMARK    2  A    between atoms: C_2  and  N_3
REMARK    3  A    between atoms: C_5  and  C_6
REMARK    4  A    between atoms: C_6  and  O_7
REMARK    5  A    between atoms: C_14  and  C_17
REMARK                            x       y       z     vdW  Elec       q    Type
REMARK                         _______ _______ _______ _____ _____    ______ ____
ROOT
ATOM      1  N   UNL     1      -8.778   5.336 132.912  0.00  0.00    +0.000 N 
ATOM      2  C   UNL     1     -10.050   5.658 132.451  0.00  0.00    +0.000 A 
ATOM      3  C   UNL     1     -10.342   6.409 131.379  0.00  0.00    +0.000 A 
ATOM      4  C   UNL     1      -9.210   6.959 130.618  0.00  0.00    +0.000 A 
ATOM      5  O   UNL     1      -9.409   7.665 129.629  0.00  0.00    +0.000 OA
ATOM      6  C   UNL     1      -7.848   6.681 131.105  0.00  0.00    +0.000 A 
ATOM      7  C   UNL     1      -7.661   5.857 132.232  0.00  0.00    +0.000 A 
ATOM      8  C   UNL     1      -6.344   5.630 132.625  0.00  0.00    +0.000 A 
ATOM      9  C   UNL     1      -5.284   6.367 132.082  0.00  0.00    +0.000 A 
ATOM     10  C   UNL     1      -5.536   7.285 131.059  0.00  0.00    +0.000 A 
ATOM     11  C   UNL     1      -6.787   7.327 130.472  0.00  0.00    +0.000 A 
ENDROOT
BRANCH   9  12
ATOM     12  C   UNL     1      -3.918   6.101 132.511  0.00  0.00    +0.000 A 
ATOM     13  C   UNL     1      -3.041   7.136 132.830  0.00  0.00    +0.000 A 
ATOM     14  C   UNL     1      -1.714   6.819 133.045  0.00  0.00    +0.000 A 
ATOM     15  N   UNL     1      -1.242   5.554 133.092  0.00  0.00    +0.000 NA
ATOM     16  C   UNL     1      -2.131   4.563 132.889  0.00  0.00    +0.000 A 
ATOM     17  C   UNL     1      -3.451   4.783 132.553  0.00  0.00    +0.000 A 
ENDBRANCH   9  12
BRANCH   1  19
ATOM     18  C   UNL     1      -8.678   2.988 133.579  0.00  0.00    +0.000 C 
ATOM     19  C   UNL     1      -8.585   4.428 134.056  0.00  0.00    +0.000 C 
ENDBRANCH   1  19
BRANCH   3  20
ATOM     20  C   UNL     1     -11.752   6.656 131.017  0.00  0.00    +0.000 C 
ATOM     21  O   UNL     1     -12.594   7.006 131.820  0.00  0.00    +0.000 OA
BRANCH  20  22
ATOM     22  O   UNL     1     -12.036   6.457 129.708  0.00  0.00    +0.000 OA
ATOM     23  H   UNL     1     -11.331   6.763 129.085  0.00  0.00    +0.000 HD
ENDBRANCH  20  22
ENDBRANCH   3  20
TORSDOF 4
ENDMDL
MODEL 6
REMARK VINA RESULT:      -6.5      9.969     11.173
REMARK  Name = Rosoxacin
REMARK  5 active torsions:
REMARK  status: ('A' for Active; 'I' for Inactive)
REMARK    1  A    between atoms: C_1  and  C_2
REMARK    2  A    between atoms: C_2  and  N_3
REMARK    3  A    between atoms: C_5  and  C_6
REMARK    4  A    between atoms: C_6  and  O_7
REMARK    5  A    between atoms: C_14  and  C_17
REMARK                            x       y       z     vdW  Elec       q    Type
REMARK                         _______ _______ _______ _____ _____    ______ ____
ROOT
ATOM      1  N   UNL     1      -7.766   5.512 133.267  0.00  0.00    +0.000 N 
ATOM      2  C   UNL     1      -9.109   5.633 132.926  0.00  0.00    +0.000 A 
ATOM      3  C   UNL     1      -9.600   6.197 131.813  0.00  0.00    +0.000 A 
ATOM      4  C   UNL     1      -8.629   6.754 130.859  0.00  0.00    +0.000 A 
ATOM      5  O   UNL     1      -9.014   7.294 129.821  0.00  0.00    +0.000 OA
ATOM      6  C   UNL     1      -7.199   6.688 131.209  0.00  0.00    +0.000 A 
ATOM      7  C   UNL     1      -6.798   6.049 132.398  0.00  0.00    +0.000 A 
ATOM      8  C   UNL     1      -5.428   6.017 132.655  0.00  0.00    +0.000 A 
ATOM      9  C   UNL     1      -4.527   6.780 131.901  0.00  0.00    +0.000 A 
ATOM     10  C   UNL     1      -4.994   7.519 130.812  0.00  0.00    +0.000 A 
ATOM     11  C   UNL     1      -6.296   7.350 130.378  0.00  0.00    +0.000 A 
ENDROOT
BRANCH   9  12
ATOM     12  C   UNL     1      -3.102   6.719 132.193  0.00  0.00    +0.000 A 
ATOM     13  C   UNL     1      -2.392   5.523 132.108  0.00  0.00    +0.000 A 
ATOM     14  C   UNL     1      -1.094   5.504 132.578  0.00  0.00    +0.000 A 
ATOM     15  N   UNL     1      -0.430   6.604 132.994  0.00  0.00    +0.000 NA
ATOM     16  C   UNL     1      -1.102   7.771 132.965  0.00  0.00    +0.000 A 
ATOM     17  C   UNL     1      -2.435   7.871 132.622  0.00  0.00    +0.000 A 
ENDBRANCH   9  12
BRANCH   1  19
ATOM     18  C   UNL     1      -7.596   5.669 135.699  0.00  0.00    +0.000 C 
ATOM     19  C   UNL     1      -7.346   4.793 134.482  0.00  0.00    +0.000 C 
ENDBRANCH   1  19
BRANCH   3  20
ATOM     20  C   UNL     1     -11.060   6.243 131.595  0.00  0.00    +0.000 C 
ATOM     21  O   UNL     1     -11.822   6.853 132.319  0.00  0.00    +0.000 OA
BRANCH  20  22
ATOM     22  O   UNL     1     -11.487   5.543 130.517  0.00  0.00    +0.000 OA
ATOM     23  H   UNL     1     -10.909   5.628 129.719  0.00  0.00    +0.000 HD
ENDBRANCH  20  22
ENDBRANCH   3  20
TORSDOF 4
ENDMDL
MODEL 7
REMARK VINA RESULT:      -6.4      5.795      6.944
REMARK  Name = Rosoxacin
REMARK  5 active torsions:
REMARK  status: ('A' for Active; 'I' for Inactive)
REMARK    1  A    between atoms: C_1  and  C_2
REMARK    2  A    between atoms: C_2  and  N_3
REMARK    3  A    between atoms: C_5  and  C_6
REMARK    4  A    between atoms: C_6  and  O_7
REMARK    5  A    between atoms: C_14  and  C_17
REMARK                            x       y       z     vdW  Elec       q    Type
REMARK                         _______ _______ _______ _____ _____    ______ ____
ROOT
ATOM      1  N   UNL     1      -7.473   2.984 123.254  0.00  0.00    +0.000 N 
ATOM      2  C   UNL     1      -8.599   2.271 122.858  0.00  0.00    +0.000 A 
ATOM      3  C   UNL     1      -9.448   1.612 123.660  0.00  0.00    +0.000 A 
ATOM      4  C   UNL     1      -9.160   1.633 125.103  0.00  0.00    +0.000 A 
ATOM      5  O   UNL     1      -9.895   1.040 125.893  0.00  0.00    +0.000 OA
ATOM      6  C   UNL     1      -7.948   2.337 125.556  0.00  0.00    +0.000 A 
ATOM      7  C   UNL     1      -7.141   3.015 124.622  0.00  0.00    +0.000 A 
ATOM      8  C   UNL     1      -6.018   3.667 125.128  0.00  0.00    +0.000 A 
ATOM      9  C   UNL     1      -5.587   3.462 126.444  0.00  0.00    +0.000 A 
ATOM     10  C   UNL     1      -6.345   2.659 127.299  0.00  0.00    +0.000 A 
ATOM     11  C   UNL     1      -7.596   2.226 126.900  0.00  0.00    +0.000 A 
ENDROOT
BRANCH   9  12
ATOM     12  C   UNL     1      -4.412   4.163 126.943  0.00  0.00    +0.000 A 
ATOM     13  C   UNL     1      -3.187   3.516 127.090  0.00  0.00    +0.000 A 
ATOM     14  C   UNL     1      -2.172   4.189 127.742  0.00  0.00    +0.000 A 
ATOM     15  N   UNL     1      -2.255   5.480 128.130  0.00  0.00    +0.000 NA
ATOM     16  C   UNL     1      -3.415   6.120 127.879  0.00  0.00    +0.000 A 
ATOM     17  C   UNL     1      -4.522   5.500 127.339  0.00  0.00    +0.000 A 
ENDBRANCH   9  12
BRANCH   1  19
ATOM     18  C   UNL     1      -5.936   2.769 121.368  0.00  0.00    +0.000 C 
ATOM     19  C   UNL     1      -6.663   3.740 122.283  0.00  0.00    +0.000 C 
ENDBRANCH   1  19
BRANCH   3  20
ATOM     20  C   UNL     1     -10.607   0.903 123.081  0.00  0.00    +0.000 C 
ATOM     21  O   UNL     1     -10.510   0.100 122.173  0.00  0.00    +0.000 OA
BRANCH  20  22
ATOM     22  O   UNL     1     -11.797   1.223 123.643  0.00  0.00    +0.000 OA
ATOM     23  H   UNL     1     -11.823   1.125 124.627  0.00  0.00    +0.000 HD
ENDBRANCH  20  22
ENDBRANCH   3  20
TORSDOF 4
ENDMDL
MODEL 8
REMARK VINA RESULT:      -6.4      5.149      7.336
REMARK  Name = Rosoxacin
REMARK  5 active torsions:
REMARK  status: ('A' for Active; 'I' for Inactive)
REMARK    1  A    between atoms: C_1  and  C_2
REMARK    2  A    between atoms: C_2  and  N_3
REMARK    3  A    between atoms: C_5  and  C_6
REMARK    4  A    between atoms: C_6  and  O_7
REMARK    5  A    between atoms: C_14  and  C_17
REMARK                            x       y       z     vdW  Elec       q    Type
REMARK                         _______ _______ _______ _____ _____    ______ ____
ROOT
ATOM      1  N   UNL     1      -5.926   3.453 125.023  0.00  0.00    +0.000 N 
ATOM      2  C   UNL     1      -5.097   4.350 125.688  0.00  0.00    +0.000 A 
ATOM      3  C   UNL     1      -4.376   4.100 126.792  0.00  0.00    +0.000 A 
ATOM      4  C   UNL     1      -4.476   2.749 127.366  0.00  0.00    +0.000 A 
ATOM      5  O   UNL     1      -3.847   2.458 128.384  0.00  0.00    +0.000 OA
ATOM      6  C   UNL     1      -5.383   1.787 126.718  0.00  0.00    +0.000 A 
ATOM      7  C   UNL     1      -6.073   2.155 125.546  0.00  0.00    +0.000 A 
ATOM      8  C   UNL     1      -6.904   1.186 124.984  0.00  0.00    +0.000 A 
ATOM      9  C   UNL     1      -7.217   0.007 125.671  0.00  0.00    +0.000 A 
ATOM     10  C   UNL     1      -6.617  -0.251 126.905  0.00  0.00    +0.000 A 
ATOM     11  C   UNL     1      -5.591   0.562 127.350  0.00  0.00    +0.000 A 
ENDROOT
BRANCH   9  12
ATOM     12  C   UNL     1      -8.084  -0.986 125.052  0.00  0.00    +0.000 A 
ATOM     13  C   UNL     1      -8.685  -1.995 125.802  0.00  0.00    +0.000 A 
ATOM     14  C   UNL     1      -9.337  -3.007 125.124  0.00  0.00    +0.000 A 
ATOM     15  N   UNL     1      -9.537  -3.008 123.789  0.00  0.00    +0.000 NA
ATOM     16  C   UNL     1      -9.040  -1.965 123.096  0.00  0.00    +0.000 A 
ATOM     17  C   UNL     1      -8.277  -0.968 123.667  0.00  0.00    +0.000 A 
ENDBRANCH   9  12
BRANCH   1  19
ATOM     18  C   UNL     1      -5.560   4.120 122.702  0.00  0.00    +0.000 C 
ATOM     19  C   UNL     1      -6.602   3.822 123.767  0.00  0.00    +0.000 C 
ENDBRANCH   1  19
BRANCH   3  20
ATOM     20  C   UNL     1      -3.537   5.164 127.377  0.00  0.00    +0.000 C 
ATOM     21  O   UNL     1      -3.953   6.278 127.629  0.00  0.00    +0.000 OA
BRANCH  20  22
ATOM     22  O   UNL     1      -2.254   4.799 127.613  0.00  0.00    +0.000 OA
ATOM     23  H   UNL     1      -1.865   5.182 128.438  0.00  0.00    +0.000 HD
ENDBRANCH  20  22
ENDBRANCH   3  20
TORSDOF 4
ENDMDL
MODEL 9
REMARK VINA RESULT:      -6.4      2.740      4.319
REMARK  Name = Rosoxacin
REMARK  5 active torsions:
REMARK  status: ('A' for Active; 'I' for Inactive)
REMARK    1  A    between atoms: C_1  and  C_2
REMARK    2  A    between atoms: C_2  and  N_3
REMARK    3  A    between atoms: C_5  and  C_6
REMARK    4  A    between atoms: C_6  and  O_7
REMARK    5  A    between atoms: C_14  and  C_17
REMARK                            x       y       z     vdW  Elec       q    Type
REMARK                         _______ _______ _______ _____ _____    ______ ____
ROOT
ATOM      1  N   UNL     1      -8.036  -0.322 124.351  0.00  0.00    +0.000 N 
ATOM      2  C   UNL     1      -8.198   0.796 123.539  0.00  0.00    +0.000 A 
ATOM      3  C   UNL     1      -7.501   1.940 123.610  0.00  0.00    +0.000 A 
ATOM      4  C   UNL     1      -6.469   2.032 124.654  0.00  0.00    +0.000 A 
ATOM      5  O   UNL     1      -5.799   3.058 124.780  0.00  0.00    +0.000 OA
ATOM      6  C   UNL     1      -6.302   0.886 125.565  0.00  0.00    +0.000 A 
ATOM      7  C   UNL     1      -7.077  -0.275 125.380  0.00  0.00    +0.000 A 
ATOM      8  C   UNL     1      -6.854  -1.321 126.274  0.00  0.00    +0.000 A 
ATOM      9  C   UNL     1      -6.082  -1.141 127.428  0.00  0.00    +0.000 A 
ATOM     10  C   UNL     1      -5.445   0.083 127.647  0.00  0.00    +0.000 A 
ATOM     11  C   UNL     1      -5.432   1.035 126.644  0.00  0.00    +0.000 A 
ENDROOT
BRANCH   9  12
ATOM     12  C   UNL     1      -5.864  -2.256 128.339  0.00  0.00    +0.000 A 
ATOM     13  C   UNL     1      -6.929  -2.912 128.954  0.00  0.00    +0.000 A 
ATOM     14  C   UNL     1      -6.640  -3.830 129.944  0.00  0.00    +0.000 A 
ATOM     15  N   UNL     1      -5.388  -4.225 130.261  0.00  0.00    +0.000 NA
ATOM     16  C   UNL     1      -4.377  -3.656 129.576  0.00  0.00    +0.000 A 
ATOM     17  C   UNL     1      -4.558  -2.648 128.653  0.00  0.00    +0.000 A 
ENDBRANCH   9  12
BRANCH   1  19
ATOM     18  C   UNL     1      -8.371  -2.184 122.806  0.00  0.00    +0.000 C 
ATOM     19  C   UNL     1      -8.808  -1.555 124.119  0.00  0.00    +0.000 C 
ENDBRANCH   1  19
BRANCH   3  20
ATOM     20  C   UNL     1      -7.793   3.038 122.667  0.00  0.00    +0.000 C 
ATOM     21  O   UNL     1      -8.900   3.248 122.213  0.00  0.00    +0.000 OA
BRANCH  20  22
ATOM     22  O   UNL     1      -6.719   3.798 122.344  0.00  0.00    +0.000 OA
ATOM     23  H   UNL     1      -6.506   4.505 123.002  0.00  0.00    +0.000 HD
ENDBRANCH  20  22
ENDBRANCH   3  20
TORSDOF 4
ENDMDL
