MODEL 1
REMARK VINA RESULT:      -7.3      0.000      0.000
REMARK  Name = Rosuvastatin
REMARK  16 active torsions:
REMARK  status: ('A' for Active; 'I' for Inactive)
REMARK    1  A    between atoms: C_1  and  C_2
REMARK    2  A    between atoms: C_2  and  C_3
REMARK    3  A    between atoms: C_2  and  C_4
REMARK    4  A    between atoms: C_8  and  C_9
REMARK    5  A    between atoms: C_16  and  C_17
REMARK    6  A    between atoms: C_18  and  C_19
REMARK    7  A    between atoms: C_19  and  O_20
REMARK    8  A    between atoms: C_19  and  C_21
REMARK    9  A    between atoms: C_21  and  C_22
REMARK   10  A    between atoms: C_22  and  O_23
REMARK   11  A    between atoms: C_22  and  C_24
REMARK   12  A    between atoms: C_24  and  C_25
REMARK   13  A    between atoms: C_25  and  O_27
REMARK   14  A    between atoms: N_28  and  C_29
REMARK   15  A    between atoms: N_28  and  S_30
REMARK   16  A    between atoms: S_30  and  C_31
REMARK                            x       y       z     vdW  Elec       q    Type
REMARK                         _______ _______ _______ _____ _____    ______ ____
ROOT
ATOM      1  C   UNL     1      -7.699   5.669 133.125  0.00  0.00    +0.000 A 
ATOM      2  N   UNL     1      -8.872   5.955 132.485  0.00  0.00    +0.000 NA
ATOM      3  C   UNL     1      -8.858   6.378 131.222  0.00  0.00    +0.000 A 
ATOM      4  N   UNL     1      -7.740   6.642 130.564  0.00  0.00    +0.000 NA
ATOM      5  C   UNL     1      -6.561   6.320 131.169  0.00  0.00    +0.000 A 
ATOM      6  C   UNL     1      -6.427   5.824 132.493  0.00  0.00    +0.000 A 
ATOM      7  N   UNL     1     -10.098   6.845 130.719  0.00  0.00    +0.000 N 
ATOM      8  C   UNL     1     -11.348   6.516 131.430  0.00  0.00    +0.000 C 
ENDROOT
BRANCH   5   9
ATOM      9  C   UNL     1      -5.393   6.559 130.292  0.00  0.00    +0.000 A 
ATOM     10  C   UNL     1      -4.836   5.506 129.532  0.00  0.00    +0.000 A 
ATOM     11  C   UNL     1      -3.616   5.660 128.878  0.00  0.00    +0.000 A 
ATOM     12  C   UNL     1      -2.990   6.895 128.899  0.00  0.00    +0.000 A 
ATOM     13  F   UNL     1      -1.832   7.054 128.245  0.00  0.00    +0.000 F 
ATOM     14  C   UNL     1      -3.542   7.969 129.589  0.00  0.00    +0.000 A 
ATOM     15  C   UNL     1      -4.735   7.800 130.297  0.00  0.00    +0.000 A 
ENDBRANCH   5   9
BRANCH   7  16
ATOM     16  S   UNL     1     -10.226   7.196 129.081  0.00  0.00    +0.000 S 
ATOM     17  C   UNL     1     -11.993   7.141 128.821  0.00  0.00    +0.000 C 
ATOM     18  O   UNL     1      -9.741   8.526 128.796  0.00  0.00    +0.000 OA
ATOM     19  O   UNL     1      -9.685   6.062 128.346  0.00  0.00    +0.000 OA
ENDBRANCH   7  16
BRANCH   1  21
ATOM     20  C   UNL     1      -7.476   3.865 134.817  0.00  0.00    +0.000 C 
ATOM     21  C   UNL     1      -8.058   5.175 134.530  0.00  0.00    +0.000 C 
ATOM     22  C   UNL     1      -7.464   6.036 135.653  0.00  0.00    +0.000 C 
ENDBRANCH   1  21
BRANCH   6  23
ATOM     23  C   UNL     1      -4.974   5.573 132.959  0.00  0.00    +0.000 C 
ATOM     24  C   UNL     1      -4.142   6.253 133.758  0.00  0.00    +0.000 C 
BRANCH  24  25
ATOM     25  C   UNL     1      -2.814   6.368 134.367  0.00  0.00    +0.000 C 
BRANCH  25  26
ATOM     26  O   UNL     1      -2.854   5.413 135.403  0.00  0.00    +0.000 OA
ATOM     27  H   UNL     1      -2.583   5.870 136.218  0.00  0.00    +0.000 HD
ENDBRANCH  25  26
BRANCH  25  28
ATOM     28  C   UNL     1      -1.710   5.952 133.268  0.00  0.00    +0.000 C 
BRANCH  28  29
ATOM     29  C   UNL     1      -0.440   6.723 133.525  0.00  0.00    +0.000 C 
BRANCH  29  30
ATOM     30  O   UNL     1       0.071   7.134 132.263  0.00  0.00    +0.000 OA
ATOM     31  H   UNL     1       0.301   6.360 131.727  0.00  0.00    +0.000 HD
ENDBRANCH  29  30
BRANCH  29  32
ATOM     32  C   UNL     1      -0.595   7.966 134.393  0.00  0.00    +0.000 C 
BRANCH  32  33
ATOM     33  C   UNL     1      -0.423   9.166 133.468  0.00  0.00    +0.000 C 
ATOM     34  O   UNL     1       0.601   9.770 133.282  0.00  0.00    +0.000 OA
BRANCH  33  35
ATOM     35  O   UNL     1      -1.575   9.537 132.856  0.00  0.00    +0.000 OA
ATOM     36  H   UNL     1      -2.275   8.867 132.826  0.00  0.00    +0.000 HD
ENDBRANCH  33  35
ENDBRANCH  32  33
ENDBRANCH  29  32
ENDBRANCH  28  29
ENDBRANCH  25  28
ENDBRANCH  24  25
ENDBRANCH   6  23
TORSDOF 12
ENDMDL
MODEL 2
REMARK VINA RESULT:      -7.3      7.263      9.936
REMARK  Name = Rosuvastatin
REMARK  16 active torsions:
REMARK  status: ('A' for Active; 'I' for Inactive)
REMARK    1  A    between atoms: C_1  and  C_2
REMARK    2  A    between atoms: C_2  and  C_3
REMARK    3  A    between atoms: C_2  and  C_4
REMARK    4  A    between atoms: C_8  and  C_9
REMARK    5  A    between atoms: C_16  and  C_17
REMARK    6  A    between atoms: C_18  and  C_19
REMARK    7  A    between atoms: C_19  and  O_20
REMARK    8  A    between atoms: C_19  and  C_21
REMARK    9  A    between atoms: C_21  and  C_22
REMARK   10  A    between atoms: C_22  and  O_23
REMARK   11  A    between atoms: C_22  and  C_24
REMARK   12  A    between atoms: C_24  and  C_25
REMARK   13  A    between atoms: C_25  and  O_27
REMARK   14  A    between atoms: N_28  and  C_29
REMARK   15  A    between atoms: N_28  and  S_30
REMARK   16  A    between atoms: S_30  and  C_31
REMARK                            x       y       z     vdW  Elec       q    Type
REMARK                         _______ _______ _______ _____ _____    ______ ____
ROOT
ATOM      1  C   UNL     1      -7.723   0.697 129.855  0.00  0.00    +0.000 A 
ATOM      2  N   UNL     1      -8.087   1.878 130.437  0.00  0.00    +0.000 NA
ATOM      3  C   UNL     1      -8.596   2.860 129.696  0.00  0.00    +0.000 A 
ATOM      4  N   UNL     1      -8.679   2.797 128.376  0.00  0.00    +0.000 NA
ATOM      5  C   UNL     1      -8.364   1.610 127.781  0.00  0.00    +0.000 A 
ATOM      6  C   UNL     1      -7.848   0.468 128.450  0.00  0.00    +0.000 A 
ATOM      7  N   UNL     1      -8.745   4.108 130.350  0.00  0.00    +0.000 N 
ATOM      8  C   UNL     1      -8.694   4.174 131.824  0.00  0.00    +0.000 C 
ENDROOT
BRANCH   5   9
ATOM      9  C   UNL     1      -8.601   1.631 126.320  0.00  0.00    +0.000 A 
ATOM     10  C   UNL     1      -7.804   2.434 125.473  0.00  0.00    +0.000 A 
ATOM     11  C   UNL     1      -8.149   2.634 124.139  0.00  0.00    +0.000 A 
ATOM     12  C   UNL     1      -9.238   1.956 123.615  0.00  0.00    +0.000 A 
ATOM     13  F   UNL     1      -9.555   2.122 122.325  0.00  0.00    +0.000 F 
ATOM     14  C   UNL     1     -10.009   1.112 124.408  0.00  0.00    +0.000 A 
ATOM     15  C   UNL     1      -9.700   0.958 125.762  0.00  0.00    +0.000 A 
ENDBRANCH   5   9
BRANCH   7  16
ATOM     16  S   UNL     1      -9.573   5.341 129.564  0.00  0.00    +0.000 S 
ATOM     17  C   UNL     1      -9.296   6.733 130.650  0.00  0.00    +0.000 C 
ATOM     18  O   UNL     1      -8.989   5.617 128.273  0.00  0.00    +0.000 OA
ATOM     19  O   UNL     1     -10.995   5.045 129.660  0.00  0.00    +0.000 OA
ENDBRANCH   7  16
BRANCH   1  21
ATOM     20  C   UNL     1      -7.949  -1.490 131.009  0.00  0.00    +0.000 C 
ATOM     21  C   UNL     1      -7.221  -0.223 130.971  0.00  0.00    +0.000 C 
ATOM     22  C   UNL     1      -5.774  -0.697 130.771  0.00  0.00    +0.000 C 
ENDBRANCH   1  21
BRANCH   6  23
ATOM     23  C   UNL     1      -7.535  -0.742 127.541  0.00  0.00    +0.000 C 
ATOM     24  C   UNL     1      -8.204  -1.868 127.258  0.00  0.00    +0.000 C 
BRANCH  24  25
ATOM     25  C   UNL     1      -8.242  -3.151 126.552  0.00  0.00    +0.000 C 
BRANCH  25  26
ATOM     26  O   UNL     1      -8.731  -4.040 127.531  0.00  0.00    +0.000 OA
ATOM     27  H   UNL     1      -7.962  -4.347 128.041  0.00  0.00    +0.000 HD
ENDBRANCH  25  26
BRANCH  25  28
ATOM     28  C   UNL     1      -9.291  -3.032 125.333  0.00  0.00    +0.000 C 
BRANCH  28  29
ATOM     29  C   UNL     1      -8.557  -3.217 124.029  0.00  0.00    +0.000 C 
BRANCH  29  30
ATOM     30  O   UNL     1      -9.013  -2.206 123.138  0.00  0.00    +0.000 OA
ATOM     31  H   UNL     1      -8.318  -1.546 122.997  0.00  0.00    +0.000 HD
ENDBRANCH  29  30
BRANCH  29  32
ATOM     32  C   UNL     1      -7.039  -3.115 124.113  0.00  0.00    +0.000 C 
BRANCH  32  33
ATOM     33  C   UNL     1      -6.660  -1.770 123.503  0.00  0.00    +0.000 C 
ATOM     34  O   UNL     1      -6.759  -0.699 124.043  0.00  0.00    +0.000 OA
BRANCH  33  35
ATOM     35  O   UNL     1      -6.203  -1.872 122.231  0.00  0.00    +0.000 OA
ATOM     36  H   UNL     1      -6.754  -1.464 121.546  0.00  0.00    +0.000 HD
ENDBRANCH  33  35
ENDBRANCH  32  33
ENDBRANCH  29  32
ENDBRANCH  28  29
ENDBRANCH  25  28
ENDBRANCH  24  25
ENDBRANCH   6  23
TORSDOF 12
ENDMDL
MODEL 3
REMARK VINA RESULT:      -7.2      5.998      8.902
REMARK  Name = Rosuvastatin
REMARK  16 active torsions:
REMARK  status: ('A' for Active; 'I' for Inactive)
REMARK    1  A    between atoms: C_1  and  C_2
REMARK    2  A    between atoms: C_2  and  C_3
REMARK    3  A    between atoms: C_2  and  C_4
REMARK    4  A    between atoms: C_8  and  C_9
REMARK    5  A    between atoms: C_16  and  C_17
REMARK    6  A    between atoms: C_18  and  C_19
REMARK    7  A    between atoms: C_19  and  O_20
REMARK    8  A    between atoms: C_19  and  C_21
REMARK    9  A    between atoms: C_21  and  C_22
REMARK   10  A    between atoms: C_22  and  O_23
REMARK   11  A    between atoms: C_22  and  C_24
REMARK   12  A    between atoms: C_24  and  C_25
REMARK   13  A    between atoms: C_25  and  O_27
REMARK   14  A    between atoms: N_28  and  C_29
REMARK   15  A    between atoms: N_28  and  S_30
REMARK   16  A    between atoms: S_30  and  C_31
REMARK                            x       y       z     vdW  Elec       q    Type
REMARK                         _______ _______ _______ _____ _____    ______ ____
ROOT
ATOM      1  C   UNL     1      -8.421   2.889 130.265  0.00  0.00    +0.000 A 
ATOM      2  N   UNL     1      -9.175   3.982 130.588  0.00  0.00    +0.000 NA
ATOM      3  C   UNL     1      -9.384   4.940 129.687  0.00  0.00    +0.000 A 
ATOM      4  N   UNL     1      -8.806   4.947 128.496  0.00  0.00    +0.000 NA
ATOM      5  C   UNL     1      -8.088   3.844 128.138  0.00  0.00    +0.000 A 
ATOM      6  C   UNL     1      -7.817   2.732 128.979  0.00  0.00    +0.000 A 
ATOM      7  N   UNL     1      -9.995   6.121 130.179  0.00  0.00    +0.000 N 
ATOM      8  C   UNL     1     -10.676   6.103 131.489  0.00  0.00    +0.000 C 
ENDROOT
BRANCH   5   9
ATOM      9  C   UNL     1      -7.586   3.924 126.748  0.00  0.00    +0.000 A 
ATOM     10  C   UNL     1      -8.332   3.374 125.681  0.00  0.00    +0.000 A 
ATOM     11  C   UNL     1      -7.779   3.247 124.409  0.00  0.00    +0.000 A 
ATOM     12  C   UNL     1      -6.512   3.756 124.169  0.00  0.00    +0.000 A 
ATOM     13  F   UNL     1      -5.990   3.663 122.940  0.00  0.00    +0.000 F 
ATOM     14  C   UNL     1      -5.775   4.357 125.185  0.00  0.00    +0.000 A 
ATOM     15  C   UNL     1      -6.304   4.430 126.476  0.00  0.00    +0.000 A 
ENDBRANCH   5   9
BRANCH   7  16
ATOM     16  S   UNL     1     -10.491   7.293 129.082  0.00  0.00    +0.000 S 
ATOM     17  C   UNL     1     -11.909   8.003 129.905  0.00  0.00    +0.000 C 
ATOM     18  O   UNL     1      -9.477   8.307 128.913  0.00  0.00    +0.000 OA
ATOM     19  O   UNL     1     -11.019   6.604 127.914  0.00  0.00    +0.000 OA
ENDBRANCH   7  16
BRANCH   1  21
ATOM     20  C   UNL     1      -9.340   2.415 132.523  0.00  0.00    +0.000 C 
ATOM     21  C   UNL     1      -8.408   1.968 131.488  0.00  0.00    +0.000 C 
ATOM     22  C   UNL     1      -8.919   0.551 131.194  0.00  0.00    +0.000 C 
ENDBRANCH   1  21
BRANCH   6  23
ATOM     23  C   UNL     1      -6.945   1.624 128.346  0.00  0.00    +0.000 C 
ATOM     24  C   UNL     1      -7.234   0.432 127.807  0.00  0.00    +0.000 C 
BRANCH  24  25
ATOM     25  C   UNL     1      -6.753  -0.807 127.191  0.00  0.00    +0.000 C 
BRANCH  25  26
ATOM     26  O   UNL     1      -7.364  -1.810 127.971  0.00  0.00    +0.000 OA
ATOM     27  H   UNL     1      -7.167  -2.660 127.541  0.00  0.00    +0.000 HD
ENDBRANCH  25  26
BRANCH  25  28
ATOM     28  C   UNL     1      -7.299  -0.869 125.675  0.00  0.00    +0.000 C 
BRANCH  28  29
ATOM     29  C   UNL     1      -8.096  -2.135 125.487  0.00  0.00    +0.000 C 
BRANCH  29  30
ATOM     30  O   UNL     1      -9.462  -1.818 125.728  0.00  0.00    +0.000 OA
ATOM     31  H   UNL     1     -10.014  -2.144 125.002  0.00  0.00    +0.000 HD
ENDBRANCH  29  30
BRANCH  29  32
ATOM     32  C   UNL     1      -8.002  -2.768 124.103  0.00  0.00    +0.000 C 
BRANCH  32  33
ATOM     33  C   UNL     1      -9.327  -2.483 123.404  0.00  0.00    +0.000 C 
ATOM     34  O   UNL     1      -9.651  -1.433 122.913  0.00  0.00    +0.000 OA
BRANCH  33  35
ATOM     35  O   UNL     1     -10.166  -3.547 123.400  0.00  0.00    +0.000 OA
ATOM     36  H   UNL     1     -10.141  -4.106 122.608  0.00  0.00    +0.000 HD
ENDBRANCH  33  35
ENDBRANCH  32  33
ENDBRANCH  29  32
ENDBRANCH  28  29
ENDBRANCH  25  28
ENDBRANCH  24  25
ENDBRANCH   6  23
TORSDOF 12
ENDMDL
MODEL 4
REMARK VINA RESULT:      -7.1      5.537      7.085
REMARK  Name = Rosuvastatin
REMARK  16 active torsions:
REMARK  status: ('A' for Active; 'I' for Inactive)
REMARK    1  A    between atoms: C_1  and  C_2
REMARK    2  A    between atoms: C_2  and  C_3
REMARK    3  A    between atoms: C_2  and  C_4
REMARK    4  A    between atoms: C_8  and  C_9
REMARK    5  A    between atoms: C_16  and  C_17
REMARK    6  A    between atoms: C_18  and  C_19
REMARK    7  A    between atoms: C_19  and  O_20
REMARK    8  A    between atoms: C_19  and  C_21
REMARK    9  A    between atoms: C_21  and  C_22
REMARK   10  A    between atoms: C_22  and  O_23
REMARK   11  A    between atoms: C_22  and  C_24
REMARK   12  A    between atoms: C_24  and  C_25
REMARK   13  A    between atoms: C_25  and  O_27
REMARK   14  A    between atoms: N_28  and  C_29
REMARK   15  A    between atoms: N_28  and  S_30
REMARK   16  A    between atoms: S_30  and  C_31
REMARK                            x       y       z     vdW  Elec       q    Type
REMARK                         _______ _______ _______ _____ _____    ______ ____
ROOT
ATOM      1  C   UNL     1      -8.491   3.228 130.752  0.00  0.00    +0.000 A 
ATOM      2  N   UNL     1      -9.419   4.221 130.892  0.00  0.00    +0.000 NA
ATOM      3  C   UNL     1      -9.594   5.114 129.920  0.00  0.00    +0.000 A 
ATOM      4  N   UNL     1      -8.831   5.160 128.839  0.00  0.00    +0.000 NA
ATOM      5  C   UNL     1      -7.931   4.151 128.660  0.00  0.00    +0.000 A 
ATOM      6  C   UNL     1      -7.666   3.112 129.591  0.00  0.00    +0.000 A 
ATOM      7  N   UNL     1     -10.422   6.218 130.243  0.00  0.00    +0.000 N 
ATOM      8  C   UNL     1     -11.304   6.151 131.425  0.00  0.00    +0.000 C 
ENDROOT
BRANCH   5   9
ATOM      9  C   UNL     1      -7.218   4.254 127.366  0.00  0.00    +0.000 A 
ATOM     10  C   UNL     1      -7.850   3.865 126.164  0.00  0.00    +0.000 A 
ATOM     11  C   UNL     1      -7.129   3.748 124.978  0.00  0.00    +0.000 A 
ATOM     12  C   UNL     1      -5.792   4.111 124.963  0.00  0.00    +0.000 A 
ATOM     13  F   UNL     1      -5.103   4.030 123.818  0.00  0.00    +0.000 F 
ATOM     14  C   UNL     1      -5.154   4.555 126.117  0.00  0.00    +0.000 A 
ATOM     15  C   UNL     1      -5.861   4.614 127.322  0.00  0.00    +0.000 A 
ENDBRANCH   5   9
BRANCH   7  16
ATOM     16  S   UNL     1     -10.872   7.278 129.020  0.00  0.00    +0.000 S 
ATOM     17  C   UNL     1     -12.209   8.186 129.781  0.00  0.00    +0.000 C 
ATOM     18  O   UNL     1      -9.796   8.187 128.701  0.00  0.00    +0.000 OA
ATOM     19  O   UNL     1     -11.484   6.491 127.960  0.00  0.00    +0.000 OA
ENDBRANCH   7  16
BRANCH   1  21
ATOM     20  C   UNL     1      -9.252   3.034 133.108  0.00  0.00    +0.000 C 
ATOM     21  C   UNL     1      -8.567   2.356 132.009  0.00  0.00    +0.000 C 
ATOM     22  C   UNL     1      -9.426   1.097 131.831  0.00  0.00    +0.000 C 
ENDBRANCH   1  21
BRANCH   6  23
ATOM     23  C   UNL     1      -6.568   2.110 129.166  0.00  0.00    +0.000 C 
ATOM     24  C   UNL     1      -6.567   0.784 128.979  0.00  0.00    +0.000 C 
BRANCH  24  25
ATOM     25  C   UNL     1      -5.813  -0.428 128.646  0.00  0.00    +0.000 C 
BRANCH  25  26
ATOM     26  O   UNL     1      -4.481  -0.063 128.929  0.00  0.00    +0.000 OA
ATOM     27  H   UNL     1      -4.449   0.909 128.925  0.00  0.00    +0.000 HD
ENDBRANCH  25  26
BRANCH  25  28
ATOM     28  C   UNL     1      -6.289  -1.612 129.632  0.00  0.00    +0.000 C 
BRANCH  28  29
ATOM     29  C   UNL     1      -5.619  -2.899 129.219  0.00  0.00    +0.000 C 
BRANCH  29  30
ATOM     30  O   UNL     1      -4.977  -2.663 127.972  0.00  0.00    +0.000 OA
ATOM     31  H   UNL     1      -4.034  -2.489 128.109  0.00  0.00    +0.000 HD
ENDBRANCH  29  30
BRANCH  29  32
ATOM     32  C   UNL     1      -4.571  -3.430 130.190  0.00  0.00    +0.000 C 
BRANCH  32  33
ATOM     33  C   UNL     1      -3.229  -3.344 129.470  0.00  0.00    +0.000 C 
ATOM     34  O   UNL     1      -2.764  -4.185 128.746  0.00  0.00    +0.000 OA
BRANCH  33  35
ATOM     35  O   UNL     1      -2.553  -2.200 129.741  0.00  0.00    +0.000 OA
ATOM     36  H   UNL     1      -1.595  -2.229 129.599  0.00  0.00    +0.000 HD
ENDBRANCH  33  35
ENDBRANCH  32  33
ENDBRANCH  29  32
ENDBRANCH  28  29
ENDBRANCH  25  28
ENDBRANCH  24  25
ENDBRANCH   6  23
TORSDOF 12
ENDMDL
MODEL 5
REMARK VINA RESULT:      -7.1      8.321     11.122
REMARK  Name = Rosuvastatin
REMARK  16 active torsions:
REMARK  status: ('A' for Active; 'I' for Inactive)
REMARK    1  A    between atoms: C_1  and  C_2
REMARK    2  A    between atoms: C_2  and  C_3
REMARK    3  A    between atoms: C_2  and  C_4
REMARK    4  A    between atoms: C_8  and  C_9
REMARK    5  A    between atoms: C_16  and  C_17
REMARK    6  A    between atoms: C_18  and  C_19
REMARK    7  A    between atoms: C_19  and  O_20
REMARK    8  A    between atoms: C_19  and  C_21
REMARK    9  A    between atoms: C_21  and  C_22
REMARK   10  A    between atoms: C_22  and  O_23
REMARK   11  A    between atoms: C_22  and  C_24
REMARK   12  A    between atoms: C_24  and  C_25
REMARK   13  A    between atoms: C_25  and  O_27
REMARK   14  A    between atoms: N_28  and  C_29
REMARK   15  A    between atoms: N_28  and  S_30
REMARK   16  A    between atoms: S_30  and  C_31
REMARK                            x       y       z     vdW  Elec       q    Type
REMARK                         _______ _______ _______ _____ _____    ______ ____
ROOT
ATOM      1  C   UNL     1      -6.663   1.261 128.318  0.00  0.00    +0.000 A 
ATOM      2  N   UNL     1      -6.076   0.504 129.291  0.00  0.00    +0.000 NA
ATOM      3  C   UNL     1      -6.000  -0.819 129.153  0.00  0.00    +0.000 A 
ATOM      4  N   UNL     1      -6.564  -1.472 128.150  0.00  0.00    +0.000 NA
ATOM      5  C   UNL     1      -7.114  -0.730 127.146  0.00  0.00    +0.000 A 
ATOM      6  C   UNL     1      -7.230   0.685 127.139  0.00  0.00    +0.000 A 
ATOM      7  N   UNL     1      -5.566  -1.530 130.300  0.00  0.00    +0.000 N 
ATOM      8  C   UNL     1      -4.900  -0.809 131.402  0.00  0.00    +0.000 C 
ENDROOT
BRANCH   5   9
ATOM      9  C   UNL     1      -7.613  -1.570 126.033  0.00  0.00    +0.000 A 
ATOM     10  C   UNL     1      -6.835  -1.756 124.868  0.00  0.00    +0.000 A 
ATOM     11  C   UNL     1      -7.374  -2.355 123.732  0.00  0.00    +0.000 A 
ATOM     12  C   UNL     1      -8.664  -2.859 123.783  0.00  0.00    +0.000 A 
ATOM     13  F   UNL     1      -9.174  -3.463 122.703  0.00  0.00    +0.000 F 
ATOM     14  C   UNL     1      -9.436  -2.745 124.935  0.00  0.00    +0.000 A 
ATOM     15  C   UNL     1      -8.918  -2.089 126.055  0.00  0.00    +0.000 A 
ENDBRANCH   5   9
BRANCH   7  16
ATOM     16  S   UNL     1      -5.235  -3.171 130.158  0.00  0.00    +0.000 S 
ATOM     17  C   UNL     1      -4.339  -3.507 131.666  0.00  0.00    +0.000 C 
ATOM     18  O   UNL     1      -6.453  -3.946 130.141  0.00  0.00    +0.000 OA
ATOM     19  O   UNL     1      -4.268  -3.331 129.082  0.00  0.00    +0.000 OA
ENDBRANCH   7  16
BRANCH   1  21
ATOM     20  C   UNL     1      -5.662   3.493 127.886  0.00  0.00    +0.000 C 
ATOM     21  C   UNL     1      -6.554   2.725 128.754  0.00  0.00    +0.000 C 
ATOM     22  C   UNL     1      -7.870   3.505 128.623  0.00  0.00    +0.000 C 
ENDBRANCH   1  21
BRANCH   6  23
ATOM     23  C   UNL     1      -7.931   1.283 125.897  0.00  0.00    +0.000 C 
ATOM     24  C   UNL     1      -7.470   1.794 124.748  0.00  0.00    +0.000 C 
BRANCH  24  25
ATOM     25  C   UNL     1      -7.762   2.431 123.461  0.00  0.00    +0.000 C 
BRANCH  25  26
ATOM     26  O   UNL     1      -8.059   3.760 123.823  0.00  0.00    +0.000 OA
ATOM     27  H   UNL     1      -7.298   4.302 123.550  0.00  0.00    +0.000 HD
ENDBRANCH  25  26
BRANCH  25  28
ATOM     28  C   UNL     1      -6.430   2.383 122.554  0.00  0.00    +0.000 C 
BRANCH  28  29
ATOM     29  C   UNL     1      -6.235   3.723 121.890  0.00  0.00    +0.000 C 
BRANCH  29  30
ATOM     30  O   UNL     1      -5.712   4.611 122.871  0.00  0.00    +0.000 OA
ATOM     31  H   UNL     1      -5.678   4.173 123.735  0.00  0.00    +0.000 HD
ENDBRANCH  29  30
BRANCH  29  32
ATOM     32  C   UNL     1      -5.283   3.730 120.700  0.00  0.00    +0.000 C 
BRANCH  32  33
ATOM     33  C   UNL     1      -5.538   5.033 119.949  0.00  0.00    +0.000 C 
ATOM     34  O   UNL     1      -6.303   5.178 119.032  0.00  0.00    +0.000 OA
BRANCH  33  35
ATOM     35  O   UNL     1      -4.779   6.063 120.398  0.00  0.00    +0.000 OA
ATOM     36  H   UNL     1      -5.077   6.951 120.149  0.00  0.00    +0.000 HD
ENDBRANCH  33  35
ENDBRANCH  32  33
ENDBRANCH  29  32
ENDBRANCH  28  29
ENDBRANCH  25  28
ENDBRANCH  24  25
ENDBRANCH   6  23
TORSDOF 12
ENDMDL
MODEL 6
REMARK VINA RESULT:      -7.0      6.489      9.646
REMARK  Name = Rosuvastatin
REMARK  16 active torsions:
REMARK  status: ('A' for Active; 'I' for Inactive)
REMARK    1  A    between atoms: C_1  and  C_2
REMARK    2  A    between atoms: C_2  and  C_3
REMARK    3  A    between atoms: C_2  and  C_4
REMARK    4  A    between atoms: C_8  and  C_9
REMARK    5  A    between atoms: C_16  and  C_17
REMARK    6  A    between atoms: C_18  and  C_19
REMARK    7  A    between atoms: C_19  and  O_20
REMARK    8  A    between atoms: C_19  and  C_21
REMARK    9  A    between atoms: C_21  and  C_22
REMARK   10  A    between atoms: C_22  and  O_23
REMARK   11  A    between atoms: C_22  and  C_24
REMARK   12  A    between atoms: C_24  and  C_25
REMARK   13  A    between atoms: C_25  and  O_27
REMARK   14  A    between atoms: N_28  and  C_29
REMARK   15  A    between atoms: N_28  and  S_30
REMARK   16  A    between atoms: S_30  and  C_31
REMARK                            x       y       z     vdW  Elec       q    Type
REMARK                         _______ _______ _______ _____ _____    ______ ____
ROOT
ATOM      1  C   UNL     1      -7.160  -0.853 128.929  0.00  0.00    +0.000 A 
ATOM      2  N   UNL     1      -6.716  -1.998 129.528  0.00  0.00    +0.000 NA
ATOM      3  C   UNL     1      -6.706  -2.097 130.856  0.00  0.00    +0.000 A 
ATOM      4  N   UNL     1      -7.014  -1.088 131.656  0.00  0.00    +0.000 NA
ATOM      5  C   UNL     1      -7.503   0.047 131.078  0.00  0.00    +0.000 A 
ATOM      6  C   UNL     1      -7.607   0.277 129.681  0.00  0.00    +0.000 A 
ATOM      7  N   UNL     1      -6.038  -3.231 131.381  0.00  0.00    +0.000 N 
ATOM      8  C   UNL     1      -5.731  -4.374 130.499  0.00  0.00    +0.000 C 
ENDROOT
BRANCH   5   9
ATOM      9  C   UNL     1      -7.912   1.058 132.079  0.00  0.00    +0.000 A 
ATOM     10  C   UNL     1      -9.258   1.480 132.166  0.00  0.00    +0.000 A 
ATOM     11  C   UNL     1      -9.618   2.578 132.944  0.00  0.00    +0.000 A 
ATOM     12  C   UNL     1      -8.652   3.204 133.715  0.00  0.00    +0.000 A 
ATOM     13  F   UNL     1      -9.000   4.240 134.488  0.00  0.00    +0.000 F 
ATOM     14  C   UNL     1      -7.329   2.775 133.697  0.00  0.00    +0.000 A 
ATOM     15  C   UNL     1      -6.955   1.713 132.870  0.00  0.00    +0.000 A 
ENDBRANCH   5   9
BRANCH   7  16
ATOM     16  S   UNL     1      -6.157  -3.552 133.025  0.00  0.00    +0.000 S 
ATOM     17  C   UNL     1      -5.551  -5.229 133.127  0.00  0.00    +0.000 C 
ATOM     18  O   UNL     1      -5.292  -2.683 133.788  0.00  0.00    +0.000 OA
ATOM     19  O   UNL     1      -7.572  -3.625 133.357  0.00  0.00    +0.000 OA
ENDBRANCH   7  16
BRANCH   1  21
ATOM     20  C   UNL     1      -5.963  -1.933 127.041  0.00  0.00    +0.000 C 
ATOM     21  C   UNL     1      -7.085  -1.074 127.416  0.00  0.00    +0.000 C 
ATOM     22  C   UNL     1      -8.281  -1.851 126.849  0.00  0.00    +0.000 C 
ENDBRANCH   1  21
BRANCH   6  23
ATOM     23  C   UNL     1      -8.160   1.665 129.281  0.00  0.00    +0.000 C 
ATOM     24  C   UNL     1      -7.618   2.890 129.255  0.00  0.00    +0.000 C 
BRANCH  24  25
ATOM     25  C   UNL     1      -7.787   4.323 129.002  0.00  0.00    +0.000 C 
BRANCH  25  26
ATOM     26  O   UNL     1      -8.651   4.351 127.889  0.00  0.00    +0.000 OA
ATOM     27  H   UNL     1      -9.548   4.178 128.224  0.00  0.00    +0.000 HD
ENDBRANCH  25  26
BRANCH  25  28
ATOM     28  C   UNL     1      -8.507   4.986 130.284  0.00  0.00    +0.000 C 
BRANCH  28  29
ATOM     29  C   UNL     1      -9.818   5.595 129.856  0.00  0.00    +0.000 C 
BRANCH  29  30
ATOM     30  O   UNL     1     -10.826   4.610 130.042  0.00  0.00    +0.000 OA
ATOM     31  H   UNL     1     -10.422   3.752 130.241  0.00  0.00    +0.000 HD
ENDBRANCH  29  30
BRANCH  29  32
ATOM     32  C   UNL     1     -10.239   6.844 130.621  0.00  0.00    +0.000 C 
BRANCH  32  33
ATOM     33  C   UNL     1     -11.342   6.412 131.582  0.00  0.00    +0.000 C 
ATOM     34  O   UNL     1     -12.524   6.549 131.402  0.00  0.00    +0.000 OA
BRANCH  33  35
ATOM     35  O   UNL     1     -10.867   5.857 132.723  0.00  0.00    +0.000 OA
ATOM     36  H   UNL     1     -11.065   6.334 133.543  0.00  0.00    +0.000 HD
ENDBRANCH  33  35
ENDBRANCH  32  33
ENDBRANCH  29  32
ENDBRANCH  28  29
ENDBRANCH  25  28
ENDBRANCH  24  25
ENDBRANCH   6  23
TORSDOF 12
ENDMDL
MODEL 7
REMARK VINA RESULT:      -6.9      5.588      8.937
REMARK  Name = Rosuvastatin
REMARK  16 active torsions:
REMARK  status: ('A' for Active; 'I' for Inactive)
REMARK    1  A    between atoms: C_1  and  C_2
REMARK    2  A    between atoms: C_2  and  C_3
REMARK    3  A    between atoms: C_2  and  C_4
REMARK    4  A    between atoms: C_8  and  C_9
REMARK    5  A    between atoms: C_16  and  C_17
REMARK    6  A    between atoms: C_18  and  C_19
REMARK    7  A    between atoms: C_19  and  O_20
REMARK    8  A    between atoms: C_19  and  C_21
REMARK    9  A    between atoms: C_21  and  C_22
REMARK   10  A    between atoms: C_22  and  O_23
REMARK   11  A    between atoms: C_22  and  C_24
REMARK   12  A    between atoms: C_24  and  C_25
REMARK   13  A    between atoms: C_25  and  O_27
REMARK   14  A    between atoms: N_28  and  C_29
REMARK   15  A    between atoms: N_28  and  S_30
REMARK   16  A    between atoms: S_30  and  C_31
REMARK                            x       y       z     vdW  Elec       q    Type
REMARK                         _______ _______ _______ _____ _____    ______ ____
ROOT
ATOM      1  C   UNL     1      -8.178   1.692 129.066  0.00  0.00    +0.000 A 
ATOM      2  N   UNL     1      -7.573   0.505 129.369  0.00  0.00    +0.000 NA
ATOM      3  C   UNL     1      -7.106   0.286 130.597  0.00  0.00    +0.000 A 
ATOM      4  N   UNL     1      -7.103   1.213 131.542  0.00  0.00    +0.000 NA
ATOM      5  C   UNL     1      -7.744   2.388 131.273  0.00  0.00    +0.000 A 
ATOM      6  C   UNL     1      -8.320   2.742 130.025  0.00  0.00    +0.000 A 
ATOM      7  N   UNL     1      -6.316  -0.880 130.754  0.00  0.00    +0.000 N 
ATOM      8  C   UNL     1      -6.350  -1.933 129.720  0.00  0.00    +0.000 C 
ENDROOT
BRANCH   5   9
ATOM      9  C   UNL     1      -7.767   3.297 132.441  0.00  0.00    +0.000 A 
ATOM     10  C   UNL     1      -6.629   4.066 132.777  0.00  0.00    +0.000 A 
ATOM     11  C   UNL     1      -6.558   4.754 133.986  0.00  0.00    +0.000 A 
ATOM     12  C   UNL     1      -7.660   4.757 134.826  0.00  0.00    +0.000 A 
ATOM     13  F   UNL     1      -7.606   5.442 135.975  0.00  0.00    +0.000 F 
ATOM     14  C   UNL     1      -8.817   4.058 134.497  0.00  0.00    +0.000 A 
ATOM     15  C   UNL     1      -8.867   3.318 133.313  0.00  0.00    +0.000 A 
ENDBRANCH   5   9
BRANCH   7  16
ATOM     16  S   UNL     1      -5.866  -1.350 132.302  0.00  0.00    +0.000 S 
ATOM     17  C   UNL     1      -5.154  -2.964 132.014  0.00  0.00    +0.000 C 
ATOM     18  O   UNL     1      -4.855  -0.470 132.838  0.00  0.00    +0.000 OA
ATOM     19  O   UNL     1      -7.085  -1.589 133.060  0.00  0.00    +0.000 OA
ENDBRANCH   7  16
BRANCH   1  21
ATOM     20  C   UNL     1      -7.909   2.551 126.752  0.00  0.00    +0.000 C 
ATOM     21  C   UNL     1      -8.632   1.611 127.606  0.00  0.00    +0.000 C 
ATOM     22  C   UNL     1      -8.310   0.266 126.938  0.00  0.00    +0.000 C 
ENDBRANCH   1  21
BRANCH   6  23
ATOM     23  C   UNL     1      -8.955   4.151 129.968  0.00  0.00    +0.000 C 
ATOM     24  C   UNL     1     -10.210   4.592 130.120  0.00  0.00    +0.000 C 
BRANCH  24  25
ATOM     25  C   UNL     1     -11.144   5.721 130.112  0.00  0.00    +0.000 C 
BRANCH  25  26
ATOM     26  O   UNL     1     -11.724   5.666 131.395  0.00  0.00    +0.000 OA
ATOM     27  H   UNL     1     -12.025   6.566 131.606  0.00  0.00    +0.000 HD
ENDBRANCH  25  26
BRANCH  25  28
ATOM     28  C   UNL     1     -10.298   7.083 129.940  0.00  0.00    +0.000 C 
BRANCH  28  29
ATOM     29  C   UNL     1     -10.960   7.949 128.897  0.00  0.00    +0.000 C 
BRANCH  29  30
ATOM     30  O   UNL     1      -9.947   8.755 128.309  0.00  0.00    +0.000 OA
ATOM     31  H   UNL     1      -9.985   9.654 128.668  0.00  0.00    +0.000 HD
ENDBRANCH  29  30
BRANCH  29  32
ATOM     32  C   UNL     1     -11.668   7.197 127.777  0.00  0.00    +0.000 C 
BRANCH  32  33
ATOM     33  C   UNL     1     -10.682   7.121 126.615  0.00  0.00    +0.000 C 
ATOM     34  O   UNL     1      -9.764   6.348 126.522  0.00  0.00    +0.000 OA
BRANCH  33  35
ATOM     35  O   UNL     1     -10.913   8.053 125.659  0.00  0.00    +0.000 OA
ATOM     36  H   UNL     1     -10.841   7.749 124.742  0.00  0.00    +0.000 HD
ENDBRANCH  33  35
ENDBRANCH  32  33
ENDBRANCH  29  32
ENDBRANCH  28  29
ENDBRANCH  25  28
ENDBRANCH  24  25
ENDBRANCH   6  23
TORSDOF 12
ENDMDL
MODEL 8
REMARK VINA RESULT:      -6.9      8.332     11.261
REMARK  Name = Rosuvastatin
REMARK  16 active torsions:
REMARK  status: ('A' for Active; 'I' for Inactive)
REMARK    1  A    between atoms: C_1  and  C_2
REMARK    2  A    between atoms: C_2  and  C_3
REMARK    3  A    between atoms: C_2  and  C_4
REMARK    4  A    between atoms: C_8  and  C_9
REMARK    5  A    between atoms: C_16  and  C_17
REMARK    6  A    between atoms: C_18  and  C_19
REMARK    7  A    between atoms: C_19  and  O_20
REMARK    8  A    between atoms: C_19  and  C_21
REMARK    9  A    between atoms: C_21  and  C_22
REMARK   10  A    between atoms: C_22  and  O_23
REMARK   11  A    between atoms: C_22  and  C_24
REMARK   12  A    between atoms: C_24  and  C_25
REMARK   13  A    between atoms: C_25  and  O_27
REMARK   14  A    between atoms: N_28  and  C_29
REMARK   15  A    between atoms: N_28  and  S_30
REMARK   16  A    between atoms: S_30  and  C_31
REMARK                            x       y       z     vdW  Elec       q    Type
REMARK                         _______ _______ _______ _____ _____    ______ ____
ROOT
ATOM      1  C   UNL     1      -5.323   1.028 128.000  0.00  0.00    +0.000 A 
ATOM      2  N   UNL     1      -4.857   0.235 129.009  0.00  0.00    +0.000 NA
ATOM      3  C   UNL     1      -5.089  -1.077 128.990  0.00  0.00    +0.000 A 
ATOM      4  N   UNL     1      -5.851  -1.660 128.077  0.00  0.00    +0.000 NA
ATOM      5  C   UNL     1      -6.286  -0.892 127.037  0.00  0.00    +0.000 A 
ATOM      6  C   UNL     1      -6.081   0.507 126.907  0.00  0.00    +0.000 A 
ATOM      7  N   UNL     1      -4.752  -1.777 130.175  0.00  0.00    +0.000 N 
ATOM      8  C   UNL     1      -3.868  -1.144 131.174  0.00  0.00    +0.000 C 
ENDROOT
BRANCH   5   9
ATOM      9  C   UNL     1      -7.034  -1.679 126.030  0.00  0.00    +0.000 A 
ATOM     10  C   UNL     1      -6.416  -2.070 124.820  0.00  0.00    +0.000 A 
ATOM     11  C   UNL     1      -7.161  -2.615 123.777  0.00  0.00    +0.000 A 
ATOM     12  C   UNL     1      -8.511  -2.862 123.969  0.00  0.00    +0.000 A 
ATOM     13  F   UNL     1      -9.224  -3.414 122.979  0.00  0.00    +0.000 F 
ATOM     14  C   UNL     1      -9.137  -2.544 125.170  0.00  0.00    +0.000 A 
ATOM     15  C   UNL     1      -8.403  -1.940 126.195  0.00  0.00    +0.000 A 
ENDBRANCH   5   9
BRANCH   7  16
ATOM     16  S   UNL     1      -4.807  -3.456 130.167  0.00  0.00    +0.000 S 
ATOM     17  C   UNL     1      -4.063  -3.864 131.739  0.00  0.00    +0.000 C 
ATOM     18  O   UNL     1      -6.171  -3.929 130.145  0.00  0.00    +0.000 OA
ATOM     19  O   UNL     1      -3.870  -3.921 129.156  0.00  0.00    +0.000 OA
ENDBRANCH   7  16
BRANCH   1  21
ATOM     20  C   UNL     1      -4.271   2.581 129.628  0.00  0.00    +0.000 C 
ATOM     21  C   UNL     1      -4.858   2.458 128.295  0.00  0.00    +0.000 C 
ATOM     22  C   UNL     1      -3.703   2.924 127.398  0.00  0.00    +0.000 C 
ENDBRANCH   1  21
BRANCH   6  23
ATOM     23  C   UNL     1      -6.711   1.151 125.649  0.00  0.00    +0.000 C 
ATOM     24  C   UNL     1      -6.335   2.165 124.859  0.00  0.00    +0.000 C 
BRANCH  24  25
ATOM     25  C   UNL     1      -6.628   3.025 123.710  0.00  0.00    +0.000 C 
BRANCH  25  26
ATOM     26  O   UNL     1      -7.845   3.638 124.072  0.00  0.00    +0.000 OA
ATOM     27  H   UNL     1      -8.223   3.106 124.794  0.00  0.00    +0.000 HD
ENDBRANCH  25  26
BRANCH  25  28
ATOM     28  C   UNL     1      -5.461   4.131 123.588  0.00  0.00    +0.000 C 
BRANCH  28  29
ATOM     29  C   UNL     1      -5.328   4.554 122.147  0.00  0.00    +0.000 C 
BRANCH  29  30
ATOM     30  O   UNL     1      -3.953   4.826 121.909  0.00  0.00    +0.000 OA
ATOM     31  H   UNL     1      -3.764   4.791 120.959  0.00  0.00    +0.000 HD
ENDBRANCH  29  30
BRANCH  29  32
ATOM     32  C   UNL     1      -5.785   3.525 121.120  0.00  0.00    +0.000 C 
BRANCH  32  33
ATOM     33  C   UNL     1      -6.409   4.309 119.969  0.00  0.00    +0.000 C 
ATOM     34  O   UNL     1      -7.514   4.144 119.523  0.00  0.00    +0.000 OA
BRANCH  33  35
ATOM     35  O   UNL     1      -5.572   5.237 119.442  0.00  0.00    +0.000 OA
ATOM     36  H   UNL     1      -4.718   5.341 119.888  0.00  0.00    +0.000 HD
ENDBRANCH  33  35
ENDBRANCH  32  33
ENDBRANCH  29  32
ENDBRANCH  28  29
ENDBRANCH  25  28
ENDBRANCH  24  25
ENDBRANCH   6  23
TORSDOF 12
ENDMDL
MODEL 9
REMARK VINA RESULT:      -6.8      7.733     11.035
REMARK  Name = Rosuvastatin
REMARK  16 active torsions:
REMARK  status: ('A' for Active; 'I' for Inactive)
REMARK    1  A    between atoms: C_1  and  C_2
REMARK    2  A    between atoms: C_2  and  C_3
REMARK    3  A    between atoms: C_2  and  C_4
REMARK    4  A    between atoms: C_8  and  C_9
REMARK    5  A    between atoms: C_16  and  C_17
REMARK    6  A    between atoms: C_18  and  C_19
REMARK    7  A    between atoms: C_19  and  O_20
REMARK    8  A    between atoms: C_19  and  C_21
REMARK    9  A    between atoms: C_21  and  C_22
REMARK   10  A    between atoms: C_22  and  O_23
REMARK   11  A    between atoms: C_22  and  C_24
REMARK   12  A    between atoms: C_24  and  C_25
REMARK   13  A    between atoms: C_25  and  O_27
REMARK   14  A    between atoms: N_28  and  C_29
REMARK   15  A    between atoms: N_28  and  S_30
REMARK   16  A    between atoms: S_30  and  C_31
REMARK                            x       y       z     vdW  Elec       q    Type
REMARK                         _______ _______ _______ _____ _____    ______ ____
ROOT
ATOM      1  C   UNL     1      -4.867   1.112 128.864  0.00  0.00    +0.000 A 
ATOM      2  N   UNL     1      -4.793   0.163 129.844  0.00  0.00    +0.000 NA
ATOM      3  C   UNL     1      -5.244  -1.069 129.617  0.00  0.00    +0.000 A 
ATOM      4  N   UNL     1      -5.868  -1.413 128.501  0.00  0.00    +0.000 NA
ATOM      5  C   UNL     1      -5.911  -0.494 127.494  0.00  0.00    +0.000 A 
ATOM      6  C   UNL     1      -5.436   0.842 127.581  0.00  0.00    +0.000 A 
ATOM      7  N   UNL     1      -5.316  -1.915 130.752  0.00  0.00    +0.000 N 
ATOM      8  C   UNL     1      -4.586  -1.553 131.983  0.00  0.00    +0.000 C 
ENDROOT
BRANCH   5   9
ATOM      9  C   UNL     1      -6.536  -1.032 126.265  0.00  0.00    +0.000 A 
ATOM     10  C   UNL     1      -7.939  -1.169 126.172  0.00  0.00    +0.000 A 
ATOM     11  C   UNL     1      -8.525  -1.870 125.121  0.00  0.00    +0.000 A 
ATOM     12  C   UNL     1      -7.720  -2.357 124.103  0.00  0.00    +0.000 A 
ATOM     13  F   UNL     1      -8.282  -3.004 123.076  0.00  0.00    +0.000 F 
ATOM     14  C   UNL     1      -6.339  -2.186 124.135  0.00  0.00    +0.000 A 
ATOM     15  C   UNL     1      -5.745  -1.537 125.220  0.00  0.00    +0.000 A 
ENDBRANCH   5   9
BRANCH   7  16
ATOM     16  S   UNL     1      -5.665  -3.542 130.528  0.00  0.00    +0.000 S 
ATOM     17  C   UNL     1      -5.510  -4.193 132.184  0.00  0.00    +0.000 C 
ATOM     18  O   UNL     1      -7.022  -3.723 130.067  0.00  0.00    +0.000 OA
ATOM     19  O   UNL     1      -4.568  -4.127 129.772  0.00  0.00    +0.000 OA
ENDBRANCH   7  16
BRANCH   1  21
ATOM     20  C   UNL     1      -3.376   3.053 128.443  0.00  0.00    +0.000 C 
ATOM     21  C   UNL     1      -4.236   2.391 129.422  0.00  0.00    +0.000 C 
ATOM     22  C   UNL     1      -5.259   3.492 129.738  0.00  0.00    +0.000 C 
ENDBRANCH   1  21
BRANCH   6  23
ATOM     23  C   UNL     1      -5.637   1.697 126.309  0.00  0.00    +0.000 C 
ATOM     24  C   UNL     1      -6.288   2.845 126.075  0.00  0.00    +0.000 C 
BRANCH  24  25
ATOM     25  C   UNL     1      -6.708   3.865 125.111  0.00  0.00    +0.000 C 
BRANCH  25  26
ATOM     26  O   UNL     1      -5.629   4.771 125.114  0.00  0.00    +0.000 OA
ATOM     27  H   UNL     1      -5.086   4.564 124.333  0.00  0.00    +0.000 HD
ENDBRANCH  25  26
BRANCH  25  28
ATOM     28  C   UNL     1      -6.851   3.171 123.662  0.00  0.00    +0.000 C 
BRANCH  28  29
ATOM     29  C   UNL     1      -8.292   2.789 123.436  0.00  0.00    +0.000 C 
BRANCH  29  30
ATOM     30  O   UNL     1      -8.744   3.494 122.287  0.00  0.00    +0.000 OA
ATOM     31  H   UNL     1      -8.912   2.876 121.560  0.00  0.00    +0.000 HD
ENDBRANCH  29  30
BRANCH  29  32
ATOM     32  C   UNL     1      -8.546   1.304 123.202  0.00  0.00    +0.000 C 
BRANCH  32  33
ATOM     33  C   UNL     1     -10.058   1.110 123.243  0.00  0.00    +0.000 C 
ATOM     34  O   UNL     1     -10.699   0.422 122.494  0.00  0.00    +0.000 OA
BRANCH  33  35
ATOM     35  O   UNL     1     -10.660   1.829 124.223  0.00  0.00    +0.000 OA
ATOM     36  H   UNL     1     -11.332   1.362 124.742  0.00  0.00    +0.000 HD
ENDBRANCH  33  35
ENDBRANCH  32  33
ENDBRANCH  29  32
ENDBRANCH  28  29
ENDBRANCH  25  28
ENDBRANCH  24  25
ENDBRANCH   6  23
TORSDOF 12
ENDMDL
