MODEL 1
REMARK VINA RESULT:      -6.7      0.000      0.000
REMARK  Name = Rotigotine
REMARK  8 active torsions:
REMARK  status: ('A' for Active; 'I' for Inactive)
REMARK    1  A    between atoms: C_1  and  C_2
REMARK    2  A    between atoms: C_2  and  C_3
REMARK    3  A    between atoms: C_3  and  N_4
REMARK    4  A    between atoms: N_4  and  C_5
REMARK    5  A    between atoms: N_4  and  C_12
REMARK    6  A    between atoms: C_5  and  C_6
REMARK    7  A    between atoms: C_6  and  C_7
REMARK    8  A    between atoms: C_16  and  O_17
REMARK                            x       y       z     vdW  Elec       q    Type
REMARK                         _______ _______ _______ _____ _____    ______ ____
ROOT
ATOM      1  C   UNL     1      -7.527  -1.523 123.875  0.00  0.00    +0.000 C 
ATOM      2  C   UNL     1      -6.024  -1.825 124.004  0.00  0.00    +0.000 C 
ATOM      3  C   UNL     1      -5.557  -1.530 125.428  0.00  0.00    +0.000 C 
ATOM      4  C   UNL     1      -6.440  -2.170 126.476  0.00  0.00    +0.000 A 
ATOM      5  C   UNL     1      -6.030  -2.254 127.810  0.00  0.00    +0.000 A 
ATOM      6  C   UNL     1      -6.851  -2.824 128.778  0.00  0.00    +0.000 A 
ATOM      7  C   UNL     1      -8.113  -3.306 128.437  0.00  0.00    +0.000 A 
ATOM      8  C   UNL     1      -8.553  -3.215 127.123  0.00  0.00    +0.000 A 
ATOM      9  C   UNL     1      -7.730  -2.641 126.144  0.00  0.00    +0.000 A 
ATOM     10  C   UNL     1      -8.257  -2.574 124.735  0.00  0.00    +0.000 C 
ENDROOT
BRANCH   5  11
ATOM     11  O   UNL     1      -4.819  -1.791 128.245  0.00  0.00    +0.000 OA
ATOM     12  H   UNL     1      -4.292  -2.536 128.572  0.00  0.00    +0.000 HD
ENDBRANCH   5  11
BRANCH   1  13
ATOM     13  N   UNL     1      -7.806  -0.106 124.228  0.00  0.00    +0.000 NA
BRANCH  13  14
ATOM     14  C   UNL     1      -9.229   0.240 124.403  0.00  0.00    +0.000 C 
BRANCH  14  16
ATOM     15  C   UNL     1      -8.506   0.865 126.795  0.00  0.00    +0.000 C 
ATOM     16  C   UNL     1      -9.626   0.562 125.844  0.00  0.00    +0.000 C 
ENDBRANCH  14  16
ENDBRANCH  13  14
BRANCH  13  17
ATOM     17  C   UNL     1      -7.057   0.856 123.392  0.00  0.00    +0.000 C 
BRANCH  17  18
ATOM     18  C   UNL     1      -7.621   2.278 123.406  0.00  0.00    +0.000 C 
BRANCH  18  19
ATOM     19  C   UNL     1      -7.643   2.980 122.120  0.00  0.00    +0.000 A 
ATOM     20  C   UNL     1      -8.733   3.342 121.364  0.00  0.00    +0.000 A 
ATOM     21  C   UNL     1      -8.317   3.999 120.180  0.00  0.00    +0.000 A 
ATOM     22  C   UNL     1      -6.953   4.126 120.084  0.00  0.00    +0.000 A 
ATOM     23  S   UNL     1      -6.152   3.469 121.429  0.00  0.00    +0.000 S 
ENDBRANCH  18  19
ENDBRANCH  17  18
ENDBRANCH  13  17
ENDBRANCH   1  13
TORSDOF 7
ENDMDL
MODEL 2
REMARK VINA RESULT:      -6.7      2.203      3.356
REMARK  Name = Rotigotine
REMARK  8 active torsions:
REMARK  status: ('A' for Active; 'I' for Inactive)
REMARK    1  A    between atoms: C_1  and  C_2
REMARK    2  A    between atoms: C_2  and  C_3
REMARK    3  A    between atoms: C_3  and  N_4
REMARK    4  A    between atoms: N_4  and  C_5
REMARK    5  A    between atoms: N_4  and  C_12
REMARK    6  A    between atoms: C_5  and  C_6
REMARK    7  A    between atoms: C_6  and  C_7
REMARK    8  A    between atoms: C_16  and  O_17
REMARK                            x       y       z     vdW  Elec       q    Type
REMARK                         _______ _______ _______ _____ _____    ______ ____
ROOT
ATOM      1  C   UNL     1      -9.109   1.541 125.267  0.00  0.00    +0.000 C 
ATOM      2  C   UNL     1      -9.825   1.262 123.933  0.00  0.00    +0.000 C 
ATOM      3  C   UNL     1      -9.126   0.119 123.201  0.00  0.00    +0.000 C 
ATOM      4  C   UNL     1      -8.902  -1.089 124.083  0.00  0.00    +0.000 A 
ATOM      5  C   UNL     1      -8.539  -2.323 123.537  0.00  0.00    +0.000 A 
ATOM      6  C   UNL     1      -8.313  -3.430 124.351  0.00  0.00    +0.000 A 
ATOM      7  C   UNL     1      -8.426  -3.321 125.735  0.00  0.00    +0.000 A 
ATOM      8  C   UNL     1      -8.764  -2.100 126.304  0.00  0.00    +0.000 A 
ATOM      9  C   UNL     1      -8.992  -0.983 125.490  0.00  0.00    +0.000 A 
ATOM     10  C   UNL     1      -9.362   0.313 126.162  0.00  0.00    +0.000 C 
ENDROOT
BRANCH   5  11
ATOM     11  O   UNL     1      -8.383  -2.524 122.193  0.00  0.00    +0.000 OA
ATOM     12  H   UNL     1      -9.202  -2.272 121.737  0.00  0.00    +0.000 HD
ENDBRANCH   5  11
BRANCH   1  13
ATOM     13  N   UNL     1      -7.680   1.874 125.030  0.00  0.00    +0.000 NA
BRANCH  13  14
ATOM     14  C   UNL     1      -6.785   1.710 126.192  0.00  0.00    +0.000 C 
BRANCH  14  16
ATOM     15  C   UNL     1      -5.477  -0.481 126.544  0.00  0.00    +0.000 C 
ATOM     16  C   UNL     1      -5.535   0.877 125.910  0.00  0.00    +0.000 C 
ENDBRANCH  14  16
ENDBRANCH  13  14
BRANCH  13  17
ATOM     17  C   UNL     1      -7.495   3.154 124.314  0.00  0.00    +0.000 C 
BRANCH  17  18
ATOM     18  C   UNL     1      -6.562   3.072 123.105  0.00  0.00    +0.000 C 
BRANCH  18  19
ATOM     19  C   UNL     1      -7.132   3.477 121.817  0.00  0.00    +0.000 A 
ATOM     20  C   UNL     1      -8.457   3.536 121.451  0.00  0.00    +0.000 A 
ATOM     21  C   UNL     1      -8.580   3.971 120.108  0.00  0.00    +0.000 A 
ATOM     22  C   UNL     1      -7.370   4.238 119.515  0.00  0.00    +0.000 A 
ATOM     23  S   UNL     1      -6.067   3.984 120.573  0.00  0.00    +0.000 S 
ENDBRANCH  18  19
ENDBRANCH  17  18
ENDBRANCH  13  17
ENDBRANCH   1  13
TORSDOF 7
ENDMDL
MODEL 3
REMARK VINA RESULT:      -6.4      1.377      1.953
REMARK  Name = Rotigotine
REMARK  8 active torsions:
REMARK  status: ('A' for Active; 'I' for Inactive)
REMARK    1  A    between atoms: C_1  and  C_2
REMARK    2  A    between atoms: C_2  and  C_3
REMARK    3  A    between atoms: C_3  and  N_4
REMARK    4  A    between atoms: N_4  and  C_5
REMARK    5  A    between atoms: N_4  and  C_12
REMARK    6  A    between atoms: C_5  and  C_6
REMARK    7  A    between atoms: C_6  and  C_7
REMARK    8  A    between atoms: C_16  and  O_17
REMARK                            x       y       z     vdW  Elec       q    Type
REMARK                         _______ _______ _______ _____ _____    ______ ____
ROOT
ATOM      1  C   UNL     1      -7.533  -1.524 123.708  0.00  0.00    +0.000 C 
ATOM      2  C   UNL     1      -6.062  -1.855 124.015  0.00  0.00    +0.000 C 
ATOM      3  C   UNL     1      -5.786  -1.648 125.502  0.00  0.00    +0.000 C 
ATOM      4  C   UNL     1      -6.803  -2.334 126.387  0.00  0.00    +0.000 A 
ATOM      5  C   UNL     1      -6.573  -2.500 127.755  0.00  0.00    +0.000 A 
ATOM      6  C   UNL     1      -7.520  -3.113 128.572  0.00  0.00    +0.000 A 
ATOM      7  C   UNL     1      -8.728  -3.556 128.040  0.00  0.00    +0.000 A 
ATOM      8  C   UNL     1      -8.990  -3.383 126.688  0.00  0.00    +0.000 A 
ATOM      9  C   UNL     1      -8.042  -2.766 125.861  0.00  0.00    +0.000 A 
ATOM     10  C   UNL     1      -8.378  -2.611 124.401  0.00  0.00    +0.000 C 
ENDROOT
BRANCH   5  11
ATOM     11  O   UNL     1      -5.427  -2.080 128.372  0.00  0.00    +0.000 OA
ATOM     12  H   UNL     1      -5.226  -2.677 129.109  0.00  0.00    +0.000 HD
ENDBRANCH   5  11
BRANCH   1  13
ATOM     13  N   UNL     1      -7.846  -0.125 124.104  0.00  0.00    +0.000 NA
BRANCH  13  14
ATOM     14  C   UNL     1      -9.281   0.202 124.210  0.00  0.00    +0.000 C 
BRANCH  14  16
ATOM     15  C   UNL     1      -8.677   0.752 126.654  0.00  0.00    +0.000 C 
ATOM     16  C   UNL     1      -9.749   0.518 125.632  0.00  0.00    +0.000 C 
ENDBRANCH  14  16
ENDBRANCH  13  14
BRANCH  13  17
ATOM     17  C   UNL     1      -7.061   0.877 123.353  0.00  0.00    +0.000 C 
BRANCH  17  18
ATOM     18  C   UNL     1      -7.793   2.198 123.107  0.00  0.00    +0.000 C 
BRANCH  18  19
ATOM     19  C   UNL     1      -7.430   3.313 123.985  0.00  0.00    +0.000 A 
ATOM     20  C   UNL     1      -8.180   3.894 124.982  0.00  0.00    +0.000 A 
ATOM     21  C   UNL     1      -7.461   4.953 125.588  0.00  0.00    +0.000 A 
ATOM     22  C   UNL     1      -6.208   5.129 125.055  0.00  0.00    +0.000 A 
ATOM     23  S   UNL     1      -5.872   4.009 123.824  0.00  0.00    +0.000 S 
ENDBRANCH  18  19
ENDBRANCH  17  18
ENDBRANCH  13  17
ENDBRANCH   1  13
TORSDOF 7
ENDMDL
MODEL 4
REMARK VINA RESULT:      -6.4      2.943      7.121
REMARK  Name = Rotigotine
REMARK  8 active torsions:
REMARK  status: ('A' for Active; 'I' for Inactive)
REMARK    1  A    between atoms: C_1  and  C_2
REMARK    2  A    between atoms: C_2  and  C_3
REMARK    3  A    between atoms: C_3  and  N_4
REMARK    4  A    between atoms: N_4  and  C_5
REMARK    5  A    between atoms: N_4  and  C_12
REMARK    6  A    between atoms: C_5  and  C_6
REMARK    7  A    between atoms: C_6  and  C_7
REMARK    8  A    between atoms: C_16  and  O_17
REMARK                            x       y       z     vdW  Elec       q    Type
REMARK                         _______ _______ _______ _____ _____    ______ ____
ROOT
ATOM      1  C   UNL     1      -9.187   1.732 123.985  0.00  0.00    +0.000 C 
ATOM      2  C   UNL     1      -9.000   2.808 125.068  0.00  0.00    +0.000 C 
ATOM      3  C   UNL     1      -7.523   3.176 125.183  0.00  0.00    +0.000 C 
ATOM      4  C   UNL     1      -6.893   3.488 123.844  0.00  0.00    +0.000 A 
ATOM      5  C   UNL     1      -5.644   4.110 123.761  0.00  0.00    +0.000 A 
ATOM      6  C   UNL     1      -5.056   4.378 122.528  0.00  0.00    +0.000 A 
ATOM      7  C   UNL     1      -5.697   4.011 121.347  0.00  0.00    +0.000 A 
ATOM      8  C   UNL     1      -6.929   3.372 121.402  0.00  0.00    +0.000 A 
ATOM      9  C   UNL     1      -7.525   3.099 122.640  0.00  0.00    +0.000 A 
ATOM     10  C   UNL     1      -8.864   2.410 122.639  0.00  0.00    +0.000 C 
ENDROOT
BRANCH   5  11
ATOM     11  O   UNL     1      -4.930   4.489 124.864  0.00  0.00    +0.000 OA
ATOM     12  H   UNL     1      -4.599   3.698 125.316  0.00  0.00    +0.000 HD
ENDBRANCH   5  11
BRANCH   1  13
ATOM     13  N   UNL     1      -8.376   0.527 124.302  0.00  0.00    +0.000 NA
BRANCH  13  14
ATOM     14  C   UNL     1      -8.148  -0.403 123.179  0.00  0.00    +0.000 C 
BRANCH  14  16
ATOM     15  C   UNL     1      -8.934  -2.856 123.189  0.00  0.00    +0.000 C 
ATOM     16  C   UNL     1      -9.275  -1.414 122.962  0.00  0.00    +0.000 C 
ENDBRANCH  14  16
ENDBRANCH  13  14
BRANCH  13  17
ATOM     17  C   UNL     1      -8.798  -0.141 125.551  0.00  0.00    +0.000 C 
BRANCH  17  18
ATOM     18  C   UNL     1      -7.655  -0.778 126.344  0.00  0.00    +0.000 C 
BRANCH  18  19
ATOM     19  C   UNL     1      -8.016  -1.903 127.211  0.00  0.00    +0.000 A 
ATOM     20  C   UNL     1      -8.703  -3.049 126.882  0.00  0.00    +0.000 A 
ATOM     21  C   UNL     1      -8.849  -3.881 128.019  0.00  0.00    +0.000 A 
ATOM     22  C   UNL     1      -8.267  -3.359 129.148  0.00  0.00    +0.000 A 
ATOM     23  S   UNL     1      -7.521  -1.863 128.852  0.00  0.00    +0.000 S 
ENDBRANCH  18  19
ENDBRANCH  17  18
ENDBRANCH  13  17
ENDBRANCH   1  13
TORSDOF 7
ENDMDL
MODEL 5
REMARK VINA RESULT:      -6.3      7.331      9.750
REMARK  Name = Rotigotine
REMARK  8 active torsions:
REMARK  status: ('A' for Active; 'I' for Inactive)
REMARK    1  A    between atoms: C_1  and  C_2
REMARK    2  A    between atoms: C_2  and  C_3
REMARK    3  A    between atoms: C_3  and  N_4
REMARK    4  A    between atoms: N_4  and  C_5
REMARK    5  A    between atoms: N_4  and  C_12
REMARK    6  A    between atoms: C_5  and  C_6
REMARK    7  A    between atoms: C_6  and  C_7
REMARK    8  A    between atoms: C_16  and  O_17
REMARK                            x       y       z     vdW  Elec       q    Type
REMARK                         _______ _______ _______ _____ _____    ______ ____
ROOT
ATOM      1  C   UNL     1      -8.665   5.228 132.159  0.00  0.00    +0.000 C 
ATOM      2  C   UNL     1      -7.879   6.459 131.676  0.00  0.00    +0.000 C 
ATOM      3  C   UNL     1      -8.470   6.967 130.363  0.00  0.00    +0.000 C 
ATOM      4  C   UNL     1      -9.971   7.141 130.428  0.00  0.00    +0.000 A 
ATOM      5  C   UNL     1     -10.658   7.852 129.440  0.00  0.00    +0.000 A 
ATOM      6  C   UNL     1     -12.042   7.993 129.489  0.00  0.00    +0.000 A 
ATOM      7  C   UNL     1     -12.774   7.408 130.520  0.00  0.00    +0.000 A 
ATOM      8  C   UNL     1     -12.118   6.677 131.502  0.00  0.00    +0.000 A 
ATOM      9  C   UNL     1     -10.725   6.531 131.457  0.00  0.00    +0.000 A 
ATOM     10  C   UNL     1     -10.067   5.734 132.552  0.00  0.00    +0.000 C 
ENDROOT
BRANCH   5  11
ATOM     11  O   UNL     1     -10.030   8.445 128.380  0.00  0.00    +0.000 OA
ATOM     12  H   UNL     1     -10.655   8.521 127.642  0.00  0.00    +0.000 HD
ENDBRANCH   5  11
BRANCH   1  13
ATOM     13  N   UNL     1      -8.639   4.156 131.130  0.00  0.00    +0.000 NA
BRANCH  13  14
ATOM     14  C   UNL     1      -9.692   3.129 131.250  0.00  0.00    +0.000 C 
BRANCH  14  16
ATOM     15  C   UNL     1      -9.328   0.652 131.859  0.00  0.00    +0.000 C 
ATOM     16  C   UNL     1      -9.421   2.075 132.325  0.00  0.00    +0.000 C 
ENDBRANCH  14  16
ENDBRANCH  13  14
BRANCH  13  17
ATOM     17  C   UNL     1      -7.288   3.599 130.908  0.00  0.00    +0.000 C 
BRANCH  17  18
ATOM     18  C   UNL     1      -6.783   3.718 129.469  0.00  0.00    +0.000 C 
BRANCH  18  19
ATOM     19  C   UNL     1      -5.402   4.177 129.302  0.00  0.00    +0.000 A 
ATOM     20  C   UNL     1      -4.871   5.412 129.595  0.00  0.00    +0.000 A 
ATOM     21  C   UNL     1      -3.491   5.445 129.276  0.00  0.00    +0.000 A 
ATOM     22  C   UNL     1      -3.024   4.254 128.776  0.00  0.00    +0.000 A 
ATOM     23  S   UNL     1      -4.239   3.071 128.699  0.00  0.00    +0.000 S 
ENDBRANCH  18  19
ENDBRANCH  17  18
ENDBRANCH  13  17
ENDBRANCH   1  13
TORSDOF 7
ENDMDL
MODEL 6
REMARK VINA RESULT:      -6.2      2.598      6.722
REMARK  Name = Rotigotine
REMARK  8 active torsions:
REMARK  status: ('A' for Active; 'I' for Inactive)
REMARK    1  A    between atoms: C_1  and  C_2
REMARK    2  A    between atoms: C_2  and  C_3
REMARK    3  A    between atoms: C_3  and  N_4
REMARK    4  A    between atoms: N_4  and  C_5
REMARK    5  A    between atoms: N_4  and  C_12
REMARK    6  A    between atoms: C_5  and  C_6
REMARK    7  A    between atoms: C_6  and  C_7
REMARK    8  A    between atoms: C_16  and  O_17
REMARK                            x       y       z     vdW  Elec       q    Type
REMARK                         _______ _______ _______ _____ _____    ______ ____
ROOT
ATOM      1  C   UNL     1      -9.824   0.185 125.331  0.00  0.00    +0.000 C 
ATOM      2  C   UNL     1      -9.107   0.820 126.536  0.00  0.00    +0.000 C 
ATOM      3  C   UNL     1      -7.676   1.185 126.152  0.00  0.00    +0.000 C 
ATOM      4  C   UNL     1      -7.600   1.973 124.863  0.00  0.00    +0.000 A 
ATOM      5  C   UNL     1      -6.427   2.636 124.492  0.00  0.00    +0.000 A 
ATOM      6  C   UNL     1      -6.351   3.344 123.295  0.00  0.00    +0.000 A 
ATOM      7  C   UNL     1      -7.443   3.388 122.433  0.00  0.00    +0.000 A 
ATOM      8  C   UNL     1      -8.614   2.720 122.768  0.00  0.00    +0.000 A 
ATOM      9  C   UNL     1      -8.695   2.005 123.971  0.00  0.00    +0.000 A 
ATOM     10  C   UNL     1      -9.991   1.305 124.285  0.00  0.00    +0.000 C 
ENDROOT
BRANCH   5  11
ATOM     11  O   UNL     1      -5.297   2.633 125.262  0.00  0.00    +0.000 OA
ATOM     12  H   UNL     1      -4.883   1.758 125.217  0.00  0.00    +0.000 HD
ENDBRANCH   5  11
BRANCH   1  13
ATOM     13  N   UNL     1      -9.090  -1.019 124.863  0.00  0.00    +0.000 NA
BRANCH  13  14
ATOM     14  C   UNL     1      -9.172  -1.295 123.416  0.00  0.00    +0.000 C 
BRANCH  14  16
ATOM     15  C   UNL     1      -6.611  -1.071 123.235  0.00  0.00    +0.000 C 
ATOM     16  C   UNL     1      -7.860  -1.775 122.793  0.00  0.00    +0.000 C 
ENDBRANCH  14  16
ENDBRANCH  13  14
BRANCH  13  17
ATOM     17  C   UNL     1      -9.329  -2.207 125.710  0.00  0.00    +0.000 C 
BRANCH  17  18
ATOM     18  C   UNL     1      -8.057  -2.882 126.226  0.00  0.00    +0.000 C 
BRANCH  18  19
ATOM     19  C   UNL     1      -7.804  -2.775 127.665  0.00  0.00    +0.000 A 
ATOM     20  C   UNL     1      -8.469  -3.396 128.698  0.00  0.00    +0.000 A 
ATOM     21  C   UNL     1      -7.913  -3.014 129.943  0.00  0.00    +0.000 A 
ATOM     22  C   UNL     1      -6.856  -2.147 129.820  0.00  0.00    +0.000 A 
ATOM     23  S   UNL     1      -6.506  -1.790 128.197  0.00  0.00    +0.000 S 
ENDBRANCH  18  19
ENDBRANCH  17  18
ENDBRANCH  13  17
ENDBRANCH   1  13
TORSDOF 7
ENDMDL
MODEL 7
REMARK VINA RESULT:      -6.2      3.446      4.949
REMARK  Name = Rotigotine
REMARK  8 active torsions:
REMARK  status: ('A' for Active; 'I' for Inactive)
REMARK    1  A    between atoms: C_1  and  C_2
REMARK    2  A    between atoms: C_2  and  C_3
REMARK    3  A    between atoms: C_3  and  N_4
REMARK    4  A    between atoms: N_4  and  C_5
REMARK    5  A    between atoms: N_4  and  C_12
REMARK    6  A    between atoms: C_5  and  C_6
REMARK    7  A    between atoms: C_6  and  C_7
REMARK    8  A    between atoms: C_16  and  O_17
REMARK                            x       y       z     vdW  Elec       q    Type
REMARK                         _______ _______ _______ _____ _____    ______ ____
ROOT
ATOM      1  C   UNL     1      -8.618   1.713 125.501  0.00  0.00    +0.000 C 
ATOM      2  C   UNL     1      -8.561   1.777 123.965  0.00  0.00    +0.000 C 
ATOM      3  C   UNL     1      -7.668   0.659 123.433  0.00  0.00    +0.000 C 
ATOM      4  C   UNL     1      -8.016  -0.693 124.014  0.00  0.00    +0.000 A 
ATOM      5  C   UNL     1      -7.512  -1.870 123.453  0.00  0.00    +0.000 A 
ATOM      6  C   UNL     1      -7.817  -3.113 124.001  0.00  0.00    +0.000 A 
ATOM      7  C   UNL     1      -8.619  -3.206 125.136  0.00  0.00    +0.000 A 
ATOM      8  C   UNL     1      -9.115  -2.050 125.725  0.00  0.00    +0.000 A 
ATOM      9  C   UNL     1      -8.811  -0.796 125.178  0.00  0.00    +0.000 A 
ATOM     10  C   UNL     1      -9.382   0.422 125.855  0.00  0.00    +0.000 C 
ENDROOT
BRANCH   5  11
ATOM     11  O   UNL     1      -6.701  -1.880 122.353  0.00  0.00    +0.000 OA
ATOM     12  H   UNL     1      -5.789  -1.693 122.627  0.00  0.00    +0.000 HD
ENDBRANCH   5  11
BRANCH   1  13
ATOM     13  N   UNL     1      -7.252   1.823 126.077  0.00  0.00    +0.000 NA
BRANCH  13  14
ATOM     14  C   UNL     1      -7.049   1.148 127.374  0.00  0.00    +0.000 C 
BRANCH  14  16
ATOM     15  C   UNL     1      -5.286  -0.267 126.137  0.00  0.00    +0.000 C 
ATOM     16  C   UNL     1      -5.793   0.278 127.440  0.00  0.00    +0.000 C 
ENDBRANCH  14  16
ENDBRANCH  13  14
BRANCH  13  17
ATOM     17  C   UNL     1      -6.715   3.200 126.034  0.00  0.00    +0.000 C 
BRANCH  17  18
ATOM     18  C   UNL     1      -5.360   3.328 125.336  0.00  0.00    +0.000 C 
BRANCH  18  19
ATOM     19  C   UNL     1      -4.205   3.574 126.203  0.00  0.00    +0.000 A 
ATOM     20  C   UNL     1      -3.044   2.842 126.308  0.00  0.00    +0.000 A 
ATOM     21  C   UNL     1      -2.183   3.417 127.274  0.00  0.00    +0.000 A 
ATOM     22  C   UNL     1      -2.698   4.553 127.848  0.00  0.00    +0.000 A 
ATOM     23  S   UNL     1      -4.224   4.953 127.220  0.00  0.00    +0.000 S 
ENDBRANCH  18  19
ENDBRANCH  17  18
ENDBRANCH  13  17
ENDBRANCH   1  13
TORSDOF 7
ENDMDL
MODEL 8
REMARK VINA RESULT:      -6.1      4.621      7.554
REMARK  Name = Rotigotine
REMARK  8 active torsions:
REMARK  status: ('A' for Active; 'I' for Inactive)
REMARK    1  A    between atoms: C_1  and  C_2
REMARK    2  A    between atoms: C_2  and  C_3
REMARK    3  A    between atoms: C_3  and  N_4
REMARK    4  A    between atoms: N_4  and  C_5
REMARK    5  A    between atoms: N_4  and  C_12
REMARK    6  A    between atoms: C_5  and  C_6
REMARK    7  A    between atoms: C_6  and  C_7
REMARK    8  A    between atoms: C_16  and  O_17
REMARK                            x       y       z     vdW  Elec       q    Type
REMARK                         _______ _______ _______ _____ _____    ______ ____
ROOT
ATOM      1  C   UNL     1      -6.645  -0.299 127.624  0.00  0.00    +0.000 C 
ATOM      2  C   UNL     1      -5.516  -0.367 126.580  0.00  0.00    +0.000 C 
ATOM      3  C   UNL     1      -5.504  -1.743 125.920  0.00  0.00    +0.000 C 
ATOM      4  C   UNL     1      -6.869  -2.167 125.427  0.00  0.00    +0.000 A 
ATOM      5  C   UNL     1      -7.018  -3.251 124.558  0.00  0.00    +0.000 A 
ATOM      6  C   UNL     1      -8.277  -3.654 124.121  0.00  0.00    +0.000 A 
ATOM      7  C   UNL     1      -9.420  -2.991 124.562  0.00  0.00    +0.000 A 
ATOM      8  C   UNL     1      -9.302  -1.925 125.443  0.00  0.00    +0.000 A 
ATOM      9  C   UNL     1      -8.037  -1.516 125.887  0.00  0.00    +0.000 A 
ATOM     10  C   UNL     1      -7.969  -0.350 126.837  0.00  0.00    +0.000 C 
ENDROOT
BRANCH   5  11
ATOM     11  O   UNL     1      -5.958  -3.976 124.087  0.00  0.00    +0.000 OA
ATOM     12  H   UNL     1      -5.936  -4.836 124.534  0.00  0.00    +0.000 HD
ENDBRANCH   5  11
BRANCH   1  13
ATOM     13  N   UNL     1      -6.471  -1.363 128.648  0.00  0.00    +0.000 NA
BRANCH  13  14
ATOM     14  C   UNL     1      -7.523  -1.434 129.679  0.00  0.00    +0.000 C 
BRANCH  14  16
ATOM     15  C   UNL     1      -8.187  -3.675 128.593  0.00  0.00    +0.000 C 
ATOM     16  C   UNL     1      -8.172  -2.812 129.820  0.00  0.00    +0.000 C 
ENDBRANCH  14  16
ENDBRANCH  13  14
BRANCH  13  17
ATOM     17  C   UNL     1      -5.098  -1.421 129.193  0.00  0.00    +0.000 C 
BRANCH  17  18
ATOM     18  C   UNL     1      -4.496  -2.827 129.239  0.00  0.00    +0.000 C 
BRANCH  18  19
ATOM     19  C   UNL     1      -4.679  -3.571 130.488  0.00  0.00    +0.000 A 
ATOM     20  C   UNL     1      -5.285  -4.792 130.673  0.00  0.00    +0.000 A 
ATOM     21  C   UNL     1      -5.260  -5.153 132.043  0.00  0.00    +0.000 A 
ATOM     22  C   UNL     1      -4.635  -4.222 132.835  0.00  0.00    +0.000 A 
ATOM     23  S   UNL     1      -4.054  -2.903 131.938  0.00  0.00    +0.000 S 
ENDBRANCH  18  19
ENDBRANCH  17  18
ENDBRANCH  13  17
ENDBRANCH   1  13
TORSDOF 7
ENDMDL
MODEL 9
REMARK VINA RESULT:      -6.1      3.533      5.067
REMARK  Name = Rotigotine
REMARK  8 active torsions:
REMARK  status: ('A' for Active; 'I' for Inactive)
REMARK    1  A    between atoms: C_1  and  C_2
REMARK    2  A    between atoms: C_2  and  C_3
REMARK    3  A    between atoms: C_3  and  N_4
REMARK    4  A    between atoms: N_4  and  C_5
REMARK    5  A    between atoms: N_4  and  C_12
REMARK    6  A    between atoms: C_5  and  C_6
REMARK    7  A    between atoms: C_6  and  C_7
REMARK    8  A    between atoms: C_16  and  O_17
REMARK                            x       y       z     vdW  Elec       q    Type
REMARK                         _______ _______ _______ _____ _____    ______ ____
ROOT
ATOM      1  C   UNL     1      -5.539  -0.839 126.291  0.00  0.00    +0.000 C 
ATOM      2  C   UNL     1      -6.134  -1.945 127.180  0.00  0.00    +0.000 C 
ATOM      3  C   UNL     1      -7.614  -2.132 126.853  0.00  0.00    +0.000 C 
ATOM      4  C   UNL     1      -7.869  -2.284 125.371  0.00  0.00    +0.000 A 
ATOM      5  C   UNL     1      -9.102  -2.740 124.895  0.00  0.00    +0.000 A 
ATOM      6  C   UNL     1      -9.343  -2.860 123.529  0.00  0.00    +0.000 A 
ATOM      7  C   UNL     1      -8.362  -2.508 122.606  0.00  0.00    +0.000 A 
ATOM      8  C   UNL     1      -7.136  -2.031 123.053  0.00  0.00    +0.000 A 
ATOM      9  C   UNL     1      -6.887  -1.908 124.426  0.00  0.00    +0.000 A 
ATOM     10  C   UNL     1      -5.538  -1.392 124.852  0.00  0.00    +0.000 C 
ENDROOT
BRANCH   5  11
ATOM     11  O   UNL     1     -10.133  -3.091 125.721  0.00  0.00    +0.000 OA
ATOM     12  H   UNL     1      -9.782  -3.590 126.475  0.00  0.00    +0.000 HD
ENDBRANCH   5  11
BRANCH   1  13
ATOM     13  N   UNL     1      -6.278   0.437 126.483  0.00  0.00    +0.000 NA
BRANCH  13  14
ATOM     14  C   UNL     1      -6.396   1.292 125.287  0.00  0.00    +0.000 C 
BRANCH  14  16
ATOM     15  C   UNL     1      -8.925   1.163 125.766  0.00  0.00    +0.000 C 
ATOM     16  C   UNL     1      -7.831   1.484 124.792  0.00  0.00    +0.000 C 
ENDBRANCH  14  16
ENDBRANCH  13  14
BRANCH  13  17
ATOM     17  C   UNL     1      -5.861   1.168 127.699  0.00  0.00    +0.000 C 
BRANCH  17  18
ATOM     18  C   UNL     1      -5.785   2.686 127.527  0.00  0.00    +0.000 C 
BRANCH  18  19
ATOM     19  C   UNL     1      -4.440   3.265 127.470  0.00  0.00    +0.000 A 
ATOM     20  C   UNL     1      -3.320   2.762 126.848  0.00  0.00    +0.000 A 
ATOM     21  C   UNL     1      -2.217   3.630 127.041  0.00  0.00    +0.000 A 
ATOM     22  C   UNL     1      -2.531   4.748 127.773  0.00  0.00    +0.000 A 
ATOM     23  S   UNL     1      -4.166   4.778 128.228  0.00  0.00    +0.000 S 
ENDBRANCH  18  19
ENDBRANCH  17  18
ENDBRANCH  13  17
ENDBRANCH   1  13
TORSDOF 7
ENDMDL
