MODEL 1
REMARK VINA RESULT:      -8.0      0.000      0.000
REMARK  Name = Roxadustat
REMARK  8 active torsions:
REMARK  status: ('A' for Active; 'I' for Inactive)
REMARK    1  A    between atoms: C_1  and  C_2
REMARK    2  A    between atoms: C_4  and  C_5
REMARK    3  A    between atoms: N_7  and  CA_8
REMARK    4  A    between atoms: CA_8  and  C_9
REMARK    5  A    between atoms: C_9  and  O_10
REMARK    6  A    between atoms: C_12  and  O_13
REMARK    7  A    between atoms: C_17  and  O_18
REMARK    8  A    between atoms: O_18  and  C_19
REMARK                            x       y       z     vdW  Elec       q    Type
REMARK                         _______ _______ _______ _____ _____    ______ ____
ROOT
ATOM      1  C   UNK A   1      -8.933   3.952 134.107  0.00  0.00    +0.000 C 
ATOM      2  C   UNK A   1      -8.108   4.846 133.212  0.00  0.00    +0.000 A 
ATOM      3  N   UNK A   1      -6.747   4.743 133.316  0.00  0.00    +0.000 NA
ATOM      4  C   UNK A   1      -6.010   5.542 132.482  0.00  0.00    +0.000 A 
ATOM      5  C   UNK A   1      -6.557   6.425 131.559  0.00  0.00    +0.000 A 
ATOM      6  C   UNK A   1      -7.947   6.484 131.450  0.00  0.00    +0.000 A 
ATOM      7  C   UNK A   1      -8.766   5.698 132.291  0.00  0.00    +0.000 A 
ATOM      8  C   UNK A   1     -10.176   5.794 132.137  0.00  0.00    +0.000 A 
ATOM      9  C   UNK A   1     -10.738   6.496 131.069  0.00  0.00    +0.000 A 
ATOM     10  C   UNK A   1      -9.891   7.178 130.200  0.00  0.00    +0.000 A 
ATOM     11  C   UNK A   1      -8.535   7.275 130.463  0.00  0.00    +0.000 A 
ENDROOT
BRANCH   4  12
ATOM     12  C   UNK A   1      -4.519   5.425 132.568  0.00  0.00    +0.000 C 
ATOM     13  O   UNK A   1      -3.965   4.328 132.444  0.00  0.00    +0.000 OA
ATOM     14  N   GLY A   2      -3.832   6.593 132.788  0.00  0.00    +0.000 N 
ATOM     15  H   GLY A   2      -4.428   7.407 132.874  0.00  0.00    +0.000 HD
BRANCH  14  16
ATOM     16  CA  GLY A   2      -2.376   6.589 132.859  0.00  0.00    +0.000 C 
BRANCH  16  17
ATOM     17  C   GLY A   2      -1.590   6.643 131.554  0.00  0.00    +0.000 C 
ATOM     18  OXT GLY A   2      -2.134   6.759 130.456  0.00  0.00    +0.000 OA
BRANCH  17  19
ATOM     19  O   GLY A   2      -0.248   6.559 131.655  0.00  0.00    +0.000 OA
ATOM     20  H   GLY A   2       0.109   5.665 131.772  0.00  0.00    +0.000 HD
ENDBRANCH  17  19
ENDBRANCH  16  17
ENDBRANCH  14  16
ENDBRANCH   4  12
BRANCH   5  21
ATOM     21  O   UNK A   1      -5.802   7.204 130.713  0.00  0.00    +0.000 OA
ATOM     22  H   UNK A   1      -5.786   8.128 131.051  0.00  0.00    +0.000 HD
ENDBRANCH   5  21
BRANCH   9  23
ATOM     23  O   UNK A   1     -12.120   6.477 130.970  0.00  0.00    +0.000 OA
BRANCH  23  24
ATOM     24  C   UNK A   1     -12.696   7.309 130.035  0.00  0.00    +0.000 A 
ATOM     25  C   UNK A   1     -13.263   6.779 128.873  0.00  0.00    +0.000 A 
ATOM     26  C   UNK A   1     -13.623   7.631 127.832  0.00  0.00    +0.000 A 
ATOM     27  C   UNK A   1     -13.589   9.011 128.026  0.00  0.00    +0.000 A 
ATOM     28  C   UNK A   1     -13.190   9.535 129.257  0.00  0.00    +0.000 A 
ATOM     29  C   UNK A   1     -12.689   8.686 130.248  0.00  0.00    +0.000 A 
ENDBRANCH  23  24
ENDBRANCH   9  23
TORSDOF 7
ENDMDL
MODEL 2
REMARK VINA RESULT:      -7.8      5.703      8.851
REMARK  Name = Roxadustat
REMARK  8 active torsions:
REMARK  status: ('A' for Active; 'I' for Inactive)
REMARK    1  A    between atoms: C_1  and  C_2
REMARK    2  A    between atoms: C_4  and  C_5
REMARK    3  A    between atoms: N_7  and  CA_8
REMARK    4  A    between atoms: CA_8  and  C_9
REMARK    5  A    between atoms: C_9  and  O_10
REMARK    6  A    between atoms: C_12  and  O_13
REMARK    7  A    between atoms: C_17  and  O_18
REMARK    8  A    between atoms: O_18  and  C_19
REMARK                            x       y       z     vdW  Elec       q    Type
REMARK                         _______ _______ _______ _____ _____    ______ ____
ROOT
ATOM      1  C   UNK A   1      -7.002   3.804 127.115  0.00  0.00    +0.000 C 
ATOM      2  C   UNK A   1      -7.906   3.852 128.323  0.00  0.00    +0.000 A 
ATOM      3  N   UNK A   1      -8.637   4.995 128.507  0.00  0.00    +0.000 NA
ATOM      4  C   UNK A   1      -9.470   5.017 129.594  0.00  0.00    +0.000 A 
ATOM      5  C   UNK A   1      -9.611   3.968 130.494  0.00  0.00    +0.000 A 
ATOM      6  C   UNK A   1      -8.881   2.802 130.263  0.00  0.00    +0.000 A 
ATOM      7  C   UNK A   1      -7.991   2.718 129.169  0.00  0.00    +0.000 A 
ATOM      8  C   UNK A   1      -7.273   1.507 128.977  0.00  0.00    +0.000 A 
ATOM      9  C   UNK A   1      -7.569   0.367 129.728  0.00  0.00    +0.000 A 
ATOM     10  C   UNK A   1      -8.526   0.462 130.734  0.00  0.00    +0.000 A 
ATOM     11  C   UNK A   1      -9.075   1.686 131.077  0.00  0.00    +0.000 A 
ENDROOT
BRANCH   4  12
ATOM     12  C   UNK A   1     -10.293   6.253 129.797  0.00  0.00    +0.000 C 
ATOM     13  O   UNK A   1      -9.751   7.345 130.000  0.00  0.00    +0.000 OA
ATOM     14  N   GLY A   2     -11.655   6.089 129.742  0.00  0.00    +0.000 N 
ATOM     15  H   GLY A   2     -11.944   5.133 129.574  0.00  0.00    +0.000 HD
BRANCH  14  16
ATOM     16  CA  GLY A   2     -12.542   7.236 129.899  0.00  0.00    +0.000 C 
BRANCH  16  17
ATOM     17  C   GLY A   2     -12.796   8.122 128.684  0.00  0.00    +0.000 C 
ATOM     18  OXT GLY A   2     -13.751   7.954 127.928  0.00  0.00    +0.000 OA
BRANCH  17  19
ATOM     19  O   GLY A   2     -11.912   9.117 128.471  0.00  0.00    +0.000 OA
ATOM     20  H   GLY A   2     -12.162   9.763 127.791  0.00  0.00    +0.000 HD
ENDBRANCH  17  19
ENDBRANCH  16  17
ENDBRANCH  14  16
ENDBRANCH   4  12
BRANCH   5  21
ATOM     21  O   UNK A   1     -10.471   3.999 131.567  0.00  0.00    +0.000 OA
ATOM     22  H   UNK A   1     -11.361   3.692 131.279  0.00  0.00    +0.000 HD
ENDBRANCH   5  21
BRANCH   9  23
ATOM     23  O   UNK A   1      -6.858  -0.782 129.422  0.00  0.00    +0.000 OA
BRANCH  23  24
ATOM     24  C   UNK A   1      -7.489  -1.724 128.640  0.00  0.00    +0.000 A 
ATOM     25  C   UNK A   1      -7.660  -1.504 127.270  0.00  0.00    +0.000 A 
ATOM     26  C   UNK A   1      -8.501  -2.339 126.539  0.00  0.00    +0.000 A 
ATOM     27  C   UNK A   1      -9.016  -3.491 127.131  0.00  0.00    +0.000 A 
ATOM     28  C   UNK A   1      -8.695  -3.802 128.454  0.00  0.00    +0.000 A 
ATOM     29  C   UNK A   1      -7.974  -2.889 129.230  0.00  0.00    +0.000 A 
ENDBRANCH  23  24
ENDBRANCH   9  23
TORSDOF 7
ENDMDL
MODEL 3
REMARK VINA RESULT:      -7.7      6.006      8.956
REMARK  Name = Roxadustat
REMARK  8 active torsions:
REMARK  status: ('A' for Active; 'I' for Inactive)
REMARK    1  A    between atoms: C_1  and  C_2
REMARK    2  A    between atoms: C_4  and  C_5
REMARK    3  A    between atoms: N_7  and  CA_8
REMARK    4  A    between atoms: CA_8  and  C_9
REMARK    5  A    between atoms: C_9  and  O_10
REMARK    6  A    between atoms: C_12  and  O_13
REMARK    7  A    between atoms: C_17  and  O_18
REMARK    8  A    between atoms: O_18  and  C_19
REMARK                            x       y       z     vdW  Elec       q    Type
REMARK                         _______ _______ _______ _____ _____    ______ ____
ROOT
ATOM      1  C   UNK A   1      -7.734   2.891 127.554  0.00  0.00    +0.000 C 
ATOM      2  C   UNK A   1      -8.369   2.858 128.924  0.00  0.00    +0.000 A 
ATOM      3  N   UNK A   1      -9.109   3.950 129.291  0.00  0.00    +0.000 NA
ATOM      4  C   UNK A   1      -9.699   3.899 130.527  0.00  0.00    +0.000 A 
ATOM      5  C   UNK A   1      -9.592   2.825 131.401  0.00  0.00    +0.000 A 
ATOM      6  C   UNK A   1      -8.861   1.711 130.986  0.00  0.00    +0.000 A 
ATOM      7  C   UNK A   1      -8.214   1.704 129.731  0.00  0.00    +0.000 A 
ATOM      8  C   UNK A   1      -7.484   0.544 129.356  0.00  0.00    +0.000 A 
ATOM      9  C   UNK A   1      -7.553  -0.627 130.113  0.00  0.00    +0.000 A 
ATOM     10  C   UNK A   1      -8.286  -0.612 131.298  0.00  0.00    +0.000 A 
ATOM     11  C   UNK A   1      -8.819   0.569 131.786  0.00  0.00    +0.000 A 
ENDROOT
BRANCH   4  12
ATOM     12  C   UNK A   1     -10.530   5.077 130.935  0.00  0.00    +0.000 C 
ATOM     13  O   UNK A   1     -10.377   5.603 132.042  0.00  0.00    +0.000 OA
ATOM     14  N   GLY A   2     -11.449   5.517 130.015  0.00  0.00    +0.000 N 
ATOM     15  H   GLY A   2     -11.459   4.978 129.158  0.00  0.00    +0.000 HD
BRANCH  14  16
ATOM     16  CA  GLY A   2     -12.287   6.674 130.306  0.00  0.00    +0.000 C 
BRANCH  16  17
ATOM     17  C   GLY A   2     -11.879   8.023 129.724  0.00  0.00    +0.000 C 
ATOM     18  OXT GLY A   2     -10.817   8.195 129.128  0.00  0.00    +0.000 OA
BRANCH  17  19
ATOM     19  O   GLY A   2     -12.750   9.039 129.892  0.00  0.00    +0.000 OA
ATOM     20  H   GLY A   2     -12.713   9.738 129.221  0.00  0.00    +0.000 HD
ENDBRANCH  17  19
ENDBRANCH  16  17
ENDBRANCH  14  16
ENDBRANCH   4  12
BRANCH   5  21
ATOM     21  O   UNK A   1     -10.210   2.780 132.629  0.00  0.00    +0.000 OA
ATOM     22  H   UNK A   1     -11.124   3.138 132.545  0.00  0.00    +0.000 HD
ENDBRANCH   5  21
BRANCH   9  23
ATOM     23  O   UNK A   1      -6.858  -1.724 129.631  0.00  0.00    +0.000 OA
BRANCH  23  24
ATOM     24  C   UNK A   1      -7.422  -2.416 128.582  0.00  0.00    +0.000 A 
ATOM     25  C   UNK A   1      -7.007  -2.172 127.270  0.00  0.00    +0.000 A 
ATOM     26  C   UNK A   1      -7.741  -2.692 126.208  0.00  0.00    +0.000 A 
ATOM     27  C   UNK A   1      -8.767  -3.601 126.457  0.00  0.00    +0.000 A 
ATOM     28  C   UNK A   1      -9.062  -3.982 127.767  0.00  0.00    +0.000 A 
ATOM     29  C   UNK A   1      -8.426  -3.347 128.838  0.00  0.00    +0.000 A 
ENDBRANCH  23  24
ENDBRANCH   9  23
TORSDOF 7
ENDMDL
MODEL 4
REMARK VINA RESULT:      -7.7      5.720      8.536
REMARK  Name = Roxadustat
REMARK  8 active torsions:
REMARK  status: ('A' for Active; 'I' for Inactive)
REMARK    1  A    between atoms: C_1  and  C_2
REMARK    2  A    between atoms: C_4  and  C_5
REMARK    3  A    between atoms: N_7  and  CA_8
REMARK    4  A    between atoms: CA_8  and  C_9
REMARK    5  A    between atoms: C_9  and  O_10
REMARK    6  A    between atoms: C_12  and  O_13
REMARK    7  A    between atoms: C_17  and  O_18
REMARK    8  A    between atoms: O_18  and  C_19
REMARK                            x       y       z     vdW  Elec       q    Type
REMARK                         _______ _______ _______ _____ _____    ______ ____
ROOT
ATOM      1  C   UNK A   1      -9.884   1.886 132.162  0.00  0.00    +0.000 C 
ATOM      2  C   UNK A   1      -9.573   2.816 131.014  0.00  0.00    +0.000 A 
ATOM      3  N   UNK A   1     -10.053   4.095 131.104  0.00  0.00    +0.000 NA
ATOM      4  C   UNK A   1      -9.743   4.936 130.067  0.00  0.00    +0.000 A 
ATOM      5  C   UNK A   1      -8.986   4.570 128.961  0.00  0.00    +0.000 A 
ATOM      6  C   UNK A   1      -8.480   3.270 128.913  0.00  0.00    +0.000 A 
ATOM      7  C   UNK A   1      -8.774   2.348 129.942  0.00  0.00    +0.000 A 
ATOM      8  C   UNK A   1      -8.232   1.037 129.845  0.00  0.00    +0.000 A 
ATOM      9  C   UNK A   1      -7.287   0.719 128.868  0.00  0.00    +0.000 A 
ATOM     10  C   UNK A   1      -6.946   1.689 127.929  0.00  0.00    +0.000 A 
ATOM     11  C   UNK A   1      -7.625   2.894 127.877  0.00  0.00    +0.000 A 
ENDROOT
BRANCH   4  12
ATOM     12  C   UNK A   1     -10.243   6.346 130.161  0.00  0.00    +0.000 C 
ATOM     13  O   UNK A   1      -9.454   7.285 130.307  0.00  0.00    +0.000 OA
ATOM     14  N   GLY A   2     -11.603   6.513 130.075  0.00  0.00    +0.000 N 
ATOM     15  H   GLY A   2     -12.114   5.647 129.963  0.00  0.00    +0.000 HD
BRANCH  14  16
ATOM     16  CA  GLY A   2     -12.185   7.849 130.127  0.00  0.00    +0.000 C 
BRANCH  16  17
ATOM     17  C   GLY A   2     -12.317   8.629 128.823  0.00  0.00    +0.000 C 
ATOM     18  OXT GLY A   2     -13.406   8.916 128.329  0.00  0.00    +0.000 OA
BRANCH  17  19
ATOM     19  O   GLY A   2     -11.167   8.999 128.226  0.00  0.00    +0.000 OA
ATOM     20  H   GLY A   2     -11.088   8.768 127.287  0.00  0.00    +0.000 HD
ENDBRANCH  17  19
ENDBRANCH  16  17
ENDBRANCH  14  16
ENDBRANCH   4  12
BRANCH   5  21
ATOM     21  O   UNK A   1      -8.666   5.434 127.941  0.00  0.00    +0.000 OA
ATOM     22  H   UNK A   1      -7.830   5.137 127.514  0.00  0.00    +0.000 HD
ENDBRANCH   5  21
BRANCH   9  23
ATOM     23  O   UNK A   1      -6.770  -0.567 128.897  0.00  0.00    +0.000 OA
BRANCH  23  24
ATOM     24  C   UNK A   1      -7.580  -1.581 128.436  0.00  0.00    +0.000 A 
ATOM     25  C   UNK A   1      -8.021  -2.582 129.305  0.00  0.00    +0.000 A 
ATOM     26  C   UNK A   1      -8.632  -3.722 128.789  0.00  0.00    +0.000 A 
ATOM     27  C   UNK A   1      -8.966  -3.775 127.437  0.00  0.00    +0.000 A 
ATOM     28  C   UNK A   1      -8.682  -2.691 126.603  0.00  0.00    +0.000 A 
ATOM     29  C   UNK A   1      -7.938  -1.613 127.089  0.00  0.00    +0.000 A 
ENDBRANCH  23  24
ENDBRANCH   9  23
TORSDOF 7
ENDMDL
MODEL 5
REMARK VINA RESULT:      -7.6      2.389      8.391
REMARK  Name = Roxadustat
REMARK  8 active torsions:
REMARK  status: ('A' for Active; 'I' for Inactive)
REMARK    1  A    between atoms: C_1  and  C_2
REMARK    2  A    between atoms: C_4  and  C_5
REMARK    3  A    between atoms: N_7  and  CA_8
REMARK    4  A    between atoms: CA_8  and  C_9
REMARK    5  A    between atoms: C_9  and  O_10
REMARK    6  A    between atoms: C_12  and  O_13
REMARK    7  A    between atoms: C_17  and  O_18
REMARK    8  A    between atoms: O_18  and  C_19
REMARK                            x       y       z     vdW  Elec       q    Type
REMARK                         _______ _______ _______ _____ _____    ______ ____
ROOT
ATOM      1  C   UNK A   1      -8.573   4.198 134.300  0.00  0.00    +0.000 C 
ATOM      2  C   UNK A   1      -8.713   5.073 133.078  0.00  0.00    +0.000 A 
ATOM      3  N   UNK A   1      -9.984   5.316 132.631  0.00  0.00    +0.000 NA
ATOM      4  C   UNK A   1     -10.099   6.131 131.535  0.00  0.00    +0.000 A 
ATOM      5  C   UNK A   1      -9.023   6.710 130.874  0.00  0.00    +0.000 A 
ATOM      6  C   UNK A   1      -7.741   6.474 131.373  0.00  0.00    +0.000 A 
ATOM      7  C   UNK A   1      -7.551   5.631 132.490  0.00  0.00    +0.000 A 
ATOM      8  C   UNK A   1      -6.225   5.425 132.960  0.00  0.00    +0.000 A 
ATOM      9  C   UNK A   1      -5.158   6.174 132.458  0.00  0.00    +0.000 A 
ATOM     10  C   UNK A   1      -5.404   7.071 131.421  0.00  0.00    +0.000 A 
ATOM     11  C   UNK A   1      -6.644   7.123 130.808  0.00  0.00    +0.000 A 
ENDROOT
BRANCH   4  12
ATOM     12  C   UNK A   1     -11.485   6.425 131.047  0.00  0.00    +0.000 C 
ATOM     13  O   UNK A   1     -12.353   6.834 131.824  0.00  0.00    +0.000 OA
ATOM     14  N   GLY A   2     -11.713   6.212 129.710  0.00  0.00    +0.000 N 
ATOM     15  H   GLY A   2     -10.904   5.869 129.208  0.00  0.00    +0.000 HD
BRANCH  14  16
ATOM     16  CA  GLY A   2     -13.021   6.494 129.132  0.00  0.00    +0.000 C 
BRANCH  16  17
ATOM     17  C   GLY A   2     -13.074   7.193 127.778  0.00  0.00    +0.000 C 
ATOM     18  OXT GLY A   2     -12.537   6.733 126.772  0.00  0.00    +0.000 OA
BRANCH  17  19
ATOM     19  O   GLY A   2     -13.750   8.359 127.729  0.00  0.00    +0.000 OA
ATOM     20  H   GLY A   2     -13.208   9.155 127.619  0.00  0.00    +0.000 HD
ENDBRANCH  17  19
ENDBRANCH  16  17
ENDBRANCH  14  16
ENDBRANCH   4  12
BRANCH   5  21
ATOM     21  O   UNK A   1      -9.158   7.545 129.790  0.00  0.00    +0.000 OA
ATOM     22  H   UNK A   1      -8.731   8.409 129.990  0.00  0.00    +0.000 HD
ENDBRANCH   5  21
BRANCH   9  23
ATOM     23  O   UNK A   1      -3.915   5.945 133.025  0.00  0.00    +0.000 OA
BRANCH  23  24
ATOM     24  C   UNK A   1      -3.304   7.008 133.653  0.00  0.00    +0.000 A 
ATOM     25  C   UNK A   1      -3.493   7.223 135.021  0.00  0.00    +0.000 A 
ATOM     26  C   UNK A   1      -3.074   8.420 135.593  0.00  0.00    +0.000 A 
ATOM     27  C   UNK A   1      -2.308   9.313 134.846  0.00  0.00    +0.000 A 
ATOM     28  C   UNK A   1      -1.967   9.008 133.527  0.00  0.00    +0.000 A 
ATOM     29  C   UNK A   1      -2.512   7.879 132.908  0.00  0.00    +0.000 A 
ENDBRANCH  23  24
ENDBRANCH   9  23
TORSDOF 7
ENDMDL
MODEL 6
REMARK VINA RESULT:      -7.4      6.800      8.860
REMARK  Name = Roxadustat
REMARK  8 active torsions:
REMARK  status: ('A' for Active; 'I' for Inactive)
REMARK    1  A    between atoms: C_1  and  C_2
REMARK    2  A    between atoms: C_4  and  C_5
REMARK    3  A    between atoms: N_7  and  CA_8
REMARK    4  A    between atoms: CA_8  and  C_9
REMARK    5  A    between atoms: C_9  and  O_10
REMARK    6  A    between atoms: C_12  and  O_13
REMARK    7  A    between atoms: C_17  and  O_18
REMARK    8  A    between atoms: O_18  and  C_19
REMARK                            x       y       z     vdW  Elec       q    Type
REMARK                         _______ _______ _______ _____ _____    ______ ____
ROOT
ATOM      1  C   UNK A   1      -8.612   0.038 131.930  0.00  0.00    +0.000 C 
ATOM      2  C   UNK A   1      -8.619   1.152 130.912  0.00  0.00    +0.000 A 
ATOM      3  N   UNK A   1      -8.990   2.394 131.353  0.00  0.00    +0.000 NA
ATOM      4  C   UNK A   1      -8.969   3.402 130.425  0.00  0.00    +0.000 A 
ATOM      5  C   UNK A   1      -8.598   3.235 129.096  0.00  0.00    +0.000 A 
ATOM      6  C   UNK A   1      -8.191   1.966 128.683  0.00  0.00    +0.000 A 
ATOM      7  C   UNK A   1      -8.204   0.879 129.585  0.00  0.00    +0.000 A 
ATOM      8  C   UNK A   1      -7.777  -0.392 129.114  0.00  0.00    +0.000 A 
ATOM      9  C   UNK A   1      -7.186  -0.533 127.856  0.00  0.00    +0.000 A 
ATOM     10  C   UNK A   1      -7.100   0.585 127.032  0.00  0.00    +0.000 A 
ATOM     11  C   UNK A   1      -7.707   1.777 127.388  0.00  0.00    +0.000 A 
ENDROOT
BRANCH   4  12
ATOM     12  C   UNK A   1      -9.351   4.772 130.897  0.00  0.00    +0.000 C 
ATOM     13  O   UNK A   1      -8.686   5.759 130.569  0.00  0.00    +0.000 OA
ATOM     14  N   GLY A   2     -10.463   4.847 131.699  0.00  0.00    +0.000 N 
ATOM     15  H   GLY A   2     -10.895   3.950 131.883  0.00  0.00    +0.000 HD
BRANCH  14  16
ATOM     16  CA  GLY A   2     -10.932   6.138 132.187  0.00  0.00    +0.000 C 
BRANCH  16  17
ATOM     17  C   GLY A   2     -11.887   6.937 131.307  0.00  0.00    +0.000 C 
ATOM     18  OXT GLY A   2     -13.073   7.099 131.591  0.00  0.00    +0.000 OA
BRANCH  17  19
ATOM     19  O   GLY A   2     -11.366   7.470 130.184  0.00  0.00    +0.000 OA
ATOM     20  H   GLY A   2     -10.479   7.851 130.272  0.00  0.00    +0.000 HD
ENDBRANCH  17  19
ENDBRANCH  16  17
ENDBRANCH  14  16
ENDBRANCH   4  12
BRANCH   5  21
ATOM     21  O   UNK A   1      -8.561   4.262 128.183  0.00  0.00    +0.000 OA
ATOM     22  H   UNK A   1      -8.278   5.089 128.637  0.00  0.00    +0.000 HD
ENDBRANCH   5  21
BRANCH   9  23
ATOM     23  O   UNK A   1      -6.745  -1.801 127.514  0.00  0.00    +0.000 OA
BRANCH  23  24
ATOM     24  C   UNK A   1      -7.283  -2.370 126.380  0.00  0.00    +0.000 A 
ATOM     25  C   UNK A   1      -6.478  -2.619 125.266  0.00  0.00    +0.000 A 
ATOM     26  C   UNK A   1      -7.068  -2.966 124.054  0.00  0.00    +0.000 A 
ATOM     27  C   UNK A   1      -8.433  -3.244 124.005  0.00  0.00    +0.000 A 
ATOM     28  C   UNK A   1      -9.205  -3.167 125.166  0.00  0.00    +0.000 A 
ATOM     29  C   UNK A   1      -8.642  -2.676 126.347  0.00  0.00    +0.000 A 
ENDBRANCH  23  24
ENDBRANCH   9  23
TORSDOF 7
ENDMDL
MODEL 7
REMARK VINA RESULT:      -7.3      7.571      9.318
REMARK  Name = Roxadustat
REMARK  8 active torsions:
REMARK  status: ('A' for Active; 'I' for Inactive)
REMARK    1  A    between atoms: C_1  and  C_2
REMARK    2  A    between atoms: C_4  and  C_5
REMARK    3  A    between atoms: N_7  and  CA_8
REMARK    4  A    between atoms: CA_8  and  C_9
REMARK    5  A    between atoms: C_9  and  O_10
REMARK    6  A    between atoms: C_12  and  O_13
REMARK    7  A    between atoms: C_17  and  O_18
REMARK    8  A    between atoms: O_18  and  C_19
REMARK                            x       y       z     vdW  Elec       q    Type
REMARK                         _______ _______ _______ _____ _____    ______ ____
ROOT
ATOM      1  C   UNK A   1      -8.045   2.374 126.201  0.00  0.00    +0.000 C 
ATOM      2  C   UNK A   1      -8.160   1.857 127.614  0.00  0.00    +0.000 A 
ATOM      3  N   UNK A   1      -8.734   2.693 128.535  0.00  0.00    +0.000 NA
ATOM      4  C   UNK A   1      -8.854   2.204 129.810  0.00  0.00    +0.000 A 
ATOM      5  C   UNK A   1      -8.440   0.938 130.205  0.00  0.00    +0.000 A 
ATOM      6  C   UNK A   1      -7.891   0.095 129.238  0.00  0.00    +0.000 A 
ATOM      7  C   UNK A   1      -7.724   0.542 127.908  0.00  0.00    +0.000 A 
ATOM      8  C   UNK A   1      -7.163  -0.358 126.961  0.00  0.00    +0.000 A 
ATOM      9  C   UNK A   1      -6.954  -1.701 127.280  0.00  0.00    +0.000 A 
ATOM     10  C   UNK A   1      -7.226  -2.128 128.577  0.00  0.00    +0.000 A 
ATOM     11  C   UNK A   1      -7.564  -1.221 129.566  0.00  0.00    +0.000 A 
ENDROOT
BRANCH   4  12
ATOM     12  C   UNK A   1      -9.499   3.098 130.825  0.00  0.00    +0.000 C 
ATOM     13  O   UNK A   1     -10.684   3.429 130.710  0.00  0.00    +0.000 OA
ATOM     14  N   GLY A   2      -8.701   3.512 131.862  0.00  0.00    +0.000 N 
ATOM     15  H   GLY A   2      -7.752   3.161 131.811  0.00  0.00    +0.000 HD
BRANCH  14  16
ATOM     16  CA  GLY A   2      -9.243   4.361 132.915  0.00  0.00    +0.000 C 
BRANCH  16  17
ATOM     17  C   GLY A   2      -9.754   5.746 132.533  0.00  0.00    +0.000 C 
ATOM     18  OXT GLY A   2      -9.007   6.649 132.158  0.00  0.00    +0.000 OA
BRANCH  17  19
ATOM     19  O   GLY A   2     -11.084   5.942 132.622  0.00  0.00    +0.000 OA
ATOM     20  H   GLY A   2     -11.634   5.337 132.099  0.00  0.00    +0.000 HD
ENDBRANCH  17  19
ENDBRANCH  16  17
ENDBRANCH  14  16
ENDBRANCH   4  12
BRANCH   5  21
ATOM     21  O   UNK A   1      -8.590   0.455 131.484  0.00  0.00    +0.000 OA
ATOM     22  H   UNK A   1      -9.466   0.734 131.835  0.00  0.00    +0.000 HD
ENDBRANCH   5  21
BRANCH   9  23
ATOM     23  O   UNK A   1      -6.463  -2.512 126.269  0.00  0.00    +0.000 OA
BRANCH  23  24
ATOM     24  C   UNK A   1      -7.242  -2.655 125.142  0.00  0.00    +0.000 A 
ATOM     25  C   UNK A   1      -6.821  -2.122 123.921  0.00  0.00    +0.000 A 
ATOM     26  C   UNK A   1      -7.712  -2.060 122.853  0.00  0.00    +0.000 A 
ATOM     27  C   UNK A   1      -8.949  -2.695 122.948  0.00  0.00    +0.000 A 
ATOM     28  C   UNK A   1      -9.295  -3.383 124.113  0.00  0.00    +0.000 A 
ATOM     29  C   UNK A   1      -8.464  -3.318 125.235  0.00  0.00    +0.000 A 
ENDBRANCH  23  24
ENDBRANCH   9  23
TORSDOF 7
ENDMDL
MODEL 8
REMARK VINA RESULT:      -7.3      4.156      5.512
REMARK  Name = Roxadustat
REMARK  8 active torsions:
REMARK  status: ('A' for Active; 'I' for Inactive)
REMARK    1  A    between atoms: C_1  and  C_2
REMARK    2  A    between atoms: C_4  and  C_5
REMARK    3  A    between atoms: N_7  and  CA_8
REMARK    4  A    between atoms: CA_8  and  C_9
REMARK    5  A    between atoms: C_9  and  O_10
REMARK    6  A    between atoms: C_12  and  O_13
REMARK    7  A    between atoms: C_17  and  O_18
REMARK    8  A    between atoms: O_18  and  C_19
REMARK                            x       y       z     vdW  Elec       q    Type
REMARK                         _______ _______ _______ _____ _____    ______ ____
ROOT
ATOM      1  C   UNK A   1      -7.869   4.444 134.785  0.00  0.00    +0.000 C 
ATOM      2  C   UNK A   1      -8.082   3.482 133.641  0.00  0.00    +0.000 A 
ATOM      3  N   UNK A   1      -7.470   2.261 133.735  0.00  0.00    +0.000 NA
ATOM      4  C   UNK A   1      -7.690   1.388 132.702  0.00  0.00    +0.000 A 
ATOM      5  C   UNK A   1      -8.481   1.669 131.595  0.00  0.00    +0.000 A 
ATOM      6  C   UNK A   1      -9.120   2.909 131.542  0.00  0.00    +0.000 A 
ATOM      7  C   UNK A   1      -8.924   3.861 132.567  0.00  0.00    +0.000 A 
ATOM      8  C   UNK A   1      -9.601   5.107 132.466  0.00  0.00    +0.000 A 
ATOM      9  C   UNK A   1     -10.575   5.321 131.488  0.00  0.00    +0.000 A 
ATOM     10  C   UNK A   1     -10.812   4.317 130.553  0.00  0.00    +0.000 A 
ATOM     11  C   UNK A   1     -10.010   3.189 130.505  0.00  0.00    +0.000 A 
ENDROOT
BRANCH   4  12
ATOM     12  C   UNK A   1      -7.046   0.039 132.800  0.00  0.00    +0.000 C 
ATOM     13  O   UNK A   1      -7.089  -0.604 133.854  0.00  0.00    +0.000 OA
ATOM     14  N   GLY A   2      -6.421  -0.418 131.667  0.00  0.00    +0.000 N 
ATOM     15  H   GLY A   2      -6.466   0.228 130.888  0.00  0.00    +0.000 HD
BRANCH  14  16
ATOM     16  CA  GLY A   2      -5.788  -1.731 131.652  0.00  0.00    +0.000 C 
BRANCH  16  17
ATOM     17  C   GLY A   2      -6.682  -2.960 131.526  0.00  0.00    +0.000 C 
ATOM     18  OXT GLY A   2      -6.890  -3.521 130.452  0.00  0.00    +0.000 OA
BRANCH  17  19
ATOM     19  O   GLY A   2      -7.244  -3.415 132.664  0.00  0.00    +0.000 OA
ATOM     20  H   GLY A   2      -8.107  -3.034 132.888  0.00  0.00    +0.000 HD
ENDBRANCH  17  19
ENDBRANCH  16  17
ENDBRANCH  14  16
ENDBRANCH   4  12
BRANCH   5  21
ATOM     21  O   UNK A   1      -8.710   0.773 130.578  0.00  0.00    +0.000 OA
ATOM     22  H   UNK A   1      -9.254   1.205 129.880  0.00  0.00    +0.000 HD
ENDBRANCH   5  21
BRANCH   9  23
ATOM     23  O   UNK A   1     -11.223   6.546 131.512  0.00  0.00    +0.000 OA
BRANCH  23  24
ATOM     24  C   UNK A   1     -11.510   7.130 130.299  0.00  0.00    +0.000 A 
ATOM     25  C   UNK A   1     -10.481   7.616 129.488  0.00  0.00    +0.000 A 
ATOM     26  C   UNK A   1     -10.788   8.412 128.388  0.00  0.00    +0.000 A 
ATOM     27  C   UNK A   1     -12.116   8.566 127.996  0.00  0.00    +0.000 A 
ATOM     28  C   UNK A   1     -13.134   7.928 128.708  0.00  0.00    +0.000 A 
ATOM     29  C   UNK A   1     -12.838   7.253 129.896  0.00  0.00    +0.000 A 
ENDBRANCH  23  24
ENDBRANCH   9  23
TORSDOF 7
ENDMDL
MODEL 9
REMARK VINA RESULT:      -7.2      6.947      9.220
REMARK  Name = Roxadustat
REMARK  8 active torsions:
REMARK  status: ('A' for Active; 'I' for Inactive)
REMARK    1  A    between atoms: C_1  and  C_2
REMARK    2  A    between atoms: C_4  and  C_5
REMARK    3  A    between atoms: N_7  and  CA_8
REMARK    4  A    between atoms: CA_8  and  C_9
REMARK    5  A    between atoms: C_9  and  O_10
REMARK    6  A    between atoms: C_12  and  O_13
REMARK    7  A    between atoms: C_17  and  O_18
REMARK    8  A    between atoms: O_18  and  C_19
REMARK                            x       y       z     vdW  Elec       q    Type
REMARK                         _______ _______ _______ _____ _____    ______ ____
ROOT
ATOM      1  C   UNK A   1      -7.612   2.491 126.034  0.00  0.00    +0.000 C 
ATOM      2  C   UNK A   1      -7.926   2.501 127.510  0.00  0.00    +0.000 A 
ATOM      3  N   UNK A   1      -8.385   3.678 128.039  0.00  0.00    +0.000 NA
ATOM      4  C   UNK A   1      -8.689   3.668 129.375  0.00  0.00    +0.000 A 
ATOM      5  C   UNK A   1      -8.562   2.557 130.199  0.00  0.00    +0.000 A 
ATOM      6  C   UNK A   1      -8.125   1.362 129.626  0.00  0.00    +0.000 A 
ATOM      7  C   UNK A   1      -7.780   1.306 128.257  0.00  0.00    +0.000 A 
ATOM      8  C   UNK A   1      -7.343   0.064 127.723  0.00  0.00    +0.000 A 
ATOM      9  C   UNK A   1      -7.427  -1.112 128.472  0.00  0.00    +0.000 A 
ATOM     10  C   UNK A   1      -7.868  -1.032 129.790  0.00  0.00    +0.000 A 
ATOM     11  C   UNK A   1      -8.088   0.196 130.391  0.00  0.00    +0.000 A 
ENDROOT
BRANCH   4  12
ATOM     12  C   UNK A   1      -9.214   4.943 129.964  0.00  0.00    +0.000 C 
ATOM     13  O   UNK A   1      -8.639   6.016 129.757  0.00  0.00    +0.000 OA
ATOM     14  N   GLY A   2     -10.347   4.833 130.730  0.00  0.00    +0.000 N 
ATOM     15  H   GLY A   2     -10.695   3.886 130.811  0.00  0.00    +0.000 HD
BRANCH  14  16
ATOM     16  CA  GLY A   2     -10.952   6.019 131.324  0.00  0.00    +0.000 C 
BRANCH  16  17
ATOM     17  C   GLY A   2     -12.242   6.554 130.711  0.00  0.00    +0.000 C 
ATOM     18  OXT GLY A   2     -12.485   6.482 129.507  0.00  0.00    +0.000 OA
BRANCH  17  19
ATOM     19  O   GLY A   2     -13.123   7.118 131.561  0.00  0.00    +0.000 OA
ATOM     20  H   GLY A   2     -13.946   6.624 131.703  0.00  0.00    +0.000 HD
ENDBRANCH  17  19
ENDBRANCH  16  17
ENDBRANCH  14  16
ENDBRANCH   4  12
BRANCH   5  21
ATOM     21  O   UNK A   1      -8.893   2.558 131.533  0.00  0.00    +0.000 OA
ATOM     22  H   UNK A   1      -9.446   1.768 131.732  0.00  0.00    +0.000 HD
ENDBRANCH   5  21
BRANCH   9  23
ATOM     23  O   UNK A   1      -7.036  -2.282 127.841  0.00  0.00    +0.000 OA
BRANCH  23  24
ATOM     24  C   UNK A   1      -7.544  -2.518 126.582  0.00  0.00    +0.000 A 
ATOM     25  C   UNK A   1      -8.915  -2.711 126.398  0.00  0.00    +0.000 A 
ATOM     26  C   UNK A   1      -9.386  -3.183 125.176  0.00  0.00    +0.000 A 
ATOM     27  C   UNK A   1      -8.516  -3.283 124.092  0.00  0.00    +0.000 A 
ATOM     28  C   UNK A   1      -7.176  -2.916 124.234  0.00  0.00    +0.000 A 
ATOM     29  C   UNK A   1      -6.673  -2.585 125.496  0.00  0.00    +0.000 A 
ENDBRANCH  23  24
ENDBRANCH   9  23
TORSDOF 7
ENDMDL
