MODEL 1
REMARK VINA RESULT:      -8.4      0.000      0.000
REMARK  Name = Rucaparib
REMARK  4 active torsions:
REMARK  status: ('A' for Active; 'I' for Inactive)
REMARK    1  A    between atoms: C_1  and  N_2
REMARK    2  A    between atoms: N_2  and  C_3
REMARK    3  A    between atoms: C_3  and  C_4
REMARK    4  A    between atoms: C_7  and  C_10
REMARK                            x       y       z     vdW  Elec       q    Type
REMARK                         _______ _______ _______ _____ _____    ______ ____
ROOT
ATOM      1  C   UNL     1      -6.979   1.456 126.923  0.00  0.00    +0.000 A 
ATOM      2  C   UNL     1      -7.271   0.725 125.363  0.00  0.00    +0.000 A 
ATOM      3  C   UNL     1      -8.172   0.501 126.443  0.00  0.00    +0.000 C 
ATOM      4  C   UNL     1      -9.010  -0.487 125.874  0.00  0.00    +0.000 C 
ATOM      5  N   UNL     1      -8.290  -1.710 125.729  0.00  0.00    +0.000 N 
ATOM      6  C   UNL     1      -8.612  -2.174 124.488  0.00  0.00    +0.000 C 
ATOM      7  O   UNL     1      -9.645  -2.106 123.862  0.00  0.00    +0.000 OA
ATOM      8  C   UNL     1      -7.386  -2.169 123.803  0.00  0.00    +0.000 A 
ATOM      9  C   UNL     1      -6.869  -0.585 124.123  0.00  0.00    +0.000 A 
ATOM     10  C   UNL     1      -5.685  -0.965 124.718  0.00  0.00    +0.000 A 
ATOM     11  N   UNL     1      -5.887   0.184 126.227  0.00  0.00    +0.000 N 
ATOM     12  C   UNL     1      -5.043  -2.561 123.992  0.00  0.00    +0.000 A 
ATOM     13  C   UNL     1      -5.560  -3.984 123.805  0.00  0.00    +0.000 A 
ATOM     14  F   UNL     1      -4.858  -5.136 124.090  0.00  0.00    +0.000 F 
ATOM     15  C   UNL     1      -6.786  -3.676 124.180  0.00  0.00    +0.000 A 
ATOM     16  H   UNL     1      -7.268  -1.601 125.879  0.00  0.00    +0.000 HD
ATOM     17  H   UNL     1      -5.212   0.326 126.893  0.00  0.00    +0.000 HD
ENDROOT
BRANCH   1  21
ATOM     18  C   UNL     1      -9.897   5.046 130.924  0.00  0.00    +0.000 A 
ATOM     19  C   UNL     1     -10.012   3.657 130.815  0.00  0.00    +0.000 A 
ATOM     20  C   UNL     1      -9.136   2.593 129.649  0.00  0.00    +0.000 A 
ATOM     21  C   UNL     1      -8.082   2.641 128.273  0.00  0.00    +0.000 A 
ATOM     22  C   UNL     1      -8.250   4.288 128.674  0.00  0.00    +0.000 A 
ATOM     23  C   UNL     1      -9.067   5.363 129.842  0.00  0.00    +0.000 A 
BRANCH  18  24
ATOM     24  C   UNL     1     -10.476   6.048 131.990  0.00  0.00    +0.000 C 
BRANCH  24  26
ATOM     25  C   UNL     1     -12.499   7.154 131.154  0.00  0.00    +0.000 C 
ATOM     26  N   UNL     1     -11.963   6.071 131.977  0.00  0.00    +0.000 NA
ATOM     27  H   UNL     1     -12.298   5.181 131.608  0.00  0.00    +0.000 HD
ENDBRANCH  24  26
ENDBRANCH  18  24
ENDBRANCH   1  21
TORSDOF 3
ENDMDL
MODEL 2
REMARK VINA RESULT:      -8.3      8.125     10.324
REMARK  Name = Rucaparib
REMARK  4 active torsions:
REMARK  status: ('A' for Active; 'I' for Inactive)
REMARK    1  A    between atoms: C_1  and  N_2
REMARK    2  A    between atoms: N_2  and  C_3
REMARK    3  A    between atoms: C_3  and  C_4
REMARK    4  A    between atoms: C_7  and  C_10
REMARK                            x       y       z     vdW  Elec       q    Type
REMARK                         _______ _______ _______ _____ _____    ______ ____
ROOT
ATOM      1  C   UNL     1      -9.959   5.203 132.731  0.00  0.00    +0.000 A 
ATOM      2  C   UNL     1     -10.664   5.129 131.133  0.00  0.00    +0.000 A 
ATOM      3  C   UNL     1      -9.305   5.518 131.303  0.00  0.00    +0.000 C 
ATOM      4  C   UNL     1      -8.990   5.924 129.984  0.00  0.00    +0.000 C 
ATOM      5  N   UNL     1      -9.687   7.127 129.666  0.00  0.00    +0.000 N 
ATOM      6  C   UNL     1     -10.173   6.941 128.405  0.00  0.00    +0.000 C 
ATOM      7  O   UNL     1      -9.708   6.347 127.459  0.00  0.00    +0.000 OA
ATOM      8  C   UNL     1     -11.566   6.991 128.575  0.00  0.00    +0.000 A 
ATOM      9  C   UNL     1     -11.754   5.878 129.843  0.00  0.00    +0.000 A 
ATOM     10  C   UNL     1     -12.366   6.772 130.696  0.00  0.00    +0.000 A 
ATOM     11  N   UNL     1     -11.282   6.327 132.200  0.00  0.00    +0.000 N 
ATOM     12  C   UNL     1     -13.352   8.044 129.749  0.00  0.00    +0.000 A 
ATOM     13  C   UNL     1     -13.082   9.071 128.654  0.00  0.00    +0.000 A 
ATOM     14  F   UNL     1     -13.507  10.382 128.660  0.00  0.00    +0.000 F 
ATOM     15  C   UNL     1     -11.865   8.622 128.419  0.00  0.00    +0.000 A 
ATOM     16  H   UNL     1     -10.419   7.370 130.361  0.00  0.00    +0.000 HD
ATOM     17  H   UNL     1     -11.429   6.656 133.089  0.00  0.00    +0.000 HD
ENDROOT
BRANCH   1  21
ATOM     18  C   UNL     1      -5.160   2.664 135.548  0.00  0.00    +0.000 A 
ATOM     19  C   UNL     1      -5.596   3.986 135.675  0.00  0.00    +0.000 A 
ATOM     20  C   UNL     1      -7.024   4.732 134.862  0.00  0.00    +0.000 A 
ATOM     21  C   UNL     1      -8.242   4.418 133.668  0.00  0.00    +0.000 A 
ATOM     22  C   UNL     1      -7.395   2.942 133.736  0.00  0.00    +0.000 A 
ATOM     23  C   UNL     1      -6.015   2.162 134.559  0.00  0.00    +0.000 A 
BRANCH  18  24
ATOM     24  C   UNL     1      -4.044   1.867 136.320  0.00  0.00    +0.000 C 
BRANCH  24  26
ATOM     25  C   UNL     1      -3.180   2.486 138.529  0.00  0.00    +0.000 C 
ATOM     26  N   UNL     1      -3.155   2.772 137.095  0.00  0.00    +0.000 NA
ATOM     27  H   UNL     1      -2.201   2.661 136.754  0.00  0.00    +0.000 HD
ENDBRANCH  24  26
ENDBRANCH  18  24
ENDBRANCH   1  21
TORSDOF 3
ENDMDL
MODEL 3
REMARK VINA RESULT:      -8.2      7.838     10.389
REMARK  Name = Rucaparib
REMARK  4 active torsions:
REMARK  status: ('A' for Active; 'I' for Inactive)
REMARK    1  A    between atoms: C_1  and  N_2
REMARK    2  A    between atoms: N_2  and  C_3
REMARK    3  A    between atoms: C_3  and  C_4
REMARK    4  A    between atoms: C_7  and  C_10
REMARK                            x       y       z     vdW  Elec       q    Type
REMARK                         _______ _______ _______ _____ _____    ______ ____
ROOT
ATOM      1  C   UNL     1      -9.645   4.527 132.820  0.00  0.00    +0.000 A 
ATOM      2  C   UNL     1     -10.510   4.706 131.311  0.00  0.00    +0.000 A 
ATOM      3  C   UNL     1      -9.104   4.927 131.366  0.00  0.00    +0.000 C 
ATOM      4  C   UNL     1      -8.877   5.441 130.067  0.00  0.00    +0.000 C 
ATOM      5  N   UNL     1      -9.457   6.739 129.949  0.00  0.00    +0.000 N 
ATOM      6  C   UNL     1     -10.084   6.747 128.739  0.00  0.00    +0.000 C 
ATOM      7  O   UNL     1      -9.789   6.216 127.692  0.00  0.00    +0.000 OA
ATOM      8  C   UNL     1     -11.438   6.924 129.067  0.00  0.00    +0.000 A 
ATOM      9  C   UNL     1     -11.628   5.704 130.231  0.00  0.00    +0.000 A 
ATOM     10  C   UNL     1     -12.043   6.557 131.231  0.00  0.00    +0.000 A 
ATOM     11  N   UNL     1     -10.873   5.836 132.554  0.00  0.00    +0.000 N 
ATOM     12  C   UNL     1     -12.963   8.024 130.531  0.00  0.00    +0.000 A 
ATOM     13  C   UNL     1     -12.684   9.132 129.520  0.00  0.00    +0.000 A 
ATOM     14  F   UNL     1     -12.950  10.472 129.704  0.00  0.00    +0.000 F 
ATOM     15  C   UNL     1     -11.558   8.585 129.108  0.00  0.00    +0.000 A 
ATOM     16  H   UNL     1     -10.082   6.979 130.742  0.00  0.00    +0.000 HD
ATOM     17  H   UNL     1     -10.892   6.078 133.482  0.00  0.00    +0.000 HD
ENDROOT
BRANCH   1  21
ATOM     18  C   UNL     1      -4.919   1.194 134.815  0.00  0.00    +0.000 A 
ATOM     19  C   UNL     1      -5.191   2.528 135.133  0.00  0.00    +0.000 A 
ATOM     20  C   UNL     1      -6.596   3.507 134.563  0.00  0.00    +0.000 A 
ATOM     21  C   UNL     1      -7.948   3.464 133.477  0.00  0.00    +0.000 A 
ATOM     22  C   UNL     1      -7.268   1.914 133.291  0.00  0.00    +0.000 A 
ATOM     23  C   UNL     1      -5.913   0.905 133.871  0.00  0.00    +0.000 A 
BRANCH  18  24
ATOM     24  C   UNL     1      -3.833   0.202 135.370  0.00  0.00    +0.000 C 
BRANCH  24  26
ATOM     25  C   UNL     1      -2.375  -1.305 134.098  0.00  0.00    +0.000 C 
ATOM     26  N   UNL     1      -2.671   0.083 134.450  0.00  0.00    +0.000 NA
ATOM     27  H   UNL     1      -2.878   0.602 133.598  0.00  0.00    +0.000 HD
ENDBRANCH  24  26
ENDBRANCH  18  24
ENDBRANCH   1  21
TORSDOF 3
ENDMDL
MODEL 4
REMARK VINA RESULT:      -7.7      5.439     10.008
REMARK  Name = Rucaparib
REMARK  4 active torsions:
REMARK  status: ('A' for Active; 'I' for Inactive)
REMARK    1  A    between atoms: C_1  and  N_2
REMARK    2  A    between atoms: N_2  and  C_3
REMARK    3  A    between atoms: C_3  and  C_4
REMARK    4  A    between atoms: C_7  and  C_10
REMARK                            x       y       z     vdW  Elec       q    Type
REMARK                         _______ _______ _______ _____ _____    ______ ____
ROOT
ATOM      1  C   UNL     1      -8.552   3.912 128.901  0.00  0.00    +0.000 A 
ATOM      2  C   UNL     1      -8.960   5.259 129.938  0.00  0.00    +0.000 A 
ATOM      3  C   UNL     1      -9.684   4.035 130.028  0.00  0.00    +0.000 C 
ATOM      4  C   UNL     1     -10.720   4.418 130.913  0.00  0.00    +0.000 C 
ATOM      5  N   UNL     1     -11.604   5.328 130.261  0.00  0.00    +0.000 N 
ATOM      6  C   UNL     1     -11.847   6.313 131.173  0.00  0.00    +0.000 C 
ATOM      7  O   UNL     1     -11.949   6.266 132.378  0.00  0.00    +0.000 OA
ATOM      8  C   UNL     1     -11.318   7.464 130.567  0.00  0.00    +0.000 A 
ATOM      9  C   UNL     1      -9.770   6.905 130.157  0.00  0.00    +0.000 A 
ATOM     10  C   UNL     1      -9.904   7.162 128.809  0.00  0.00    +0.000 A 
ATOM     11  N   UNL     1      -9.245   5.460 128.255  0.00  0.00    +0.000 N 
ATOM     12  C   UNL     1     -11.025   8.625 128.507  0.00  0.00    +0.000 A 
ATOM     13  C   UNL     1     -12.455   9.021 128.859  0.00  0.00    +0.000 A 
ATOM     14  F   UNL     1     -13.377   9.557 127.987  0.00  0.00    +0.000 F 
ATOM     15  C   UNL     1     -12.621   8.003 129.681  0.00  0.00    +0.000 A 
ATOM     16  H   UNL     1     -11.232   5.681 129.359  0.00  0.00    +0.000 HD
ATOM     17  H   UNL     1      -9.064   5.221 127.344  0.00  0.00    +0.000 HD
ENDROOT
BRANCH   1  21
ATOM     18  C   UNL     1      -7.462  -2.079 129.483  0.00  0.00    +0.000 A 
ATOM     19  C   UNL     1      -7.613  -1.155 130.522  0.00  0.00    +0.000 A 
ATOM     20  C   UNL     1      -7.956   0.609 130.353  0.00  0.00    +0.000 A 
ATOM     21  C   UNL     1      -8.093   1.873 129.174  0.00  0.00    +0.000 A 
ATOM     22  C   UNL     1      -7.804   0.496 128.215  0.00  0.00    +0.000 A 
ATOM     23  C   UNL     1      -7.509  -1.260 128.348  0.00  0.00    +0.000 A 
BRANCH  18  24
ATOM     24  C   UNL     1      -7.325  -3.646 129.507  0.00  0.00    +0.000 C 
BRANCH  24  26
ATOM     25  C   UNL     1      -4.888  -3.657 129.780  0.00  0.00    +0.000 C 
ATOM     26  N   UNL     1      -6.171  -4.086 130.334  0.00  0.00    +0.000 NA
ATOM     27  H   UNL     1      -6.274  -3.694 131.270  0.00  0.00    +0.000 HD
ENDBRANCH  24  26
ENDBRANCH  18  24
ENDBRANCH   1  21
TORSDOF 3
ENDMDL
MODEL 5
REMARK VINA RESULT:      -7.6      4.336      5.238
REMARK  Name = Rucaparib
REMARK  4 active torsions:
REMARK  status: ('A' for Active; 'I' for Inactive)
REMARK    1  A    between atoms: C_1  and  N_2
REMARK    2  A    between atoms: N_2  and  C_3
REMARK    3  A    between atoms: C_3  and  C_4
REMARK    4  A    between atoms: C_7  and  C_10
REMARK                            x       y       z     vdW  Elec       q    Type
REMARK                         _______ _______ _______ _____ _____    ______ ____
ROOT
ATOM      1  C   UNL     1      -4.516   1.534 126.611  0.00  0.00    +0.000 A 
ATOM      2  C   UNL     1      -5.882   1.273 125.552  0.00  0.00    +0.000 A 
ATOM      3  C   UNL     1      -6.085   1.575 126.930  0.00  0.00    +0.000 C 
ATOM      4  C   UNL     1      -7.482   1.374 127.030  0.00  0.00    +0.000 C 
ATOM      5  N   UNL     1      -7.784  -0.015 126.902  0.00  0.00    +0.000 N 
ATOM      6  C   UNL     1      -8.862  -0.075 126.069  0.00  0.00    +0.000 C 
ATOM      7  O   UNL     1      -9.804   0.673 125.940  0.00  0.00    +0.000 OA
ATOM      8  C   UNL     1      -8.381  -0.780 124.954  0.00  0.00    +0.000 A 
ATOM      9  C   UNL     1      -6.970   0.103 124.625  0.00  0.00    +0.000 A 
ATOM     10  C   UNL     1      -6.123  -0.978 124.740  0.00  0.00    +0.000 A 
ATOM     11  N   UNL     1      -4.866  -0.080 125.859  0.00  0.00    +0.000 N 
ATOM     12  C   UNL     1      -6.973  -2.561 124.230  0.00  0.00    +0.000 A 
ATOM     13  C   UNL     1      -8.225  -3.331 124.636  0.00  0.00    +0.000 A 
ATOM     14  F   UNL     1      -8.292  -4.687 124.875  0.00  0.00    +0.000 F 
ATOM     15  C   UNL     1      -8.675  -2.357 125.402  0.00  0.00    +0.000 A 
ATOM     16  H   UNL     1      -6.976  -0.579 126.576  0.00  0.00    +0.000 HD
ATOM     17  H   UNL     1      -4.019  -0.443 126.121  0.00  0.00    +0.000 HD
ENDROOT
BRANCH   1  21
ATOM     18  C   UNL     1      -2.449   5.875 130.393  0.00  0.00    +0.000 A 
ATOM     19  C   UNL     1      -3.179   4.737 130.751  0.00  0.00    +0.000 A 
ATOM     20  C   UNL     1      -3.772   3.444 129.640  0.00  0.00    +0.000 A 
ATOM     21  C   UNL     1      -3.908   3.036 127.960  0.00  0.00    +0.000 A 
ATOM     22  C   UNL     1      -3.076   4.521 127.918  0.00  0.00    +0.000 A 
ATOM     23  C   UNL     1      -2.439   5.794 128.995  0.00  0.00    +0.000 A 
BRANCH  18  24
ATOM     24  C   UNL     1      -1.749   6.972 131.278  0.00  0.00    +0.000 C 
BRANCH  24  26
ATOM     25  C   UNL     1      -0.711   6.540 133.457  0.00  0.00    +0.000 C 
ATOM     26  N   UNL     1      -0.573   6.426 132.006  0.00  0.00    +0.000 NA
ATOM     27  H   UNL     1      -0.468   5.442 131.761  0.00  0.00    +0.000 HD
ENDBRANCH  24  26
ENDBRANCH  18  24
ENDBRANCH   1  21
TORSDOF 3
ENDMDL
MODEL 6
REMARK VINA RESULT:      -7.6      4.537      5.070
REMARK  Name = Rucaparib
REMARK  4 active torsions:
REMARK  status: ('A' for Active; 'I' for Inactive)
REMARK    1  A    between atoms: C_1  and  N_2
REMARK    2  A    between atoms: N_2  and  C_3
REMARK    3  A    between atoms: C_3  and  C_4
REMARK    4  A    between atoms: C_7  and  C_10
REMARK                            x       y       z     vdW  Elec       q    Type
REMARK                         _______ _______ _______ _____ _____    ______ ____
ROOT
ATOM      1  C   UNL     1      -5.377  -0.566 127.904  0.00  0.00    +0.000 A 
ATOM      2  C   UNL     1      -5.340  -0.751 126.166  0.00  0.00    +0.000 A 
ATOM      3  C   UNL     1      -5.937   0.400 126.756  0.00  0.00    +0.000 C 
ATOM      4  C   UNL     1      -6.517   1.000 125.612  0.00  0.00    +0.000 C 
ATOM      5  N   UNL     1      -7.609   0.207 125.149  0.00  0.00    +0.000 N 
ATOM      6  C   UNL     1      -7.468   0.152 123.795  0.00  0.00    +0.000 C 
ATOM      7  O   UNL     1      -7.057   0.976 123.009  0.00  0.00    +0.000 OA
ATOM      8  C   UNL     1      -7.262  -1.212 123.536  0.00  0.00    +0.000 A 
ATOM      9  C   UNL     1      -6.015  -1.542 124.639  0.00  0.00    +0.000 A 
ATOM     10  C   UNL     1      -6.703  -2.535 125.303  0.00  0.00    +0.000 A 
ATOM     11  N   UNL     1      -6.305  -1.869 127.046  0.00  0.00    +0.000 N 
ATOM     12  C   UNL     1      -7.875  -3.430 124.157  0.00  0.00    +0.000 A 
ATOM     13  C   UNL     1      -9.035  -3.056 123.240  0.00  0.00    +0.000 A 
ATOM     14  F   UNL     1     -10.247  -3.708 123.173  0.00  0.00    +0.000 F 
ATOM     15  C   UNL     1      -8.825  -1.760 123.367  0.00  0.00    +0.000 A 
ATOM     16  H   UNL     1      -7.654  -0.727 125.600  0.00  0.00    +0.000 HD
ATOM     17  H   UNL     1      -6.515  -2.327 127.861  0.00  0.00    +0.000 HD
ENDROOT
BRANCH   1  21
ATOM     18  C   UNL     1      -3.439   3.785 131.741  0.00  0.00    +0.000 A 
ATOM     19  C   UNL     1      -3.973   2.542 132.093  0.00  0.00    +0.000 A 
ATOM     20  C   UNL     1      -4.526   1.248 130.963  0.00  0.00    +0.000 A 
ATOM     21  C   UNL     1      -4.807   0.922 129.283  0.00  0.00    +0.000 A 
ATOM     22  C   UNL     1      -4.179   2.505 129.258  0.00  0.00    +0.000 A 
ATOM     23  C   UNL     1      -3.583   3.787 130.348  0.00  0.00    +0.000 A 
BRANCH  18  24
ATOM     24  C   UNL     1      -2.782   4.912 132.620  0.00  0.00    +0.000 C 
BRANCH  24  26
ATOM     25  C   UNL     1      -0.927   6.329 131.867  0.00  0.00    +0.000 C 
ATOM     26  N   UNL     1      -1.318   5.017 132.381  0.00  0.00    +0.000 NA
ATOM     27  H   UNL     1      -0.833   4.851 133.262  0.00  0.00    +0.000 HD
ENDBRANCH  24  26
ENDBRANCH  18  24
ENDBRANCH   1  21
TORSDOF 3
ENDMDL
MODEL 7
REMARK VINA RESULT:      -7.6      5.017      9.848
REMARK  Name = Rucaparib
REMARK  4 active torsions:
REMARK  status: ('A' for Active; 'I' for Inactive)
REMARK    1  A    between atoms: C_1  and  N_2
REMARK    2  A    between atoms: N_2  and  C_3
REMARK    3  A    between atoms: C_3  and  C_4
REMARK    4  A    between atoms: C_7  and  C_10
REMARK                            x       y       z     vdW  Elec       q    Type
REMARK                         _______ _______ _______ _____ _____    ______ ____
ROOT
ATOM      1  C   UNL     1      -7.688   0.100 131.427  0.00  0.00    +0.000 A 
ATOM      2  C   UNL     1      -8.660   1.327 132.206  0.00  0.00    +0.000 A 
ATOM      3  C   UNL     1      -8.328   1.440 130.825  0.00  0.00    +0.000 C 
ATOM      4  C   UNL     1      -8.811   2.742 130.554  0.00  0.00    +0.000 C 
ATOM      5  N   UNL     1      -7.997   3.710 131.214  0.00  0.00    +0.000 N 
ATOM      6  C   UNL     1      -8.869   4.602 131.763  0.00  0.00    +0.000 C 
ATOM      7  O   UNL     1      -9.938   5.009 131.366  0.00  0.00    +0.000 OA
ATOM      8  C   UNL     1      -8.645   4.480 133.144  0.00  0.00    +0.000 A 
ATOM      9  C   UNL     1      -8.766   2.797 133.321  0.00  0.00    +0.000 A 
ATOM     10  C   UNL     1      -7.506   2.642 133.856  0.00  0.00    +0.000 A 
ATOM     11  N   UNL     1      -7.027   1.183 132.725  0.00  0.00    +0.000 N 
ATOM     12  C   UNL     1      -6.994   4.151 134.831  0.00  0.00    +0.000 A 
ATOM     13  C   UNL     1      -6.844   5.646 134.567  0.00  0.00    +0.000 A 
ATOM     14  F   UNL     1      -5.766   6.422 134.938  0.00  0.00    +0.000 F 
ATOM     15  C   UNL     1      -7.416   5.579 133.382  0.00  0.00    +0.000 A 
ATOM     16  H   UNL     1      -7.344   3.291 131.903  0.00  0.00    +0.000 HD
ATOM     17  H   UNL     1      -6.224   0.667 132.818  0.00  0.00    +0.000 HD
ENDROOT
BRANCH   1  21
ATOM     18  C   UNL     1      -8.386  -3.160 126.299  0.00  0.00    +0.000 A 
ATOM     19  C   UNL     1      -8.515  -3.631 127.609  0.00  0.00    +0.000 A 
ATOM     20  C   UNL     1      -8.331  -2.666 129.123  0.00  0.00    +0.000 A 
ATOM     21  C   UNL     1      -7.859  -1.102 129.704  0.00  0.00    +0.000 A 
ATOM     22  C   UNL     1      -7.740  -0.925 128.015  0.00  0.00    +0.000 A 
ATOM     23  C   UNL     1      -7.959  -1.841 126.497  0.00  0.00    +0.000 A 
BRANCH  18  24
ATOM     24  C   UNL     1      -8.679  -3.856 124.919  0.00  0.00    +0.000 C 
BRANCH  24  26
ATOM     25  C   UNL     1      -9.195  -2.309 123.087  0.00  0.00    +0.000 C 
ATOM     26  N   UNL     1      -9.739  -3.146 124.155  0.00  0.00    +0.000 NA
ATOM     27  H   UNL     1     -10.363  -3.840 123.745  0.00  0.00    +0.000 HD
ENDBRANCH  24  26
ENDBRANCH  18  24
ENDBRANCH   1  21
TORSDOF 3
ENDMDL
MODEL 8
REMARK VINA RESULT:      -7.3      7.385     10.809
REMARK  Name = Rucaparib
REMARK  4 active torsions:
REMARK  status: ('A' for Active; 'I' for Inactive)
REMARK    1  A    between atoms: C_1  and  N_2
REMARK    2  A    between atoms: N_2  and  C_3
REMARK    3  A    between atoms: C_3  and  C_4
REMARK    4  A    between atoms: C_7  and  C_10
REMARK                            x       y       z     vdW  Elec       q    Type
REMARK                         _______ _______ _______ _____ _____    ______ ____
ROOT
ATOM      1  C   UNL     1      -3.018   5.108 128.555  0.00  0.00    +0.000 A 
ATOM      2  C   UNL     1      -2.865   4.897 130.284  0.00  0.00    +0.000 A 
ATOM      3  C   UNL     1      -4.082   5.379 129.721  0.00  0.00    +0.000 C 
ATOM      4  C   UNL     1      -4.786   5.725 130.899  0.00  0.00    +0.000 C 
ATOM      5  N   UNL     1      -4.180   6.862 131.511  0.00  0.00    +0.000 N 
ATOM      6  C   UNL     1      -4.132   6.574 132.843  0.00  0.00    +0.000 C 
ATOM      7  O   UNL     1      -4.899   5.955 133.546  0.00  0.00    +0.000 OA
ATOM      8  C   UNL     1      -2.757   6.546 133.128  0.00  0.00    +0.000 A 
ATOM      9  C   UNL     1      -2.217   5.501 131.906  0.00  0.00    +0.000 A 
ATOM     10  C   UNL     1      -1.329   6.403 131.360  0.00  0.00    +0.000 A 
ATOM     11  N   UNL     1      -1.891   6.115 129.560  0.00  0.00    +0.000 N 
ATOM     12  C   UNL     1      -0.648   7.554 132.663  0.00  0.00    +0.000 A 
ATOM     13  C   UNL     1      -1.214   8.530 133.690  0.00  0.00    +0.000 A 
ATOM     14  F   UNL     1      -0.757   9.810 133.917  0.00  0.00    +0.000 F 
ATOM     15  C   UNL     1      -2.459   8.144 133.492  0.00  0.00    +0.000 A 
ATOM     16  H   UNL     1      -3.255   7.099 131.105  0.00  0.00    +0.000 HD
ATOM     17  H   UNL     1      -1.454   6.485 128.792  0.00  0.00    +0.000 HD
ENDROOT
BRANCH   1  21
ATOM     18  C   UNL     1      -6.702   3.143 124.085  0.00  0.00    +0.000 A 
ATOM     19  C   UNL     1      -6.589   4.455 124.554  0.00  0.00    +0.000 A 
ATOM     20  C   UNL     1      -5.488   5.041 125.859  0.00  0.00    +0.000 A 
ATOM     21  C   UNL     1      -4.373   4.486 127.066  0.00  0.00    +0.000 A 
ATOM     22  C   UNL     1      -4.823   3.044 126.279  0.00  0.00    +0.000 A 
ATOM     23  C   UNL     1      -5.868   2.440 124.964  0.00  0.00    +0.000 A 
BRANCH  18  24
ATOM     24  C   UNL     1      -7.495   2.549 122.863  0.00  0.00    +0.000 C 
BRANCH  24  26
ATOM     25  C   UNL     1      -8.633   3.592 120.958  0.00  0.00    +0.000 C 
ATOM     26  N   UNL     1      -8.579   3.461 122.413  0.00  0.00    +0.000 NA
ATOM     27  H   UNL     1      -9.471   3.092 122.743  0.00  0.00    +0.000 HD
ENDBRANCH  24  26
ENDBRANCH  18  24
ENDBRANCH   1  21
TORSDOF 3
ENDMDL
MODEL 9
REMARK VINA RESULT:      -7.2      5.102      7.295
REMARK  Name = Rucaparib
REMARK  4 active torsions:
REMARK  status: ('A' for Active; 'I' for Inactive)
REMARK    1  A    between atoms: C_1  and  N_2
REMARK    2  A    between atoms: N_2  and  C_3
REMARK    3  A    between atoms: C_3  and  C_4
REMARK    4  A    between atoms: C_7  and  C_10
REMARK                            x       y       z     vdW  Elec       q    Type
REMARK                         _______ _______ _______ _____ _____    ______ ____
ROOT
ATOM      1  C   UNL     1      -5.525   0.983 127.107  0.00  0.00    +0.000 A 
ATOM      2  C   UNL     1      -6.643   1.995 126.224  0.00  0.00    +0.000 A 
ATOM      3  C   UNL     1      -6.646   0.583 126.035  0.00  0.00    +0.000 C 
ATOM      4  C   UNL     1      -7.542   0.475 124.945  0.00  0.00    +0.000 C 
ATOM      5  N   UNL     1      -6.941   1.010 123.766  0.00  0.00    +0.000 N 
ATOM      6  C   UNL     1      -7.913   1.762 123.175  0.00  0.00    +0.000 C 
ATOM      7  O   UNL     1      -9.111   1.602 123.117  0.00  0.00    +0.000 OA
ATOM      8  C   UNL     1      -7.390   3.065 123.205  0.00  0.00    +0.000 A 
ATOM      9  C   UNL     1      -6.961   3.180 124.842  0.00  0.00    +0.000 A 
ATOM     10  C   UNL     1      -5.632   3.451 124.599  0.00  0.00    +0.000 A 
ATOM     11  N   UNL     1      -4.974   2.178 125.858  0.00  0.00    +0.000 N 
ATOM     12  C   UNL     1      -5.413   4.379 122.993  0.00  0.00    +0.000 A 
ATOM     13  C   UNL     1      -5.775   4.165 121.527  0.00  0.00    +0.000 A 
ATOM     14  F   UNL     1      -4.929   4.355 120.455  0.00  0.00    +0.000 F 
ATOM     15  C   UNL     1      -6.526   3.112 121.781  0.00  0.00    +0.000 A 
ATOM     16  H   UNL     1      -6.068   1.538 123.958  0.00  0.00    +0.000 HD
ATOM     17  H   UNL     1      -4.052   2.088 126.104  0.00  0.00    +0.000 HD
ENDROOT
BRANCH   1  21
ATOM     18  C   UNL     1      -5.660  -4.096 130.514  0.00  0.00    +0.000 A 
ATOM     19  C   UNL     1      -6.709  -3.579 129.748  0.00  0.00    +0.000 A 
ATOM     20  C   UNL     1      -6.665  -2.093 128.725  0.00  0.00    +0.000 A 
ATOM     21  C   UNL     1      -5.669  -0.730 128.327  0.00  0.00    +0.000 A 
ATOM     22  C   UNL     1      -4.680  -1.620 129.391  0.00  0.00    +0.000 A 
ATOM     23  C   UNL     1      -4.677  -3.108 130.377  0.00  0.00    +0.000 A 
BRANCH  18  24
ATOM     24  C   UNL     1      -5.529  -5.449 131.305  0.00  0.00    +0.000 C 
BRANCH  24  26
ATOM     25  C   UNL     1      -5.999  -4.800 133.622  0.00  0.00    +0.000 C 
ATOM     26  N   UNL     1      -4.981  -5.241 132.671  0.00  0.00    +0.000 NA
ATOM     27  H   UNL     1      -4.582  -6.120 132.998  0.00  0.00    +0.000 HD
ENDBRANCH  24  26
ENDBRANCH  18  24
ENDBRANCH   1  21
TORSDOF 3
ENDMDL
