MODEL 1
REMARK VINA RESULT:      -7.1      0.000      0.000
REMARK  Name = Rufinamide
REMARK  3 active torsions:
REMARK  status: ('A' for Active; 'I' for Inactive)
REMARK    1  A    between atoms: C_2  and  C_4
REMARK    2  A    between atoms: N_6  and  C_7
REMARK    3  A    between atoms: C_7  and  C_8
REMARK                            x       y       z     vdW  Elec       q    Type
REMARK                         _______ _______ _______ _____ _____    ______ ____
ROOT
ATOM      1  C   UNL     1      -9.029  -0.841 123.102  0.00  0.00    +0.000 A 
ATOM      2  C   UNL     1      -8.399   0.303 123.542  0.00  0.00    +0.000 A 
ATOM      3  N   UNL     1      -9.147   1.332 123.039  0.00  0.00    +0.000 N 
ATOM      4  N   UNL     1     -10.239   0.858 122.412  0.00  0.00    +0.000 NA
ATOM      5  N   UNL     1     -10.164  -0.471 122.421  0.00  0.00    +0.000 NA
ENDROOT
BRANCH   1   7
ATOM      6  N   UNL     1      -9.521  -3.185 123.319  0.00  0.00    +0.000 N 
ATOM      7  C   UNL     1      -8.559  -2.210 123.241  0.00  0.00    +0.000 C 
ATOM      8  O   UNL     1      -7.371  -2.524 123.305  0.00  0.00    +0.000 OA
ATOM      9  H   UNL     1      -9.192  -4.141 123.356  0.00  0.00    +0.000 HD
ATOM     10  H   UNL     1     -10.501  -3.016 123.143  0.00  0.00    +0.000 HD
ENDBRANCH   1   7
BRANCH   3  11
ATOM     11  C   UNL     1      -8.889   2.772 123.065  0.00  0.00    +0.000 C 
BRANCH  11  12
ATOM     12  C   UNL     1      -7.845   3.190 122.065  0.00  0.00    +0.000 A 
ATOM     13  C   UNL     1      -6.496   3.242 122.433  0.00  0.00    +0.000 A 
ATOM     14  F   UNL     1      -6.135   2.869 123.668  0.00  0.00    +0.000 F 
ATOM     15  C   UNL     1      -5.528   3.773 121.590  0.00  0.00    +0.000 A 
ATOM     16  C   UNL     1      -5.891   4.214 120.321  0.00  0.00    +0.000 A 
ATOM     17  C   UNL     1      -7.223   4.130 119.914  0.00  0.00    +0.000 A 
ATOM     18  C   UNL     1      -8.187   3.622 120.785  0.00  0.00    +0.000 A 
ATOM     19  F   UNL     1      -9.463   3.577 120.381  0.00  0.00    +0.000 F 
ENDBRANCH  11  12
ENDBRANCH   3  11
TORSDOF 3
ENDMDL
MODEL 2
REMARK VINA RESULT:      -6.7      0.796      2.150
REMARK  Name = Rufinamide
REMARK  3 active torsions:
REMARK  status: ('A' for Active; 'I' for Inactive)
REMARK    1  A    between atoms: C_2  and  C_4
REMARK    2  A    between atoms: N_6  and  C_7
REMARK    3  A    between atoms: C_7  and  C_8
REMARK                            x       y       z     vdW  Elec       q    Type
REMARK                         _______ _______ _______ _____ _____    ______ ____
ROOT
ATOM      1  C   UNL     1      -8.964  -0.834 123.044  0.00  0.00    +0.000 A 
ATOM      2  C   UNL     1      -8.386   0.313 123.544  0.00  0.00    +0.000 A 
ATOM      3  N   UNL     1      -9.170   1.333 123.081  0.00  0.00    +0.000 N 
ATOM      4  N   UNL     1     -10.236   0.845 122.421  0.00  0.00    +0.000 NA
ATOM      5  N   UNL     1     -10.107  -0.478 122.369  0.00  0.00    +0.000 NA
ENDROOT
BRANCH   1   7
ATOM      6  N   UNL     1      -7.076  -2.317 123.187  0.00  0.00    +0.000 N 
ATOM      7  C   UNL     1      -8.440  -2.188 123.124  0.00  0.00    +0.000 C 
ATOM      8  O   UNL     1      -9.145  -3.197 123.123  0.00  0.00    +0.000 OA
ATOM      9  H   UNL     1      -6.716  -3.255 123.302  0.00  0.00    +0.000 HD
ATOM     10  H   UNL     1      -6.449  -1.537 123.324  0.00  0.00    +0.000 HD
ENDBRANCH   1   7
BRANCH   3  11
ATOM     11  C   UNL     1      -8.971   2.780 123.177  0.00  0.00    +0.000 C 
BRANCH  11  12
ATOM     12  C   UNL     1      -7.898   3.277 122.246  0.00  0.00    +0.000 A 
ATOM     13  C   UNL     1      -8.216   3.645 120.935  0.00  0.00    +0.000 A 
ATOM     14  F   UNL     1      -9.492   3.598 120.528  0.00  0.00    +0.000 F 
ATOM     15  C   UNL     1      -7.233   3.956 120.003  0.00  0.00    +0.000 A 
ATOM     16  C   UNL     1      -5.896   3.960 120.392  0.00  0.00    +0.000 A 
ATOM     17  C   UNL     1      -5.558   3.640 121.707  0.00  0.00    +0.000 A 
ATOM     18  C   UNL     1      -6.556   3.302 122.621  0.00  0.00    +0.000 A 
ATOM     19  F   UNL     1      -6.202   2.973 123.870  0.00  0.00    +0.000 F 
ENDBRANCH  11  12
ENDBRANCH   3  11
TORSDOF 3
ENDMDL
MODEL 3
REMARK VINA RESULT:      -6.7      3.486      5.875
REMARK  Name = Rufinamide
REMARK  3 active torsions:
REMARK  status: ('A' for Active; 'I' for Inactive)
REMARK    1  A    between atoms: C_2  and  C_4
REMARK    2  A    between atoms: N_6  and  C_7
REMARK    3  A    between atoms: C_7  and  C_8
REMARK                            x       y       z     vdW  Elec       q    Type
REMARK                         _______ _______ _______ _____ _____    ______ ____
ROOT
ATOM      1  C   UNL     1      -8.926   2.284 124.287  0.00  0.00    +0.000 A 
ATOM      2  C   UNL     1      -8.566   1.468 123.236  0.00  0.00    +0.000 A 
ATOM      3  N   UNL     1      -9.222   0.289 123.464  0.00  0.00    +0.000 N 
ATOM      4  N   UNL     1     -10.029   0.399 124.536  0.00  0.00    +0.000 NA
ATOM      5  N   UNL     1      -9.837   1.606 125.063  0.00  0.00    +0.000 NA
ENDROOT
BRANCH   1   7
ATOM      6  N   UNL     1      -7.303   4.009 123.876  0.00  0.00    +0.000 N 
ATOM      7  C   UNL     1      -8.395   3.600 124.599  0.00  0.00    +0.000 C 
ATOM      8  O   UNL     1      -8.857   4.338 125.469  0.00  0.00    +0.000 OA
ATOM      9  H   UNL     1      -6.970   4.948 124.053  0.00  0.00    +0.000 HD
ATOM     10  H   UNL     1      -6.956   3.517 123.065  0.00  0.00    +0.000 HD
ENDBRANCH   1   7
BRANCH   3  11
ATOM     11  C   UNL     1      -9.118  -0.988 122.758  0.00  0.00    +0.000 C 
BRANCH  11  12
ATOM     12  C   UNL     1      -8.091  -1.903 123.368  0.00  0.00    +0.000 A 
ATOM     13  C   UNL     1      -6.732  -1.723 123.092  0.00  0.00    +0.000 A 
ATOM     14  F   UNL     1      -6.346  -0.698 122.319  0.00  0.00    +0.000 F 
ATOM     15  C   UNL     1      -5.773  -2.639 123.505  0.00  0.00    +0.000 A 
ATOM     16  C   UNL     1      -6.159  -3.740 124.265  0.00  0.00    +0.000 A 
ATOM     17  C   UNL     1      -7.504  -3.917 124.592  0.00  0.00    +0.000 A 
ATOM     18  C   UNL     1      -8.457  -3.002 124.142  0.00  0.00    +0.000 A 
ATOM     19  F   UNL     1      -9.745  -3.209 124.447  0.00  0.00    +0.000 F 
ENDBRANCH  11  12
ENDBRANCH   3  11
TORSDOF 3
ENDMDL
MODEL 4
REMARK VINA RESULT:      -6.6      3.551      5.923
REMARK  Name = Rufinamide
REMARK  3 active torsions:
REMARK  status: ('A' for Active; 'I' for Inactive)
REMARK    1  A    between atoms: C_2  and  C_4
REMARK    2  A    between atoms: N_6  and  C_7
REMARK    3  A    between atoms: C_7  and  C_8
REMARK                            x       y       z     vdW  Elec       q    Type
REMARK                         _______ _______ _______ _____ _____    ______ ____
ROOT
ATOM      1  C   UNL     1      -8.766   2.422 124.673  0.00  0.00    +0.000 A 
ATOM      2  C   UNL     1      -8.822   1.738 123.478  0.00  0.00    +0.000 A 
ATOM      3  N   UNL     1      -9.151   0.455 123.822  0.00  0.00    +0.000 N 
ATOM      4  N   UNL     1      -9.390   0.369 125.143  0.00  0.00    +0.000 NA
ATOM      5  N   UNL     1      -9.132   1.560 125.678  0.00  0.00    +0.000 NA
ENDROOT
BRANCH   1   7
ATOM      6  N   UNL     1      -7.179   4.172 124.221  0.00  0.00    +0.000 N 
ATOM      7  C   UNL     1      -8.320   3.790 124.880  0.00  0.00    +0.000 C 
ATOM      8  O   UNL     1      -8.895   4.595 125.613  0.00  0.00    +0.000 OA
ATOM      9  H   UNL     1      -6.904   5.140 124.319  0.00  0.00    +0.000 HD
ATOM     10  H   UNL     1      -6.735   3.612 123.508  0.00  0.00    +0.000 HD
ENDBRANCH   1   7
BRANCH   3  11
ATOM     11  C   UNL     1      -9.219  -0.745 122.988  0.00  0.00    +0.000 C 
BRANCH  11  12
ATOM     12  C   UNL     1      -8.146  -1.745 123.326  0.00  0.00    +0.000 A 
ATOM     13  C   UNL     1      -8.476  -2.948 123.959  0.00  0.00    +0.000 A 
ATOM     14  F   UNL     1      -9.761  -3.225 124.219  0.00  0.00    +0.000 F 
ATOM     15  C   UNL     1      -7.501  -3.819 124.428  0.00  0.00    +0.000 A 
ATOM     16  C   UNL     1      -6.157  -3.524 124.215  0.00  0.00    +0.000 A 
ATOM     17  C   UNL     1      -5.805  -2.352 123.545  0.00  0.00    +0.000 A 
ATOM     18  C   UNL     1      -6.797  -1.474 123.108  0.00  0.00    +0.000 A 
ATOM     19  F   UNL     1      -6.431  -0.342 122.491  0.00  0.00    +0.000 F 
ENDBRANCH  11  12
ENDBRANCH   3  11
TORSDOF 3
ENDMDL
MODEL 5
REMARK VINA RESULT:      -6.3      3.562      6.456
REMARK  Name = Rufinamide
REMARK  3 active torsions:
REMARK  status: ('A' for Active; 'I' for Inactive)
REMARK    1  A    between atoms: C_2  and  C_4
REMARK    2  A    between atoms: N_6  and  C_7
REMARK    3  A    between atoms: C_7  and  C_8
REMARK                            x       y       z     vdW  Elec       q    Type
REMARK                         _______ _______ _______ _____ _____    ______ ____
ROOT
ATOM      1  C   UNL     1      -9.088   0.891 123.141  0.00  0.00    +0.000 A 
ATOM      2  C   UNL     1      -8.093   0.001 123.484  0.00  0.00    +0.000 A 
ATOM      3  N   UNL     1      -8.669  -1.234 123.366  0.00  0.00    +0.000 N 
ATOM      4  N   UNL     1      -9.918  -1.127 122.876  0.00  0.00    +0.000 NA
ATOM      5  N   UNL     1     -10.195   0.170 122.759  0.00  0.00    +0.000 NA
ENDROOT
BRANCH   1   7
ATOM      6  N   UNL     1      -9.105   2.877 124.498  0.00  0.00    +0.000 N 
ATOM      7  C   UNL     1      -9.041   2.341 123.236  0.00  0.00    +0.000 C 
ATOM      8  O   UNL     1      -8.964   3.090 122.262  0.00  0.00    +0.000 OA
ATOM      9  H   UNL     1      -9.012   3.882 124.566  0.00  0.00    +0.000 HD
ATOM     10  H   UNL     1      -9.036   2.325 125.341  0.00  0.00    +0.000 HD
ENDBRANCH   1   7
BRANCH   3  11
ATOM     11  C   UNL     1      -8.139  -2.548 123.729  0.00  0.00    +0.000 C 
BRANCH  11  12
ATOM     12  C   UNL     1      -7.756  -2.636 125.182  0.00  0.00    +0.000 A 
ATOM     13  C   UNL     1      -8.727  -2.908 126.152  0.00  0.00    +0.000 A 
ATOM     14  F   UNL     1      -9.991  -3.139 125.773  0.00  0.00    +0.000 F 
ATOM     15  C   UNL     1      -8.443  -2.840 127.510  0.00  0.00    +0.000 A 
ATOM     16  C   UNL     1      -7.147  -2.549 127.926  0.00  0.00    +0.000 A 
ATOM     17  C   UNL     1      -6.152  -2.319 126.976  0.00  0.00    +0.000 A 
ATOM     18  C   UNL     1      -6.461  -2.362 125.617  0.00  0.00    +0.000 A 
ATOM     19  F   UNL     1      -5.493  -2.111 124.726  0.00  0.00    +0.000 F 
ENDBRANCH  11  12
ENDBRANCH   3  11
TORSDOF 3
ENDMDL
MODEL 6
REMARK VINA RESULT:      -6.2     10.058     11.566
REMARK  Name = Rufinamide
REMARK  3 active torsions:
REMARK  status: ('A' for Active; 'I' for Inactive)
REMARK    1  A    between atoms: C_2  and  C_4
REMARK    2  A    between atoms: N_6  and  C_7
REMARK    3  A    between atoms: C_7  and  C_8
REMARK                            x       y       z     vdW  Elec       q    Type
REMARK                         _______ _______ _______ _____ _____    ______ ____
ROOT
ATOM      1  C   UNL     1     -12.250   7.755 129.609  0.00  0.00    +0.000 A 
ATOM      2  C   UNL     1     -10.900   7.508 129.478  0.00  0.00    +0.000 A 
ATOM      3  N   UNL     1     -10.530   6.940 130.667  0.00  0.00    +0.000 N 
ATOM      4  N   UNL     1     -11.606   6.746 131.451  0.00  0.00    +0.000 NA
ATOM      5  N   UNL     1     -12.660   7.264 130.826  0.00  0.00    +0.000 NA
ENDROOT
BRANCH   1   7
ATOM      6  N   UNL     1     -13.093   9.848 128.776  0.00  0.00    +0.000 N 
ATOM      7  C   UNL     1     -13.103   8.479 128.681  0.00  0.00    +0.000 C 
ATOM      8  O   UNL     1     -13.827   7.935 127.848  0.00  0.00    +0.000 OA
ATOM      9  H   UNL     1     -13.641  10.352 128.092  0.00  0.00    +0.000 HD
ATOM     10  H   UNL     1     -12.432  10.361 129.341  0.00  0.00    +0.000 HD
ENDBRANCH   1   7
BRANCH   3  11
ATOM     11  C   UNL     1      -9.196   6.592 131.158  0.00  0.00    +0.000 C 
BRANCH  11  12
ATOM     12  C   UNL     1      -9.161   5.247 131.830  0.00  0.00    +0.000 A 
ATOM     13  C   UNL     1      -9.400   4.083 131.092  0.00  0.00    +0.000 A 
ATOM     14  F   UNL     1      -9.612   4.171 129.771  0.00  0.00    +0.000 F 
ATOM     15  C   UNL     1      -9.534   2.842 131.704  0.00  0.00    +0.000 A 
ATOM     16  C   UNL     1      -9.370   2.736 133.082  0.00  0.00    +0.000 A 
ATOM     17  C   UNL     1      -9.086   3.877 133.834  0.00  0.00    +0.000 A 
ATOM     18  C   UNL     1      -8.985   5.118 133.206  0.00  0.00    +0.000 A 
ATOM     19  F   UNL     1      -8.738   6.202 133.954  0.00  0.00    +0.000 F 
ENDBRANCH  11  12
ENDBRANCH   3  11
TORSDOF 3
ENDMDL
MODEL 7
REMARK VINA RESULT:      -6.2      8.763      9.880
REMARK  Name = Rufinamide
REMARK  3 active torsions:
REMARK  status: ('A' for Active; 'I' for Inactive)
REMARK    1  A    between atoms: C_2  and  C_4
REMARK    2  A    between atoms: N_6  and  C_7
REMARK    3  A    between atoms: C_7  and  C_8
REMARK                            x       y       z     vdW  Elec       q    Type
REMARK                         _______ _______ _______ _____ _____    ______ ____
ROOT
ATOM      1  C   UNL     1      -9.583   4.165 131.974  0.00  0.00    +0.000 A 
ATOM      2  C   UNL     1      -9.458   5.528 131.815  0.00  0.00    +0.000 A 
ATOM      3  N   UNL     1      -9.777   5.761 130.505  0.00  0.00    +0.000 N 
ATOM      4  N   UNL     1     -10.182   4.624 129.910  0.00  0.00    +0.000 NA
ATOM      5  N   UNL     1     -10.042   3.636 130.791  0.00  0.00    +0.000 NA
ENDROOT
BRANCH   1   7
ATOM      6  N   UNL     1      -9.218   4.038 134.347  0.00  0.00    +0.000 N 
ATOM      7  C   UNL     1      -9.221   3.381 133.143  0.00  0.00    +0.000 C 
ATOM      8  O   UNL     1      -8.912   2.190 133.101  0.00  0.00    +0.000 OA
ATOM      9  H   UNL     1      -9.024   3.477 135.166  0.00  0.00    +0.000 HD
ATOM     10  H   UNL     1      -9.585   4.970 134.473  0.00  0.00    +0.000 HD
ENDBRANCH   1   7
BRANCH   3  11
ATOM     11  C   UNL     1      -9.690   6.999 129.730  0.00  0.00    +0.000 C 
BRANCH  11  12
ATOM     12  C   UNL     1     -10.940   7.275 128.939  0.00  0.00    +0.000 A 
ATOM     13  C   UNL     1     -12.129   7.613 129.594  0.00  0.00    +0.000 A 
ATOM     14  F   UNL     1     -12.135   7.739 130.928  0.00  0.00    +0.000 F 
ATOM     15  C   UNL     1     -13.336   7.718 128.912  0.00  0.00    +0.000 A 
ATOM     16  C   UNL     1     -13.361   7.539 127.532  0.00  0.00    +0.000 A 
ATOM     17  C   UNL     1     -12.179   7.245 126.851  0.00  0.00    +0.000 A 
ATOM     18  C   UNL     1     -10.983   7.114 127.556  0.00  0.00    +0.000 A 
ATOM     19  F   UNL     1      -9.867   6.805 126.882  0.00  0.00    +0.000 F 
ENDBRANCH  11  12
ENDBRANCH   3  11
TORSDOF 3
ENDMDL
MODEL 8
REMARK VINA RESULT:      -6.2     10.238     11.773
REMARK  Name = Rufinamide
REMARK  3 active torsions:
REMARK  status: ('A' for Active; 'I' for Inactive)
REMARK    1  A    between atoms: C_2  and  C_4
REMARK    2  A    between atoms: N_6  and  C_7
REMARK    3  A    between atoms: C_7  and  C_8
REMARK                            x       y       z     vdW  Elec       q    Type
REMARK                         _______ _______ _______ _____ _____    ______ ____
ROOT
ATOM      1  C   UNL     1     -12.367   7.907 130.220  0.00  0.00    +0.000 A 
ATOM      2  C   UNL     1     -11.336   7.227 129.608  0.00  0.00    +0.000 A 
ATOM      3  N   UNL     1     -11.138   6.117 130.383  0.00  0.00    +0.000 N 
ATOM      4  N   UNL     1     -12.062   6.054 131.359  0.00  0.00    +0.000 NA
ATOM      5  N   UNL     1     -12.803   7.157 131.286  0.00  0.00    +0.000 NA
ENDROOT
BRANCH   1   7
ATOM      6  N   UNL     1     -12.970   9.520 128.540  0.00  0.00    +0.000 N 
ATOM      7  C   UNL     1     -12.874   9.226 129.877  0.00  0.00    +0.000 C 
ATOM      8  O   UNL     1     -13.197  10.074 130.708  0.00  0.00    +0.000 OA
ATOM      9  H   UNL     1     -13.378  10.414 128.303  0.00  0.00    +0.000 HD
ATOM     10  H   UNL     1     -12.850   8.833 127.809  0.00  0.00    +0.000 HD
ENDBRANCH   1   7
BRANCH   3  11
ATOM     11  C   UNL     1     -10.090   5.100 130.303  0.00  0.00    +0.000 C 
BRANCH  11  12
ATOM     12  C   UNL     1      -9.573   4.696 131.657  0.00  0.00    +0.000 A 
ATOM     13  C   UNL     1      -8.808   5.588 132.415  0.00  0.00    +0.000 A 
ATOM     14  F   UNL     1      -8.581   6.824 131.949  0.00  0.00    +0.000 F 
ATOM     15  C   UNL     1      -8.181   5.198 133.593  0.00  0.00    +0.000 A 
ATOM     16  C   UNL     1      -8.361   3.903 134.068  0.00  0.00    +0.000 A 
ATOM     17  C   UNL     1      -9.157   3.008 133.353  0.00  0.00    +0.000 A 
ATOM     18  C   UNL     1      -9.754   3.408 132.157  0.00  0.00    +0.000 A 
ATOM     19  F   UNL     1     -10.491   2.521 131.475  0.00  0.00    +0.000 F 
ENDBRANCH  11  12
ENDBRANCH   3  11
TORSDOF 3
ENDMDL
MODEL 9
REMARK VINA RESULT:      -6.1      9.614     11.297
REMARK  Name = Rufinamide
REMARK  3 active torsions:
REMARK  status: ('A' for Active; 'I' for Inactive)
REMARK    1  A    between atoms: C_2  and  C_4
REMARK    2  A    between atoms: N_6  and  C_7
REMARK    3  A    between atoms: C_7  and  C_8
REMARK                            x       y       z     vdW  Elec       q    Type
REMARK                         _______ _______ _______ _____ _____    ______ ____
ROOT
ATOM      1  C   UNL     1     -11.451   7.158 129.586  0.00  0.00    +0.000 A 
ATOM      2  C   UNL     1     -10.094   7.023 129.787  0.00  0.00    +0.000 A 
ATOM      3  N   UNL     1      -9.880   5.674 129.852  0.00  0.00    +0.000 N 
ATOM      4  N   UNL     1     -11.020   5.004 129.599  0.00  0.00    +0.000 NA
ATOM      5  N   UNL     1     -11.993   5.901 129.461  0.00  0.00    +0.000 NA
ENDROOT
BRANCH   1   7
ATOM      6  N   UNL     1     -12.161   9.153 128.444  0.00  0.00    +0.000 N 
ATOM      7  C   UNL     1     -12.219   8.392 129.585  0.00  0.00    +0.000 C 
ATOM      8  O   UNL     1     -12.889   8.783 130.541  0.00  0.00    +0.000 OA
ATOM      9  H   UNL     1     -12.743   9.980 128.424  0.00  0.00    +0.000 HD
ATOM     10  H   UNL     1     -11.743   8.832 127.583  0.00  0.00    +0.000 HD
ENDBRANCH   1   7
BRANCH   3  11
ATOM     11  C   UNL     1      -8.660   4.938 130.184  0.00  0.00    +0.000 C 
BRANCH  11  12
ATOM     12  C   UNL     1      -8.502   4.721 131.665  0.00  0.00    +0.000 A 
ATOM     13  C   UNL     1      -9.059   3.594 132.277  0.00  0.00    +0.000 A 
ATOM     14  F   UNL     1      -9.694   2.682 131.527  0.00  0.00    +0.000 F 
ATOM     15  C   UNL     1      -9.072   3.442 133.658  0.00  0.00    +0.000 A 
ATOM     16  C   UNL     1      -8.464   4.404 134.460  0.00  0.00    +0.000 A 
ATOM     17  C   UNL     1      -7.861   5.515 133.869  0.00  0.00    +0.000 A 
ATOM     18  C   UNL     1      -7.885   5.666 132.483  0.00  0.00    +0.000 A 
ATOM     19  F   UNL     1      -7.322   6.755 131.942  0.00  0.00    +0.000 F 
ENDBRANCH  11  12
ENDBRANCH   3  11
TORSDOF 3
ENDMDL
