MODEL 1
REMARK VINA RESULT:     -10.0      0.000      0.000
REMARK  Name = Rupatadine
REMARK  3 active torsions:
REMARK  status: ('A' for Active; 'I' for Inactive)
REMARK    1  A    between atoms: C_1  and  C_2
REMARK    2  A    between atoms: C_4  and  C_5
REMARK    3  A    between atoms: C_5  and  N_6
REMARK                            x       y       z     vdW  Elec       q    Type
REMARK                         _______ _______ _______ _____ _____    ______ ____
ROOT
ATOM      1  N   UNL     1      -9.124   4.737 132.026  0.00  0.00    +0.000 NA
ATOM      2  C   UNL     1      -8.346   3.744 131.371  0.00  0.00    +0.000 C 
ATOM      3  C   UNL     1      -7.545   4.754 130.325  0.00  0.00    +0.000 C 
ATOM      4  C   UNL     1      -6.370   5.297 130.881  0.00  0.00    +0.000 C 
ATOM      5  C   UNL     1      -7.072   6.454 131.676  0.00  0.00    +0.000 C 
ATOM      6  C   UNL     1      -8.077   5.726 132.623  0.00  0.00    +0.000 C 
ATOM      7  C   UNL     1      -4.834   4.621 130.663  0.00  0.00    +0.000 C 
ATOM      8  C   UNL     1      -3.053   4.673 131.023  0.00  0.00    +0.000 A 
ATOM      9  C   UNL     1      -2.769   4.633 132.415  0.00  0.00    +0.000 A 
ATOM     10  C   UNL     1      -2.259   5.794 133.003  0.00  0.00    +0.000 A 
ATOM     11  C   UNL     1      -1.514   6.654 132.218  0.00  0.00    +0.000 A 
ATOM     12 CL   UNL     1      -0.700   7.955 132.981  0.00  0.00    +0.000 Cl
ATOM     13  C   UNL     1      -1.409   6.467 130.833  0.00  0.00    +0.000 A 
ATOM     14  C   UNL     1      -2.250   5.563 130.171  0.00  0.00    +0.000 A 
ATOM     15  C   UNL     1      -2.576   6.012 128.706  0.00  0.00    +0.000 C 
ATOM     16  C   UNL     1      -3.902   5.545 128.242  0.00  0.00    +0.000 C 
ATOM     17  C   UNL     1      -4.721   5.580 129.529  0.00  0.00    +0.000 A 
ATOM     18  C   UNL     1      -5.174   3.925 129.732  0.00  0.00    +0.000 A 
ATOM     19  N   UNL     1      -5.652   3.007 130.951  0.00  0.00    +0.000 NA
ATOM     20  C   UNL     1      -5.608   3.804 132.417  0.00  0.00    +0.000 A 
ATOM     21  C   UNL     1      -5.048   5.502 132.588  0.00  0.00    +0.000 A 
ATOM     22  C   UNL     1      -4.579   6.537 131.112  0.00  0.00    +0.000 A 
ENDROOT
BRANCH   1  23
ATOM     23  C   UNL     1      -9.993   4.856 130.661  0.00  0.00    +0.000 C 
BRANCH  23  27
ATOM     24  C   UNL     1     -13.886   7.540 127.718  0.00  0.00    +0.000 C 
ATOM     25  C   UNL     1     -12.581   7.593 128.583  0.00  0.00    +0.000 A 
ATOM     26  C   UNL     1     -12.139   6.912 129.778  0.00  0.00    +0.000 A 
ATOM     27  C   UNL     1     -10.672   6.487 130.074  0.00  0.00    +0.000 A 
ATOM     28  C   UNL     1      -9.835   7.405 129.538  0.00  0.00    +0.000 A 
ATOM     29  N   UNL     1     -10.259   8.343 128.607  0.00  0.00    +0.000 NA
ATOM     30  C   UNL     1     -11.550   8.330 128.094  0.00  0.00    +0.000 A 
ENDBRANCH  23  27
ENDBRANCH   1  23
TORSDOF 2
ENDMDL
MODEL 2
REMARK VINA RESULT:      -9.9      4.535      6.198
REMARK  Name = Rupatadine
REMARK  3 active torsions:
REMARK  status: ('A' for Active; 'I' for Inactive)
REMARK    1  A    between atoms: C_1  and  C_2
REMARK    2  A    between atoms: C_4  and  C_5
REMARK    3  A    between atoms: C_5  and  N_6
REMARK                            x       y       z     vdW  Elec       q    Type
REMARK                         _______ _______ _______ _____ _____    ______ ____
ROOT
ATOM      1  N   UNL     1      -5.352   3.042 125.634  0.00  0.00    +0.000 NA
ATOM      2  C   UNL     1      -4.073   3.639 125.801  0.00  0.00    +0.000 C 
ATOM      3  C   UNL     1      -4.584   5.040 126.531  0.00  0.00    +0.000 C 
ATOM      4  C   UNL     1      -4.700   4.917 127.930  0.00  0.00    +0.000 C 
ATOM      5  C   UNL     1      -6.116   4.240 127.928  0.00  0.00    +0.000 C 
ATOM      6  C   UNL     1      -5.931   2.944 127.079  0.00  0.00    +0.000 C 
ATOM      7  C   UNL     1      -3.474   5.354 129.011  0.00  0.00    +0.000 C 
ATOM      8  C   UNL     1      -2.888   5.460 130.728  0.00  0.00    +0.000 A 
ATOM      9  C   UNL     1      -2.898   4.203 131.394  0.00  0.00    +0.000 A 
ATOM     10  C   UNL     1      -3.836   4.019 132.412  0.00  0.00    +0.000 A 
ATOM     11  C   UNL     1      -4.259   5.127 133.123  0.00  0.00    +0.000 A 
ATOM     12 CL   UNL     1      -5.231   4.882 134.513  0.00  0.00    +0.000 Cl
ATOM     13  C   UNL     1      -3.895   6.423 132.732  0.00  0.00    +0.000 A 
ATOM     14  C   UNL     1      -3.309   6.651 131.480  0.00  0.00    +0.000 A 
ATOM     15  C   UNL     1      -3.684   8.053 130.890  0.00  0.00    +0.000 C 
ATOM     16  C   UNL     1      -3.705   8.069 129.410  0.00  0.00    +0.000 C 
ATOM     17  C   UNL     1      -4.189   6.659 129.083  0.00  0.00    +0.000 A 
ATOM     18  C   UNL     1      -2.861   6.003 128.193  0.00  0.00    +0.000 A 
ATOM     19  N   UNL     1      -2.331   4.537 127.835  0.00  0.00    +0.000 NA
ATOM     20  C   UNL     1      -3.208   3.332 128.584  0.00  0.00    +0.000 A 
ATOM     21  C   UNL     1      -4.576   3.668 129.699  0.00  0.00    +0.000 A 
ATOM     22  C   UNL     1      -5.189   5.401 130.009  0.00  0.00    +0.000 A 
ENDROOT
BRANCH   1  23
ATOM     23  C   UNL     1      -5.639   4.146 124.481  0.00  0.00    +0.000 C 
BRANCH  23  27
ATOM     24  C   UNL     1      -5.653   5.407 119.056  0.00  0.00    +0.000 C 
ATOM     25  C   UNL     1      -6.084   4.442 120.213  0.00  0.00    +0.000 A 
ATOM     26  C   UNL     1      -5.427   3.935 121.395  0.00  0.00    +0.000 A 
ATOM     27  C   UNL     1      -6.129   3.651 122.754  0.00  0.00    +0.000 A 
ATOM     28  C   UNL     1      -7.390   3.224 122.513  0.00  0.00    +0.000 A 
ATOM     29  N   UNL     1      -8.000   3.371 121.275  0.00  0.00    +0.000 NA
ATOM     30  C   UNL     1      -7.386   4.055 120.235  0.00  0.00    +0.000 A 
ENDBRANCH  23  27
ENDBRANCH   1  23
TORSDOF 2
ENDMDL
MODEL 3
REMARK VINA RESULT:      -9.7      2.572      3.685
REMARK  Name = Rupatadine
REMARK  3 active torsions:
REMARK  status: ('A' for Active; 'I' for Inactive)
REMARK    1  A    between atoms: C_1  and  C_2
REMARK    2  A    between atoms: C_4  and  C_5
REMARK    3  A    between atoms: C_5  and  N_6
REMARK                            x       y       z     vdW  Elec       q    Type
REMARK                         _______ _______ _______ _____ _____    ______ ____
ROOT
ATOM      1  N   UNL     1      -9.826   6.494 132.193  0.00  0.00    +0.000 NA
ATOM      2  C   UNL     1      -9.643   5.185 132.716  0.00  0.00    +0.000 C 
ATOM      3  C   UNL     1      -9.660   4.370 131.270  0.00  0.00    +0.000 C 
ATOM      4  C   UNL     1      -8.388   4.299 130.667  0.00  0.00    +0.000 C 
ATOM      5  C   UNL     1      -8.422   5.728 130.019  0.00  0.00    +0.000 C 
ATOM      6  C   UNL     1      -8.622   6.701 131.223  0.00  0.00    +0.000 C 
ATOM      7  C   UNL     1      -7.336   2.986 130.858  0.00  0.00    +0.000 C 
ATOM      8  C   UNL     1      -5.722   2.231 130.503  0.00  0.00    +0.000 A 
ATOM      9  C   UNL     1      -4.630   3.045 130.910  0.00  0.00    +0.000 A 
ATOM     10  C   UNL     1      -3.848   3.624 129.907  0.00  0.00    +0.000 A 
ATOM     11  C   UNL     1      -3.746   2.969 128.694  0.00  0.00    +0.000 A 
ATOM     12 CL   UNL     1      -2.616   3.553 127.545  0.00  0.00    +0.000 Cl
ATOM     13  C   UNL     1      -4.534   1.846 128.406  0.00  0.00    +0.000 A 
ATOM     14  C   UNL     1      -5.617   1.507 129.227  0.00  0.00    +0.000 A 
ATOM     15  C   UNL     1      -6.782   0.827 128.431  0.00  0.00    +0.000 C 
ATOM     16  C   UNL     1      -8.113   1.082 129.028  0.00  0.00    +0.000 C 
ATOM     17  C   UNL     1      -7.945   2.489 129.593  0.00  0.00    +0.000 A 
ATOM     18  C   UNL     1      -8.194   2.247 131.286  0.00  0.00    +0.000 A 
ATOM     19  N   UNL     1      -7.816   3.033 132.626  0.00  0.00    +0.000 NA
ATOM     20  C   UNL     1      -6.853   4.367 132.343  0.00  0.00    +0.000 A 
ATOM     21  C   UNL     1      -6.286   4.831 130.704  0.00  0.00    +0.000 A 
ATOM     22  C   UNL     1      -6.830   3.912 129.177  0.00  0.00    +0.000 A 
ENDROOT
BRANCH   1  23
ATOM     23  C   UNL     1     -11.356   6.070 131.860  0.00  0.00    +0.000 C 
BRANCH  23  27
ATOM     24  C   UNL     1     -11.967   7.175 126.434  0.00  0.00    +0.000 C 
ATOM     25  C   UNL     1     -12.444   7.387 127.912  0.00  0.00    +0.000 A 
ATOM     26  C   UNL     1     -12.597   6.516 129.053  0.00  0.00    +0.000 A 
ATOM     27  C   UNL     1     -12.340   6.927 130.532  0.00  0.00    +0.000 A 
ATOM     28  C   UNL     1     -12.688   8.225 130.691  0.00  0.00    +0.000 A 
ATOM     29  N   UNL     1     -12.897   9.076 129.614  0.00  0.00    +0.000 NA
ATOM     30  C   UNL     1     -12.664   8.669 128.307  0.00  0.00    +0.000 A 
ENDBRANCH  23  27
ENDBRANCH   1  23
TORSDOF 2
ENDMDL
MODEL 4
REMARK VINA RESULT:      -9.6      5.988      7.911
REMARK  Name = Rupatadine
REMARK  3 active torsions:
REMARK  status: ('A' for Active; 'I' for Inactive)
REMARK    1  A    between atoms: C_1  and  C_2
REMARK    2  A    between atoms: C_4  and  C_5
REMARK    3  A    between atoms: C_5  and  N_6
REMARK                            x       y       z     vdW  Elec       q    Type
REMARK                         _______ _______ _______ _____ _____    ______ ____
ROOT
ATOM      1  N   UNL     1      -7.312   3.166 129.534  0.00  0.00    +0.000 NA
ATOM      2  C   UNL     1      -6.510   2.042 129.871  0.00  0.00    +0.000 C 
ATOM      3  C   UNL     1      -7.664   0.874 129.629  0.00  0.00    +0.000 C 
ATOM      4  C   UNL     1      -7.718   0.426 128.294  0.00  0.00    +0.000 C 
ATOM      5  C   UNL     1      -8.601   1.605 127.751  0.00  0.00    +0.000 C 
ATOM      6  C   UNL     1      -7.779   2.891 128.072  0.00  0.00    +0.000 C 
ATOM      7  C   UNL     1      -6.891  -0.940 127.733  0.00  0.00    +0.000 C 
ATOM      8  C   UNL     1      -6.458  -2.025 126.341  0.00  0.00    +0.000 A 
ATOM      9  C   UNL     1      -5.841  -1.326 125.268  0.00  0.00    +0.000 A 
ATOM     10  C   UNL     1      -6.570  -1.186 124.084  0.00  0.00    +0.000 A 
ATOM     11  C   UNL     1      -7.501  -2.159 123.769  0.00  0.00    +0.000 A 
ATOM     12 CL   UNL     1      -8.233  -2.115 122.220  0.00  0.00    +0.000 Cl
ATOM     13  C   UNL     1      -7.835  -3.168 124.682  0.00  0.00    +0.000 A 
ATOM     14  C   UNL     1      -7.430  -3.080 126.020  0.00  0.00    +0.000 A 
ATOM     15  C   UNL     1      -8.453  -3.748 127.001  0.00  0.00    +0.000 C 
ATOM     16  C   UNL     1      -8.463  -3.118 128.341  0.00  0.00    +0.000 C 
ATOM     17  C   UNL     1      -8.167  -1.658 128.009  0.00  0.00    +0.000 A 
ATOM     18  C   UNL     1      -6.679  -1.378 128.842  0.00  0.00    +0.000 A 
ATOM     19  N   UNL     1      -5.480  -0.326 128.727  0.00  0.00    +0.000 NA
ATOM     20  C   UNL     1      -5.638   0.695 127.418  0.00  0.00    +0.000 A 
ATOM     21  C   UNL     1      -7.002   0.586 126.254  0.00  0.00    +0.000 A 
ATOM     22  C   UNL     1      -8.407  -0.615 126.495  0.00  0.00    +0.000 A 
ENDROOT
BRANCH   1  23
ATOM     23  C   UNL     1      -8.103   2.931 130.930  0.00  0.00    +0.000 C 
BRANCH  23  27
ATOM     24  C   UNL     1     -12.247   6.282 129.310  0.00  0.00    +0.000 C 
ATOM     25  C   UNL     1     -11.439   5.608 130.472  0.00  0.00    +0.000 A 
ATOM     26  C   UNL     1     -10.877   4.293 130.673  0.00  0.00    +0.000 A 
ATOM     27  C   UNL     1      -9.548   3.995 131.426  0.00  0.00    +0.000 A 
ATOM     28  C   UNL     1      -9.404   4.892 132.429  0.00  0.00    +0.000 A 
ATOM     29  N   UNL     1     -10.160   6.054 132.501  0.00  0.00    +0.000 NA
ATOM     30  C   UNL     1     -11.042   6.414 131.490  0.00  0.00    +0.000 A 
ENDBRANCH  23  27
ENDBRANCH   1  23
TORSDOF 2
ENDMDL
MODEL 5
REMARK VINA RESULT:      -9.4      6.919      9.916
REMARK  Name = Rupatadine
REMARK  3 active torsions:
REMARK  status: ('A' for Active; 'I' for Inactive)
REMARK    1  A    between atoms: C_1  and  C_2
REMARK    2  A    between atoms: C_4  and  C_5
REMARK    3  A    between atoms: C_5  and  N_6
REMARK                            x       y       z     vdW  Elec       q    Type
REMARK                         _______ _______ _______ _____ _____    ______ ____
ROOT
ATOM      1  N   UNL     1      -7.975  -3.064 125.982  0.00  0.00    +0.000 NA
ATOM      2  C   UNL     1      -9.075  -2.165 125.987  0.00  0.00    +0.000 C 
ATOM      3  C   UNL     1      -8.330  -0.917 126.789  0.00  0.00    +0.000 C 
ATOM      4  C   UNL     1      -7.635  -0.049 125.924  0.00  0.00    +0.000 C 
ATOM      5  C   UNL     1      -6.339  -0.925 125.803  0.00  0.00    +0.000 C 
ATOM      6  C   UNL     1      -6.841  -2.292 125.241  0.00  0.00    +0.000 C 
ATOM      7  C   UNL     1      -8.301   1.375 125.296  0.00  0.00    +0.000 C 
ATOM      8  C   UNL     1      -8.113   2.833 124.228  0.00  0.00    +0.000 A 
ATOM      9  C   UNL     1      -7.803   2.495 122.882  0.00  0.00    +0.000 A 
ATOM     10  C   UNL     1      -6.521   2.800 122.419  0.00  0.00    +0.000 A 
ATOM     11  C   UNL     1      -5.858   3.876 122.983  0.00  0.00    +0.000 A 
ATOM     12 CL   UNL     1      -4.388   4.392 122.269  0.00  0.00    +0.000 Cl
ATOM     13  C   UNL     1      -6.375   4.542 124.102  0.00  0.00    +0.000 A 
ATOM     14  C   UNL     1      -7.437   3.990 124.831  0.00  0.00    +0.000 A 
ATOM     15  C   UNL     1      -7.369   4.354 126.354  0.00  0.00    +0.000 C 
ATOM     16  C   UNL     1      -7.972   3.316 127.221  0.00  0.00    +0.000 C 
ATOM     17  C   UNL     1      -7.646   2.034 126.460  0.00  0.00    +0.000 A 
ATOM     18  C   UNL     1      -9.213   1.406 126.093  0.00  0.00    +0.000 A 
ATOM     19  N   UNL     1      -9.817   0.384 125.022  0.00  0.00    +0.000 NA
ATOM     20  C   UNL     1      -8.686  -0.134 123.911  0.00  0.00    +0.000 A 
ATOM     21  C   UNL     1      -6.983   0.437 123.914  0.00  0.00    +0.000 A 
ATOM     22  C   UNL     1      -6.327   1.570 125.241  0.00  0.00    +0.000 A 
ENDROOT
BRANCH   1  23
ATOM     23  C   UNL     1      -8.218  -3.259 127.574  0.00  0.00    +0.000 C 
BRANCH  23  27
ATOM     24  C   UNL     1      -2.836  -3.912 128.854  0.00  0.00    +0.000 C 
ATOM     25  C   UNL     1      -4.268  -3.433 129.271  0.00  0.00    +0.000 A 
ATOM     26  C   UNL     1      -5.333  -2.738 128.587  0.00  0.00    +0.000 A 
ATOM     27  C   UNL     1      -6.853  -2.989 128.811  0.00  0.00    +0.000 A 
ATOM     28  C   UNL     1      -7.055  -3.310 130.110  0.00  0.00    +0.000 A 
ATOM     29  N   UNL     1      -6.016  -3.675 130.955  0.00  0.00    +0.000 NA
ATOM     30  C   UNL     1      -4.717  -3.829 130.491  0.00  0.00    +0.000 A 
ENDBRANCH  23  27
ENDBRANCH   1  23
TORSDOF 2
ENDMDL
MODEL 6
REMARK VINA RESULT:      -9.2      7.789      9.490
REMARK  Name = Rupatadine
REMARK  3 active torsions:
REMARK  status: ('A' for Active; 'I' for Inactive)
REMARK    1  A    between atoms: C_1  and  C_2
REMARK    2  A    between atoms: C_4  and  C_5
REMARK    3  A    between atoms: C_5  and  N_6
REMARK                            x       y       z     vdW  Elec       q    Type
REMARK                         _______ _______ _______ _____ _____    ______ ____
ROOT
ATOM      1  N   UNL     1      -7.277  -1.678 128.343  0.00  0.00    +0.000 NA
ATOM      2  C   UNL     1      -7.871  -2.050 129.580  0.00  0.00    +0.000 C 
ATOM      3  C   UNL     1      -6.835  -3.293 129.951  0.00  0.00    +0.000 C 
ATOM      4  C   UNL     1      -5.686  -2.859 130.642  0.00  0.00    +0.000 C 
ATOM      5  C   UNL     1      -4.888  -2.390 129.375  0.00  0.00    +0.000 C 
ATOM      6  C   UNL     1      -5.804  -1.318 128.708  0.00  0.00    +0.000 C 
ATOM      7  C   UNL     1      -5.552  -2.868 132.330  0.00  0.00    +0.000 C 
ATOM      8  C   UNL     1      -4.563  -2.490 133.806  0.00  0.00    +0.000 A 
ATOM      9  C   UNL     1      -4.175  -1.124 133.876  0.00  0.00    +0.000 A 
ATOM     10  C   UNL     1      -2.822  -0.828 133.694  0.00  0.00    +0.000 A 
ATOM     11  C   UNL     1      -1.887  -1.782 134.050  0.00  0.00    +0.000 A 
ATOM     12 CL   UNL     1      -0.230  -1.343 134.041  0.00  0.00    +0.000 Cl
ATOM     13  C   UNL     1      -2.276  -3.076 134.424  0.00  0.00    +0.000 A 
ATOM     14  C   UNL     1      -3.588  -3.514 134.208  0.00  0.00    +0.000 A 
ATOM     15  C   UNL     1      -3.665  -5.052 133.919  0.00  0.00    +0.000 C 
ATOM     16  C   UNL     1      -4.804  -5.419 133.048  0.00  0.00    +0.000 C 
ATOM     17  C   UNL     1      -4.914  -4.200 132.136  0.00  0.00    +0.000 A 
ATOM     18  C   UNL     1      -6.498  -3.607 132.490  0.00  0.00    +0.000 A 
ATOM     19  N   UNL     1      -7.262  -2.211 132.333  0.00  0.00    +0.000 NA
ATOM     20  C   UNL     1      -6.268  -0.986 131.791  0.00  0.00    +0.000 A 
ATOM     21  C   UNL     1      -4.519  -1.224 131.458  0.00  0.00    +0.000 A 
ATOM     22  C   UNL     1      -3.711  -2.898 131.588  0.00  0.00    +0.000 A 
ENDROOT
BRANCH   1  23
ATOM     23  C   UNL     1      -7.879  -3.050 127.723  0.00  0.00    +0.000 C 
BRANCH  23  27
ATOM     24  C   UNL     1      -6.249  -1.923 122.517  0.00  0.00    +0.000 C 
ATOM     25  C   UNL     1      -7.301  -2.560 123.488  0.00  0.00    +0.000 A 
ATOM     26  C   UNL     1      -7.207  -3.327 124.708  0.00  0.00    +0.000 A 
ATOM     27  C   UNL     1      -8.205  -3.237 125.899  0.00  0.00    +0.000 A 
ATOM     28  C   UNL     1      -9.443  -2.994 125.413  0.00  0.00    +0.000 A 
ATOM     29  N   UNL     1      -9.660  -2.564 124.110  0.00  0.00    +0.000 NA
ATOM     30  C   UNL     1      -8.607  -2.263 123.257  0.00  0.00    +0.000 A 
ENDBRANCH  23  27
ENDBRANCH   1  23
TORSDOF 2
ENDMDL
MODEL 7
REMARK VINA RESULT:      -9.0      4.686      7.258
REMARK  Name = Rupatadine
REMARK  3 active torsions:
REMARK  status: ('A' for Active; 'I' for Inactive)
REMARK    1  A    between atoms: C_1  and  C_2
REMARK    2  A    between atoms: C_4  and  C_5
REMARK    3  A    between atoms: C_5  and  N_6
REMARK                            x       y       z     vdW  Elec       q    Type
REMARK                         _______ _______ _______ _____ _____    ______ ____
ROOT
ATOM      1  N   UNL     1      -7.067   0.965 127.464  0.00  0.00    +0.000 NA
ATOM      2  C   UNL     1      -8.236   1.724 127.741  0.00  0.00    +0.000 C 
ATOM      3  C   UNL     1      -8.318   1.405 129.369  0.00  0.00    +0.000 C 
ATOM      4  C   UNL     1      -7.559   2.306 130.141  0.00  0.00    +0.000 C 
ATOM      5  C   UNL     1      -6.177   1.593 129.933  0.00  0.00    +0.000 C 
ATOM      6  C   UNL     1      -5.971   1.581 128.386  0.00  0.00    +0.000 C 
ATOM      7  C   UNL     1      -8.206   3.697 130.858  0.00  0.00    +0.000 C 
ATOM      8  C   UNL     1      -7.936   5.200 131.843  0.00  0.00    +0.000 A 
ATOM      9  C   UNL     1      -6.953   6.060 131.281  0.00  0.00    +0.000 A 
ATOM     10  C   UNL     1      -5.738   6.182 131.960  0.00  0.00    +0.000 A 
ATOM     11  C   UNL     1      -5.731   6.007 133.331  0.00  0.00    +0.000 A 
ATOM     12 CL   UNL     1      -4.297   6.376 134.194  0.00  0.00    +0.000 Cl
ATOM     13  C   UNL     1      -6.870   5.552 134.011  0.00  0.00    +0.000 A 
ATOM     14  C   UNL     1      -7.958   5.025 133.303  0.00  0.00    +0.000 A 
ATOM     15  C   UNL     1      -8.713   3.912 134.107  0.00  0.00    +0.000 C 
ATOM     16  C   UNL     1      -9.350   2.901 133.233  0.00  0.00    +0.000 C 
ATOM     17  C   UNL     1      -8.376   2.834 132.060  0.00  0.00    +0.000 A 
ATOM     18  C   UNL     1      -9.355   3.338 130.728  0.00  0.00    +0.000 A 
ATOM     19  N   UNL     1      -9.088   3.940 129.271  0.00  0.00    +0.000 NA
ATOM     20  C   UNL     1      -7.476   4.265 128.990  0.00  0.00    +0.000 A 
ATOM     21  C   UNL     1      -6.196   3.991 130.220  0.00  0.00    +0.000 A 
ATOM     22  C   UNL     1      -6.570   3.213 131.872  0.00  0.00    +0.000 A 
ENDROOT
BRANCH   1  23
ATOM     23  C   UNL     1      -7.966  -0.368 127.681  0.00  0.00    +0.000 C 
BRANCH  23  27
ATOM     24  C   UNL     1      -5.597  -2.736 123.230  0.00  0.00    +0.000 C 
ATOM     25  C   UNL     1      -6.774  -2.694 124.264  0.00  0.00    +0.000 A 
ATOM     26  C   UNL     1      -6.852  -2.467 125.688  0.00  0.00    +0.000 A 
ATOM     27  C   UNL     1      -8.016  -1.730 126.413  0.00  0.00    +0.000 A 
ATOM     28  C   UNL     1      -9.172  -1.995 125.762  0.00  0.00    +0.000 A 
ATOM     29  N   UNL     1      -9.199  -2.543 124.487  0.00  0.00    +0.000 NA
ATOM     30  C   UNL     1      -8.034  -2.760 123.762  0.00  0.00    +0.000 A 
ENDBRANCH  23  27
ENDBRANCH   1  23
TORSDOF 2
ENDMDL
MODEL 8
REMARK VINA RESULT:      -9.0      4.306      6.114
REMARK  Name = Rupatadine
REMARK  3 active torsions:
REMARK  status: ('A' for Active; 'I' for Inactive)
REMARK    1  A    between atoms: C_1  and  C_2
REMARK    2  A    between atoms: C_4  and  C_5
REMARK    3  A    between atoms: C_5  and  N_6
REMARK                            x       y       z     vdW  Elec       q    Type
REMARK                         _______ _______ _______ _____ _____    ______ ____
ROOT
ATOM      1  N   UNL     1      -7.940   5.378 129.904  0.00  0.00    +0.000 NA
ATOM      2  C   UNL     1      -7.063   4.681 130.779  0.00  0.00    +0.000 C 
ATOM      3  C   UNL     1      -7.998   3.326 130.988  0.00  0.00    +0.000 C 
ATOM      4  C   UNL     1      -7.774   2.349 129.998  0.00  0.00    +0.000 C 
ATOM      5  C   UNL     1      -8.703   2.989 128.907  0.00  0.00    +0.000 C 
ATOM      6  C   UNL     1      -8.122   4.420 128.687  0.00  0.00    +0.000 C 
ATOM      7  C   UNL     1      -6.693   1.060 130.186  0.00  0.00    +0.000 C 
ATOM      8  C   UNL     1      -5.898  -0.411 129.474  0.00  0.00    +0.000 A 
ATOM      9  C   UNL     1      -5.211  -0.135 128.260  0.00  0.00    +0.000 A 
ATOM     10  C   UNL     1      -5.749  -0.658 127.081  0.00  0.00    +0.000 A 
ATOM     11  C   UNL     1      -6.479  -1.829 127.156  0.00  0.00    +0.000 A 
ATOM     12 CL   UNL     1      -6.947  -2.593 125.694  0.00  0.00    +0.000 Cl
ATOM     13  C   UNL     1      -6.822  -2.394 128.392  0.00  0.00    +0.000 A 
ATOM     14  C   UNL     1      -6.657  -1.667 129.577  0.00  0.00    +0.000 A 
ATOM     15  C   UNL     1      -7.730  -2.033 130.659  0.00  0.00    +0.000 C 
ATOM     16  C   UNL     1      -8.042  -0.905 131.566  0.00  0.00    +0.000 C 
ATOM     17  C   UNL     1      -7.890   0.300 130.641  0.00  0.00    +0.000 A 
ATOM     18  C   UNL     1      -6.610   1.188 131.387  0.00  0.00    +0.000 A 
ATOM     19  N   UNL     1      -5.557   2.296 130.918  0.00  0.00    +0.000 NA
ATOM     20  C   UNL     1      -5.632   2.609 129.281  0.00  0.00    +0.000 A 
ATOM     21  C   UNL     1      -6.760   1.754 128.175  0.00  0.00    +0.000 A 
ATOM     22  C   UNL     1      -8.015   0.528 128.805  0.00  0.00    +0.000 A 
ENDROOT
BRANCH   1  23
ATOM     23  C   UNL     1      -8.912   5.616 131.181  0.00  0.00    +0.000 C 
BRANCH  23  27
ATOM     24  C   UNL     1     -13.163   7.015 127.865  0.00  0.00    +0.000 C 
ATOM     25  C   UNL     1     -12.650   6.565 129.276  0.00  0.00    +0.000 A 
ATOM     26  C   UNL     1     -11.652   5.626 129.729  0.00  0.00    +0.000 A 
ATOM     27  C   UNL     1     -10.753   5.813 130.985  0.00  0.00    +0.000 A 
ATOM     28  C   UNL     1     -11.459   6.473 131.932  0.00  0.00    +0.000 A 
ATOM     29  N   UNL     1     -12.641   7.142 131.646  0.00  0.00    +0.000 NA
ATOM     30  C   UNL     1     -13.119   7.256 130.347  0.00  0.00    +0.000 A 
ENDBRANCH  23  27
ENDBRANCH   1  23
TORSDOF 2
ENDMDL
MODEL 9
REMARK VINA RESULT:      -8.9      4.800      7.518
REMARK  Name = Rupatadine
REMARK  3 active torsions:
REMARK  status: ('A' for Active; 'I' for Inactive)
REMARK    1  A    between atoms: C_1  and  C_2
REMARK    2  A    between atoms: C_4  and  C_5
REMARK    3  A    between atoms: C_5  and  N_6
REMARK                            x       y       z     vdW  Elec       q    Type
REMARK                         _______ _______ _______ _____ _____    ______ ____
ROOT
ATOM      1  N   UNL     1      -6.599   0.814 127.896  0.00  0.00    +0.000 NA
ATOM      2  C   UNL     1      -6.889   2.130 127.444  0.00  0.00    +0.000 C 
ATOM      3  C   UNL     1      -8.296   2.346 128.298  0.00  0.00    +0.000 C 
ATOM      4  C   UNL     1      -8.077   2.849 129.596  0.00  0.00    +0.000 C 
ATOM      5  C   UNL     1      -7.724   1.471 130.259  0.00  0.00    +0.000 C 
ATOM      6  C   UNL     1      -6.500   0.946 129.447  0.00  0.00    +0.000 C 
ATOM      7  C   UNL     1      -8.141   4.496 129.982  0.00  0.00    +0.000 C 
ATOM      8  C   UNL     1      -7.965   5.800 131.234  0.00  0.00    +0.000 A 
ATOM      9  C   UNL     1      -6.686   5.801 131.855  0.00  0.00    +0.000 A 
ATOM     10  C   UNL     1      -6.619   5.410 133.195  0.00  0.00    +0.000 A 
ATOM     11  C   UNL     1      -7.724   5.625 133.997  0.00  0.00    +0.000 A 
ATOM     12 CL   UNL     1      -7.571   5.359 135.683  0.00  0.00    +0.000 Cl
ATOM     13  C   UNL     1      -8.941   6.063 133.456  0.00  0.00    +0.000 A 
ATOM     14  C   UNL     1      -9.147   6.055 132.070  0.00  0.00    +0.000 A 
ATOM     15  C   UNL     1     -10.644   5.791 131.690  0.00  0.00    +0.000 C 
ATOM     16  C   UNL     1     -10.796   5.107 130.386  0.00  0.00    +0.000 C 
ATOM     17  C   UNL     1      -9.557   4.215 130.347  0.00  0.00    +0.000 A 
ATOM     18  C   UNL     1      -8.713   4.804 128.960  0.00  0.00    +0.000 A 
ATOM     19  N   UNL     1      -7.205   4.758 128.429  0.00  0.00    +0.000 NA
ATOM     20  C   UNL     1      -6.155   4.061 129.523  0.00  0.00    +0.000 A 
ATOM     21  C   UNL     1      -6.678   3.465 131.134  0.00  0.00    +0.000 A 
ATOM     22  C   UNL     1      -8.468   3.481 131.656  0.00  0.00    +0.000 A 
ENDROOT
BRANCH   1  23
ATOM     23  C   UNL     1      -7.837   0.302 126.983  0.00  0.00    +0.000 C 
BRANCH  23  27
ATOM     24  C   UNL     1      -5.268  -3.486 123.809  0.00  0.00    +0.000 C 
ATOM     25  C   UNL     1      -6.516  -3.069 124.659  0.00  0.00    +0.000 A 
ATOM     26  C   UNL     1      -6.691  -2.373 125.912  0.00  0.00    +0.000 A 
ATOM     27  C   UNL     1      -7.864  -1.406 126.242  0.00  0.00    +0.000 A 
ATOM     28  C   UNL     1      -8.980  -1.845 125.615  0.00  0.00    +0.000 A 
ATOM     29  N   UNL     1      -8.939  -2.789 124.598  0.00  0.00    +0.000 NA
ATOM     30  C   UNL     1      -7.736  -3.267 124.095  0.00  0.00    +0.000 A 
ENDBRANCH  23  27
ENDBRANCH   1  23
TORSDOF 2
ENDMDL
