MODEL 1
REMARK VINA RESULT:      -9.3      0.000      0.000
REMARK  Name = Rutin
REMARK  17 active torsions:
REMARK  status: ('A' for Active; 'I' for Inactive)
REMARK    1  A    between atoms: C_1  and  C_2
REMARK    2  A    between atoms: C_4  and  O_5
REMARK    3  A    between atoms: O_5  and  C_6
REMARK    4  A    between atoms: C_6  and  C_7
REMARK    5  A    between atoms: C_9  and  O_10
REMARK    6  A    between atoms: O_10  and  C_11
REMARK    7  A    between atoms: C_12  and  C_24
REMARK    8  A    between atoms: C_16  and  O_17
REMARK    9  A    between atoms: C_19  and  O_20
REMARK   10  A    between atoms: C_26  and  O_27
REMARK   11  A    between atoms: C_28  and  O_29
REMARK   12  A    between atoms: C_32  and  O_33
REMARK   13  A    between atoms: C_34  and  O_35
REMARK   14  A    between atoms: C_36  and  O_37
REMARK   15  A    between atoms: C_38  and  O_39
REMARK   16  A    between atoms: C_40  and  O_41
REMARK   17  A    between atoms: C_42  and  O_43
REMARK                            x       y       z     vdW  Elec       q    Type
REMARK                         _______ _______ _______ _____ _____    ______ ____
ROOT
ATOM      1  C   UNL     1      -6.608   5.512 130.481  0.00  0.00    +0.000 C 
ATOM      2  O   UNL     1      -6.724   5.283 129.104  0.00  0.00    +0.000 OA
ATOM      3  C   UNL     1      -5.775   4.348 128.630  0.00  0.00    +0.000 C 
ATOM      4  C   UNL     1      -4.279   4.651 128.827  0.00  0.00    +0.000 C 
ATOM      5  C   UNL     1      -4.008   5.141 130.239  0.00  0.00    +0.000 C 
ATOM      6  C   UNL     1      -5.198   5.908 130.854  0.00  0.00    +0.000 C 
ENDROOT
BRANCH   6   7
ATOM      7  O   UNL     1      -4.979   6.069 132.241  0.00  0.00    +0.000 OA
ATOM      8  H   UNL     1      -4.038   5.963 132.452  0.00  0.00    +0.000 HD
ENDBRANCH   6   7
BRANCH   5   9
ATOM      9  O   UNL     1      -2.672   5.697 130.359  0.00  0.00    +0.000 OA
ATOM     10  H   UNL     1      -1.954   5.061 130.503  0.00  0.00    +0.000 HD
ENDBRANCH   5   9
BRANCH   4  11
ATOM     11  O   UNL     1      -3.450   3.518 128.530  0.00  0.00    +0.000 OA
ATOM     12  H   UNL     1      -3.000   3.263 129.354  0.00  0.00    +0.000 HD
ENDBRANCH   4  11
BRANCH   3  13
ATOM     13  O   UNL     1      -6.022   4.218 127.263  0.00  0.00    +0.000 OA
BRANCH  13  14
ATOM     14  C   UNL     1      -6.988   3.359 126.786  0.00  0.00    +0.000 A 
ATOM     15  C   UNL     1      -7.835   2.442 127.398  0.00  0.00    +0.000 A 
ATOM     16  O   UNL     1      -8.694   1.672 126.621  0.00  0.00    +0.000 OA
ATOM     17  C   UNL     1      -8.811   1.879 125.276  0.00  0.00    +0.000 A 
ATOM     18  C   UNL     1      -9.769   1.091 124.646  0.00  0.00    +0.000 A 
ATOM     19  C   UNL     1      -9.996   1.247 123.285  0.00  0.00    +0.000 A 
ATOM     20  C   UNL     1      -9.267   2.168 122.541  0.00  0.00    +0.000 A 
ATOM     21  C   UNL     1      -8.295   2.943 123.169  0.00  0.00    +0.000 A 
ATOM     22  C   UNL     1      -8.068   2.802 124.549  0.00  0.00    +0.000 A 
ATOM     23  C   UNL     1      -7.097   3.577 125.297  0.00  0.00    +0.000 A 
ATOM     24  O   UNL     1      -6.376   4.437 124.730  0.00  0.00    +0.000 OA
BRANCH  15  25
ATOM     25  C   UNL     1      -8.077   1.965 128.868  0.00  0.00    +0.000 A 
ATOM     26  C   UNL     1      -9.035   2.582 129.667  0.00  0.00    +0.000 A 
ATOM     27  C   UNL     1      -9.352   2.116 130.991  0.00  0.00    +0.000 A 
ATOM     28  C   UNL     1      -8.913   0.908 131.479  0.00  0.00    +0.000 A 
ATOM     29  C   UNL     1      -7.781   0.422 130.867  0.00  0.00    +0.000 A 
ATOM     30  C   UNL     1      -7.322   1.020 129.608  0.00  0.00    +0.000 A 
BRANCH  28  31
ATOM     31  O   UNL     1      -9.732   0.040 132.183  0.00  0.00    +0.000 OA
ATOM     32  H   UNL     1     -10.568   0.490 132.429  0.00  0.00    +0.000 HD
ENDBRANCH  28  31
BRANCH  27  33
ATOM     33  O   UNL     1     -10.264   2.788 131.744  0.00  0.00    +0.000 OA
ATOM     34  H   UNL     1     -11.087   2.658 131.250  0.00  0.00    +0.000 HD
ENDBRANCH  27  33
ENDBRANCH  15  25
BRANCH  21  35
ATOM     35  O   UNL     1      -7.583   3.836 122.418  0.00  0.00    +0.000 OA
ATOM     36  H   UNL     1      -7.761   4.747 122.697  0.00  0.00    +0.000 HD
ENDBRANCH  21  35
BRANCH  19  37
ATOM     37  O   UNL     1     -10.940   0.514 122.633  0.00  0.00    +0.000 OA
ATOM     38  H   UNL     1     -10.510  -0.035 121.956  0.00  0.00    +0.000 HD
ENDBRANCH  19  37
ENDBRANCH  13  14
ENDBRANCH   3  13
BRANCH   1  39
ATOM     39  C   UNL     1      -7.671   6.571 130.859  0.00  0.00    +0.000 C 
BRANCH  39  40
ATOM     40  O   UNL     1      -8.820   7.073 130.189  0.00  0.00    +0.000 OA
BRANCH  40  44
ATOM     41  C   UNL     1     -10.965   7.970 126.643  0.00  0.00    +0.000 C 
ATOM     42  C   UNL     1     -10.858   7.607 128.101  0.00  0.00    +0.000 C 
ATOM     43  O   UNL     1     -10.077   6.435 128.207  0.00  0.00    +0.000 OA
ATOM     44  C   UNL     1      -9.707   6.107 129.537  0.00  0.00    +0.000 C 
ATOM     45  C   UNL     1     -10.908   5.828 130.461  0.00  0.00    +0.000 C 
ATOM     46  C   UNL     1     -11.684   7.132 130.524  0.00  0.00    +0.000 C 
ATOM     47  C   UNL     1     -12.034   7.642 129.084  0.00  0.00    +0.000 C 
BRANCH  47  48
ATOM     48  O   UNL     1     -12.512   8.986 129.158  0.00  0.00    +0.000 OA
ATOM     49  H   UNL     1     -12.499   9.367 128.260  0.00  0.00    +0.000 HD
ENDBRANCH  47  48
BRANCH  46  50
ATOM     50  O   UNL     1     -12.865   6.972 131.308  0.00  0.00    +0.000 OA
ATOM     51  H   UNL     1     -12.751   7.529 132.098  0.00  0.00    +0.000 HD
ENDBRANCH  46  50
BRANCH  45  52
ATOM     52  O   UNL     1     -11.755   4.757 130.024  0.00  0.00    +0.000 OA
ATOM     53  H   UNL     1     -11.583   4.578 129.084  0.00  0.00    +0.000 HD
ENDBRANCH  45  52
ENDBRANCH  40  44
ENDBRANCH  39  40
ENDBRANCH   1  39
TORSDOF 16
ENDMDL
MODEL 2
REMARK VINA RESULT:      -9.0      2.925      7.203
REMARK  Name = Rutin
REMARK  17 active torsions:
REMARK  status: ('A' for Active; 'I' for Inactive)
REMARK    1  A    between atoms: C_1  and  C_2
REMARK    2  A    between atoms: C_4  and  O_5
REMARK    3  A    between atoms: O_5  and  C_6
REMARK    4  A    between atoms: C_6  and  C_7
REMARK    5  A    between atoms: C_9  and  O_10
REMARK    6  A    between atoms: O_10  and  C_11
REMARK    7  A    between atoms: C_12  and  C_24
REMARK    8  A    between atoms: C_16  and  O_17
REMARK    9  A    between atoms: C_19  and  O_20
REMARK   10  A    between atoms: C_26  and  O_27
REMARK   11  A    between atoms: C_28  and  O_29
REMARK   12  A    between atoms: C_32  and  O_33
REMARK   13  A    between atoms: C_34  and  O_35
REMARK   14  A    between atoms: C_36  and  O_37
REMARK   15  A    between atoms: C_38  and  O_39
REMARK   16  A    between atoms: C_40  and  O_41
REMARK   17  A    between atoms: C_42  and  O_43
REMARK                            x       y       z     vdW  Elec       q    Type
REMARK                         _______ _______ _______ _____ _____    ______ ____
ROOT
ATOM      1  C   UNL     1      -7.411   0.109 129.053  0.00  0.00    +0.000 C 
ATOM      2  O   UNL     1      -7.800   1.097 128.140  0.00  0.00    +0.000 OA
ATOM      3  C   UNL     1      -7.883   2.378 128.733  0.00  0.00    +0.000 C 
ATOM      4  C   UNL     1      -8.838   2.579 129.923  0.00  0.00    +0.000 C 
ATOM      5  C   UNL     1      -8.703   1.444 130.924  0.00  0.00    +0.000 C 
ATOM      6  C   UNL     1      -8.305   0.103 130.270  0.00  0.00    +0.000 C 
ENDROOT
BRANCH   6   7
ATOM      7  O   UNL     1      -7.921  -0.809 131.280  0.00  0.00    +0.000 OA
ATOM      8  H   UNL     1      -7.956  -1.719 130.948  0.00  0.00    +0.000 HD
ENDBRANCH   6   7
BRANCH   5   9
ATOM      9  O   UNL     1      -9.782   1.464 131.895  0.00  0.00    +0.000 OA
ATOM     10  H   UNL     1     -10.075   0.601 132.228  0.00  0.00    +0.000 HD
ENDBRANCH   5   9
BRANCH   4  11
ATOM     11  O   UNL     1      -8.637   3.840 130.577  0.00  0.00    +0.000 OA
ATOM     12  H   UNL     1      -7.680   4.010 130.594  0.00  0.00    +0.000 HD
ENDBRANCH   4  11
BRANCH   3  13
ATOM     13  O   UNL     1      -8.265   3.245 127.710  0.00  0.00    +0.000 OA
BRANCH  13  14
ATOM     14  C   UNL     1      -7.401   3.573 126.687  0.00  0.00    +0.000 A 
ATOM     15  C   UNL     1      -6.109   4.086 126.657  0.00  0.00    +0.000 A 
ATOM     16  O   UNL     1      -5.503   4.356 125.435  0.00  0.00    +0.000 OA
ATOM     17  C   UNL     1      -6.104   4.020 124.256  0.00  0.00    +0.000 A 
ATOM     18  C   UNL     1      -5.342   4.276 123.119  0.00  0.00    +0.000 A 
ATOM     19  C   UNL     1      -5.844   3.937 121.870  0.00  0.00    +0.000 A 
ATOM     20  C   UNL     1      -7.103   3.362 121.737  0.00  0.00    +0.000 A 
ATOM     21  C   UNL     1      -7.871   3.123 122.874  0.00  0.00    +0.000 A 
ATOM     22  C   UNL     1      -7.367   3.449 124.145  0.00  0.00    +0.000 A 
ATOM     23  C   UNL     1      -8.079   3.220 125.387  0.00  0.00    +0.000 A 
ATOM     24  O   UNL     1      -9.228   2.708 125.392  0.00  0.00    +0.000 OA
BRANCH  15  25
ATOM     25  C   UNL     1      -5.064   4.522 127.736  0.00  0.00    +0.000 A 
ATOM     26  C   UNL     1      -4.000   5.354 127.400  0.00  0.00    +0.000 A 
ATOM     27  C   UNL     1      -3.070   5.852 128.379  0.00  0.00    +0.000 A 
ATOM     28  C   UNL     1      -3.284   5.739 129.732  0.00  0.00    +0.000 A 
ATOM     29  C   UNL     1      -4.132   4.718 130.094  0.00  0.00    +0.000 A 
ATOM     30  C   UNL     1      -4.950   4.055 129.071  0.00  0.00    +0.000 A 
BRANCH  28  31
ATOM     31  O   UNL     1      -3.057   6.780 130.618  0.00  0.00    +0.000 OA
ATOM     32  H   UNL     1      -2.194   6.656 131.068  0.00  0.00    +0.000 HD
ENDBRANCH  28  31
BRANCH  27  33
ATOM     33  O   UNL     1      -2.022   6.624 127.985  0.00  0.00    +0.000 OA
ATOM     34  H   UNL     1      -2.353   7.035 127.173  0.00  0.00    +0.000 HD
ENDBRANCH  27  33
ENDBRANCH  15  25
BRANCH  21  35
ATOM     35  O   UNL     1      -9.109   2.565 122.722  0.00  0.00    +0.000 OA
ATOM     36  H   UNL     1      -9.651   2.693 123.516  0.00  0.00    +0.000 HD
ENDBRANCH  21  35
BRANCH  19  37
ATOM     37  O   UNL     1      -5.123   4.148 120.734  0.00  0.00    +0.000 OA
ATOM     38  H   UNL     1      -4.238   3.761 120.838  0.00  0.00    +0.000 HD
ENDBRANCH  19  37
ENDBRANCH  13  14
ENDBRANCH   3  13
BRANCH   1  39
ATOM     39  C   UNL     1      -7.394  -1.237 128.289  0.00  0.00    +0.000 C 
BRANCH  39  40
ATOM     40  O   UNL     1      -6.802  -1.649 127.064  0.00  0.00    +0.000 OA
BRANCH  40  44
ATOM     41  C   UNL     1      -5.416  -2.922 123.264  0.00  0.00    +0.000 C 
ATOM     42  C   UNL     1      -6.377  -2.214 124.183  0.00  0.00    +0.000 C 
ATOM     43  O   UNL     1      -6.831  -3.144 125.145  0.00  0.00    +0.000 OA
ATOM     44  C   UNL     1      -7.566  -2.560 126.208  0.00  0.00    +0.000 C 
ATOM     45  C   UNL     1      -8.856  -1.852 125.751  0.00  0.00    +0.000 C 
ATOM     46  C   UNL     1      -8.399  -0.716 124.850  0.00  0.00    +0.000 C 
ATOM     47  C   UNL     1      -7.472  -1.252 123.707  0.00  0.00    +0.000 C 
BRANCH  47  48
ATOM     48  O   UNL     1      -6.841  -0.152 123.050  0.00  0.00    +0.000 OA
ATOM     49  H   UNL     1      -7.148  -0.128 122.125  0.00  0.00    +0.000 HD
ENDBRANCH  47  48
BRANCH  46  50
ATOM     50  O   UNL     1      -9.524  -0.024 124.311  0.00  0.00    +0.000 OA
ATOM     51  H   UNL     1      -9.408   0.914 124.541  0.00  0.00    +0.000 HD
ENDBRANCH  46  50
BRANCH  45  52
ATOM     52  O   UNL     1      -9.785  -2.699 125.063  0.00  0.00    +0.000 OA
ATOM     53  H   UNL     1      -9.872  -3.537 125.548  0.00  0.00    +0.000 HD
ENDBRANCH  45  52
ENDBRANCH  40  44
ENDBRANCH  39  40
ENDBRANCH   1  39
TORSDOF 16
ENDMDL
MODEL 3
REMARK VINA RESULT:      -8.7      3.373      7.688
REMARK  Name = Rutin
REMARK  17 active torsions:
REMARK  status: ('A' for Active; 'I' for Inactive)
REMARK    1  A    between atoms: C_1  and  C_2
REMARK    2  A    between atoms: C_4  and  O_5
REMARK    3  A    between atoms: O_5  and  C_6
REMARK    4  A    between atoms: C_6  and  C_7
REMARK    5  A    between atoms: C_9  and  O_10
REMARK    6  A    between atoms: O_10  and  C_11
REMARK    7  A    between atoms: C_12  and  C_24
REMARK    8  A    between atoms: C_16  and  O_17
REMARK    9  A    between atoms: C_19  and  O_20
REMARK   10  A    between atoms: C_26  and  O_27
REMARK   11  A    between atoms: C_28  and  O_29
REMARK   12  A    between atoms: C_32  and  O_33
REMARK   13  A    between atoms: C_34  and  O_35
REMARK   14  A    between atoms: C_36  and  O_37
REMARK   15  A    between atoms: C_38  and  O_39
REMARK   16  A    between atoms: C_40  and  O_41
REMARK   17  A    between atoms: C_42  and  O_43
REMARK                            x       y       z     vdW  Elec       q    Type
REMARK                         _______ _______ _______ _____ _____    ______ ____
ROOT
ATOM      1  C   UNL     1      -8.265   1.253 130.855  0.00  0.00    +0.000 C 
ATOM      2  O   UNL     1      -8.265   1.263 129.454  0.00  0.00    +0.000 OA
ATOM      3  C   UNL     1      -8.217   2.573 128.923  0.00  0.00    +0.000 C 
ATOM      4  C   UNL     1      -9.335   3.562 129.298  0.00  0.00    +0.000 C 
ATOM      5  C   UNL     1      -9.624   3.512 130.788  0.00  0.00    +0.000 C 
ATOM      6  C   UNL     1      -9.369   2.121 131.409  0.00  0.00    +0.000 C 
ENDROOT
BRANCH   6   7
ATOM      7  O   UNL     1      -9.379   2.234 132.819  0.00  0.00    +0.000 OA
ATOM      8  H   UNL     1      -8.882   1.506 133.222  0.00  0.00    +0.000 HD
ENDBRANCH   6   7
BRANCH   5   9
ATOM      9  O   UNL     1     -10.852   4.216 131.113  0.00  0.00    +0.000 OA
ATOM     10  H   UNL     1     -10.854   4.714 131.946  0.00  0.00    +0.000 HD
ENDBRANCH   5   9
BRANCH   4  11
ATOM     11  O   UNL     1      -9.029   4.906 128.900  0.00  0.00    +0.000 OA
ATOM     12  H   UNL     1      -8.597   4.862 128.030  0.00  0.00    +0.000 HD
ENDBRANCH   4  11
BRANCH   3  13
ATOM     13  O   UNL     1      -8.211   2.419 127.537  0.00  0.00    +0.000 OA
BRANCH  13  14
ATOM     14  C   UNL     1      -7.359   1.533 126.916  0.00  0.00    +0.000 A 
ATOM     15  C   UNL     1      -5.974   1.451 126.818  0.00  0.00    +0.000 A 
ATOM     16  O   UNL     1      -5.395   0.434 126.065  0.00  0.00    +0.000 OA
ATOM     17  C   UNL     1      -6.153  -0.559 125.514  0.00  0.00    +0.000 A 
ATOM     18  C   UNL     1      -5.428  -1.551 124.861  0.00  0.00    +0.000 A 
ATOM     19  C   UNL     1      -6.097  -2.628 124.297  0.00  0.00    +0.000 A 
ATOM     20  C   UNL     1      -7.484  -2.720 124.361  0.00  0.00    +0.000 A 
ATOM     21  C   UNL     1      -8.209  -1.718 125.000  0.00  0.00    +0.000 A 
ATOM     22  C   UNL     1      -7.540  -0.630 125.586  0.00  0.00    +0.000 A 
ATOM     23  C   UNL     1      -8.202   0.450 126.291  0.00  0.00    +0.000 A 
ATOM     24  O   UNL     1      -9.454   0.476 126.410  0.00  0.00    +0.000 OA
BRANCH  15  25
ATOM     25  C   UNL     1      -4.772   2.303 127.344  0.00  0.00    +0.000 A 
ATOM     26  C   UNL     1      -3.640   2.497 126.559  0.00  0.00    +0.000 A 
ATOM     27  C   UNL     1      -2.553   3.347 126.968  0.00  0.00    +0.000 A 
ATOM     28  C   UNL     1      -2.642   4.204 128.039  0.00  0.00    +0.000 A 
ATOM     29  C   UNL     1      -3.587   3.853 128.975  0.00  0.00    +0.000 A 
ATOM     30  C   UNL     1      -4.592   2.835 128.647  0.00  0.00    +0.000 A 
BRANCH  28  31
ATOM     31  O   UNL     1      -2.179   5.509 127.997  0.00  0.00    +0.000 OA
ATOM     32  H   UNL     1      -1.273   5.557 128.370  0.00  0.00    +0.000 HD
ENDBRANCH  28  31
BRANCH  27  33
ATOM     33  O   UNL     1      -1.450   3.461 126.180  0.00  0.00    +0.000 OA
ATOM     34  H   UNL     1      -0.740   3.597 126.825  0.00  0.00    +0.000 HD
ENDBRANCH  27  33
ENDBRANCH  15  25
BRANCH  21  35
ATOM     35  O   UNL     1      -9.571  -1.823 125.045  0.00  0.00    +0.000 OA
ATOM     36  H   UNL     1      -9.995  -0.999 124.758  0.00  0.00    +0.000 HD
ENDBRANCH  21  35
BRANCH  19  37
ATOM     37  O   UNL     1      -5.426  -3.633 123.668  0.00  0.00    +0.000 OA
ATOM     38  H   UNL     1      -5.068  -4.245 124.333  0.00  0.00    +0.000 HD
ENDBRANCH  19  37
ENDBRANCH  13  14
ENDBRANCH   3  13
BRANCH   1  39
ATOM     39  C   UNL     1      -8.355  -0.226 131.300  0.00  0.00    +0.000 C 
BRANCH  39  40
ATOM     40  O   UNL     1      -7.384  -1.251 131.464  0.00  0.00    +0.000 OA
BRANCH  40  44
ATOM     41  C   UNL     1      -5.203  -4.837 132.070  0.00  0.00    +0.000 C 
ATOM     42  C   UNL     1      -5.519  -3.555 131.345  0.00  0.00    +0.000 C 
ATOM     43  O   UNL     1      -6.883  -3.581 130.979  0.00  0.00    +0.000 OA
ATOM     44  C   UNL     1      -7.372  -2.343 130.488  0.00  0.00    +0.000 C 
ATOM     45  C   UNL     1      -6.662  -1.863 129.208  0.00  0.00    +0.000 C 
ATOM     46  C   UNL     1      -5.212  -1.642 129.605  0.00  0.00    +0.000 C 
ATOM     47  C   UNL     1      -4.617  -2.927 130.275  0.00  0.00    +0.000 C 
BRANCH  47  48
ATOM     48  O   UNL     1      -3.363  -2.612 130.882  0.00  0.00    +0.000 OA
ATOM     49  H   UNL     1      -3.325  -1.648 131.029  0.00  0.00    +0.000 HD
ENDBRANCH  47  48
BRANCH  46  50
ATOM     50  O   UNL     1      -4.438  -1.254 128.472  0.00  0.00    +0.000 OA
ATOM     51  H   UNL     1      -3.980  -2.054 128.162  0.00  0.00    +0.000 HD
ENDBRANCH  46  50
BRANCH  45  52
ATOM     52  O   UNL     1      -6.749  -2.773 128.104  0.00  0.00    +0.000 OA
ATOM     53  H   UNL     1      -6.208  -2.436 127.370  0.00  0.00    +0.000 HD
ENDBRANCH  45  52
ENDBRANCH  40  44
ENDBRANCH  39  40
ENDBRANCH   1  39
TORSDOF 16
ENDMDL
MODEL 4
REMARK VINA RESULT:      -8.6      1.875      4.827
REMARK  Name = Rutin
REMARK  17 active torsions:
REMARK  status: ('A' for Active; 'I' for Inactive)
REMARK    1  A    between atoms: C_1  and  C_2
REMARK    2  A    between atoms: C_4  and  O_5
REMARK    3  A    between atoms: O_5  and  C_6
REMARK    4  A    between atoms: C_6  and  C_7
REMARK    5  A    between atoms: C_9  and  O_10
REMARK    6  A    between atoms: O_10  and  C_11
REMARK    7  A    between atoms: C_12  and  C_24
REMARK    8  A    between atoms: C_16  and  O_17
REMARK    9  A    between atoms: C_19  and  O_20
REMARK   10  A    between atoms: C_26  and  O_27
REMARK   11  A    between atoms: C_28  and  O_29
REMARK   12  A    between atoms: C_32  and  O_33
REMARK   13  A    between atoms: C_34  and  O_35
REMARK   14  A    between atoms: C_36  and  O_37
REMARK   15  A    between atoms: C_38  and  O_39
REMARK   16  A    between atoms: C_40  and  O_41
REMARK   17  A    between atoms: C_42  and  O_43
REMARK                            x       y       z     vdW  Elec       q    Type
REMARK                         _______ _______ _______ _____ _____    ______ ____
ROOT
ATOM      1  C   UNL     1      -8.678   1.610 130.118  0.00  0.00    +0.000 C 
ATOM      2  O   UNL     1      -7.925   1.320 128.972  0.00  0.00    +0.000 OA
ATOM      3  C   UNL     1      -7.576  -0.047 128.886  0.00  0.00    +0.000 C 
ATOM      4  C   UNL     1      -6.759  -0.673 130.031  0.00  0.00    +0.000 C 
ATOM      5  C   UNL     1      -7.319  -0.264 131.382  0.00  0.00    +0.000 C 
ATOM      6  C   UNL     1      -7.978   1.132 131.368  0.00  0.00    +0.000 C 
ENDROOT
BRANCH   6   7
ATOM      7  O   UNL     1      -8.717   1.308 132.561  0.00  0.00    +0.000 OA
ATOM      8  H   UNL     1      -9.583   0.879 132.491  0.00  0.00    +0.000 HD
ENDBRANCH   6   7
BRANCH   5   9
ATOM      9  O   UNL     1      -6.406  -0.603 132.458  0.00  0.00    +0.000 OA
ATOM     10  H   UNL     1      -5.475  -0.364 132.323  0.00  0.00    +0.000 HD
ENDBRANCH   5   9
BRANCH   4  11
ATOM     11  O   UNL     1      -6.694  -2.103 129.936  0.00  0.00    +0.000 OA
ATOM     12  H   UNL     1      -5.890  -2.390 130.402  0.00  0.00    +0.000 HD
ENDBRANCH   4  11
BRANCH   3  13
ATOM     13  O   UNL     1      -6.849  -0.179 127.703  0.00  0.00    +0.000 OA
BRANCH  13  14
ATOM     14  C   UNL     1      -6.906   0.780 126.715  0.00  0.00    +0.000 A 
ATOM     15  C   UNL     1      -6.149   1.915 126.443  0.00  0.00    +0.000 A 
ATOM     16  O   UNL     1      -6.488   2.728 125.367  0.00  0.00    +0.000 OA
ATOM     17  C   UNL     1      -7.479   2.374 124.496  0.00  0.00    +0.000 A 
ATOM     18  C   UNL     1      -7.649   3.243 123.422  0.00  0.00    +0.000 A 
ATOM     19  C   UNL     1      -8.604   2.957 122.456  0.00  0.00    +0.000 A 
ATOM     20  C   UNL     1      -9.406   1.825 122.557  0.00  0.00    +0.000 A 
ATOM     21  C   UNL     1      -9.247   0.966 123.642  0.00  0.00    +0.000 A 
ATOM     22  C   UNL     1      -8.272   1.238 124.617  0.00  0.00    +0.000 A 
ATOM     23  C   UNL     1      -8.016   0.396 125.769  0.00  0.00    +0.000 A 
ATOM     24  O   UNL     1      -8.680  -0.653 125.968  0.00  0.00    +0.000 OA
BRANCH  15  25
ATOM     25  C   UNL     1      -4.922   2.616 127.113  0.00  0.00    +0.000 A 
ATOM     26  C   UNL     1      -3.708   2.721 126.440  0.00  0.00    +0.000 A 
ATOM     27  C   UNL     1      -2.584   3.437 126.983  0.00  0.00    +0.000 A 
ATOM     28  C   UNL     1      -2.685   4.258 128.081  0.00  0.00    +0.000 A 
ATOM     29  C   UNL     1      -3.743   3.972 128.912  0.00  0.00    +0.000 A 
ATOM     30  C   UNL     1      -4.810   3.077 128.450  0.00  0.00    +0.000 A 
BRANCH  28  31
ATOM     31  O   UNL     1      -2.090   5.507 128.141  0.00  0.00    +0.000 OA
ATOM     32  H   UNL     1      -2.429   6.077 127.418  0.00  0.00    +0.000 HD
ENDBRANCH  28  31
BRANCH  27  33
ATOM     33  O   UNL     1      -1.407   3.464 126.302  0.00  0.00    +0.000 OA
ATOM     34  H   UNL     1      -1.566   4.142 125.628  0.00  0.00    +0.000 HD
ENDBRANCH  27  33
ENDBRANCH  15  25
BRANCH  21  35
ATOM     35  O   UNL     1     -10.049  -0.137 123.727  0.00  0.00    +0.000 OA
ATOM     36  H   UNL     1     -10.431  -0.224 124.614  0.00  0.00    +0.000 HD
ENDBRANCH  21  35
BRANCH  19  37
ATOM     37  O   UNL     1      -8.789   3.767 121.377  0.00  0.00    +0.000 OA
ATOM     38  H   UNL     1      -7.927   3.970 120.977  0.00  0.00    +0.000 HD
ENDBRANCH  19  37
ENDBRANCH  13  14
ENDBRANCH   3  13
BRANCH   1  39
ATOM     39  C   UNL     1      -8.959   3.131 130.106  0.00  0.00    +0.000 C 
BRANCH  39  40
ATOM     40  O   UNL     1     -10.117   3.901 129.807  0.00  0.00    +0.000 OA
BRANCH  40  44
ATOM     41  C   UNL     1     -12.969   6.937 129.014  0.00  0.00    +0.000 C 
ATOM     42  C   UNL     1     -11.615   6.435 129.443  0.00  0.00    +0.000 C 
ATOM     43  O   UNL     1     -11.801   5.514 130.498  0.00  0.00    +0.000 OA
ATOM     44  C   UNL     1     -10.629   4.795 130.848  0.00  0.00    +0.000 C 
ATOM     45  C   UNL     1      -9.480   5.692 131.347  0.00  0.00    +0.000 C 
ATOM     46  C   UNL     1      -9.120   6.583 130.171  0.00  0.00    +0.000 C 
ATOM     47  C   UNL     1     -10.386   7.332 129.632  0.00  0.00    +0.000 C 
BRANCH  47  48
ATOM     48  O   UNL     1     -10.082   7.938 128.375  0.00  0.00    +0.000 OA
ATOM     49  H   UNL     1      -9.885   7.233 127.732  0.00  0.00    +0.000 HD
ENDBRANCH  47  48
BRANCH  46  50
ATOM     50  O   UNL     1      -8.100   7.509 130.541  0.00  0.00    +0.000 OA
ATOM     51  H   UNL     1      -7.526   7.616 129.763  0.00  0.00    +0.000 HD
ENDBRANCH  46  50
BRANCH  45  52
ATOM     52  O   UNL     1      -9.803   6.482 132.499  0.00  0.00    +0.000 OA
ATOM     53  H   UNL     1     -10.765   6.619 132.532  0.00  0.00    +0.000 HD
ENDBRANCH  45  52
ENDBRANCH  40  44
ENDBRANCH  39  40
ENDBRANCH   1  39
TORSDOF 16
ENDMDL
MODEL 5
REMARK VINA RESULT:      -8.5      2.453      3.417
REMARK  Name = Rutin
REMARK  17 active torsions:
REMARK  status: ('A' for Active; 'I' for Inactive)
REMARK    1  A    between atoms: C_1  and  C_2
REMARK    2  A    between atoms: C_4  and  O_5
REMARK    3  A    between atoms: O_5  and  C_6
REMARK    4  A    between atoms: C_6  and  C_7
REMARK    5  A    between atoms: C_9  and  O_10
REMARK    6  A    between atoms: O_10  and  C_11
REMARK    7  A    between atoms: C_12  and  C_24
REMARK    8  A    between atoms: C_16  and  O_17
REMARK    9  A    between atoms: C_19  and  O_20
REMARK   10  A    between atoms: C_26  and  O_27
REMARK   11  A    between atoms: C_28  and  O_29
REMARK   12  A    between atoms: C_32  and  O_33
REMARK   13  A    between atoms: C_34  and  O_35
REMARK   14  A    between atoms: C_36  and  O_37
REMARK   15  A    between atoms: C_38  and  O_39
REMARK   16  A    between atoms: C_40  and  O_41
REMARK   17  A    between atoms: C_42  and  O_43
REMARK                            x       y       z     vdW  Elec       q    Type
REMARK                         _______ _______ _______ _____ _____    ______ ____
ROOT
ATOM      1  C   UNL     1      -5.560   3.702 128.897  0.00  0.00    +0.000 C 
ATOM      2  O   UNL     1      -5.589   2.935 127.725  0.00  0.00    +0.000 OA
ATOM      3  C   UNL     1      -4.331   2.364 127.421  0.00  0.00    +0.000 C 
ATOM      4  C   UNL     1      -3.127   3.301 127.217  0.00  0.00    +0.000 C 
ATOM      5  C   UNL     1      -3.076   4.362 128.304  0.00  0.00    +0.000 C 
ATOM      6  C   UNL     1      -4.471   4.748 128.840  0.00  0.00    +0.000 C 
ENDROOT
BRANCH   6   7
ATOM      7  O   UNL     1      -4.320   5.505 130.025  0.00  0.00    +0.000 OA
ATOM      8  H   UNL     1      -3.748   6.272 129.867  0.00  0.00    +0.000 HD
ENDBRANCH   6   7
BRANCH   5   9
ATOM      9  O   UNL     1      -2.131   5.413 127.974  0.00  0.00    +0.000 OA
ATOM     10  H   UNL     1      -1.394   5.537 128.593  0.00  0.00    +0.000 HD
ENDBRANCH   5   9
BRANCH   4  11
ATOM     11  O   UNL     1      -1.883   2.587 127.166  0.00  0.00    +0.000 OA
ATOM     12  H   UNL     1      -2.079   1.649 127.332  0.00  0.00    +0.000 HD
ENDBRANCH   4  11
BRANCH   3  13
ATOM     13  O   UNL     1      -4.522   1.631 126.250  0.00  0.00    +0.000 OA
BRANCH  13  14
ATOM     14  C   UNL     1      -5.764   1.150 125.898  0.00  0.00    +0.000 A 
ATOM     15  C   UNL     1      -6.562   0.120 126.385  0.00  0.00    +0.000 A 
ATOM     16  O   UNL     1      -7.782  -0.154 125.775  0.00  0.00    +0.000 OA
ATOM     17  C   UNL     1      -8.271   0.643 124.780  0.00  0.00    +0.000 A 
ATOM     18  C   UNL     1      -9.539   0.294 124.325  0.00  0.00    +0.000 A 
ATOM     19  C   UNL     1     -10.147   1.060 123.340  0.00  0.00    +0.000 A 
ATOM     20  C   UNL     1      -9.499   2.161 122.790  0.00  0.00    +0.000 A 
ATOM     21  C   UNL     1      -8.223   2.499 123.234  0.00  0.00    +0.000 A 
ATOM     22  C   UNL     1      -7.605   1.737 124.240  0.00  0.00    +0.000 A 
ATOM     23  C   UNL     1      -6.291   2.020 124.784  0.00  0.00    +0.000 A 
ATOM     24  O   UNL     1      -5.608   2.988 124.362  0.00  0.00    +0.000 OA
BRANCH  15  25
ATOM     25  C   UNL     1      -6.425  -0.946 127.520  0.00  0.00    +0.000 A 
ATOM     26  C   UNL     1      -5.233  -1.639 127.706  0.00  0.00    +0.000 A 
ATOM     27  C   UNL     1      -5.036  -2.561 128.794  0.00  0.00    +0.000 A 
ATOM     28  C   UNL     1      -5.908  -2.658 129.853  0.00  0.00    +0.000 A 
ATOM     29  C   UNL     1      -7.185  -2.226 129.582  0.00  0.00    +0.000 A 
ATOM     30  C   UNL     1      -7.448  -1.448 128.366  0.00  0.00    +0.000 A 
BRANCH  28  31
ATOM     31  O   UNL     1      -5.483  -2.746 131.168  0.00  0.00    +0.000 OA
ATOM     32  H   UNL     1      -6.256  -2.835 131.766  0.00  0.00    +0.000 HD
ENDBRANCH  28  31
BRANCH  27  33
ATOM     33  O   UNL     1      -3.866  -3.246 128.897  0.00  0.00    +0.000 OA
ATOM     34  H   UNL     1      -3.216  -2.540 129.028  0.00  0.00    +0.000 HD
ENDBRANCH  27  33
ENDBRANCH  15  25
BRANCH  21  35
ATOM     35  O   UNL     1      -7.600   3.579 122.675  0.00  0.00    +0.000 OA
ATOM     36  H   UNL     1      -8.234   4.148 122.212  0.00  0.00    +0.000 HD
ENDBRANCH  21  35
BRANCH  19  37
ATOM     37  O   UNL     1     -11.396   0.769 122.881  0.00  0.00    +0.000 OA
ATOM     38  H   UNL     1     -11.358  -0.031 122.331  0.00  0.00    +0.000 HD
ENDBRANCH  19  37
ENDBRANCH  13  14
ENDBRANCH   3  13
BRANCH   1  39
ATOM     39  C   UNL     1      -6.977   4.290 129.092  0.00  0.00    +0.000 C 
BRANCH  39  40
ATOM     40  O   UNL     1      -7.789   4.505 130.240  0.00  0.00    +0.000 OA
BRANCH  40  44
ATOM     41  C   UNL     1     -11.158   7.078 130.201  0.00  0.00    +0.000 C 
ATOM     42  C   UNL     1     -10.280   6.014 130.803  0.00  0.00    +0.000 C 
ATOM     43  O   UNL     1     -10.146   4.969 129.861  0.00  0.00    +0.000 OA
ATOM     44  C   UNL     1      -9.165   4.005 130.206  0.00  0.00    +0.000 C 
ATOM     45  C   UNL     1      -9.461   3.267 131.526  0.00  0.00    +0.000 C 
ATOM     46  C   UNL     1      -9.432   4.337 132.605  0.00  0.00    +0.000 C 
ATOM     47  C   UNL     1     -10.401   5.514 132.248  0.00  0.00    +0.000 C 
BRANCH  47  48
ATOM     48  O   UNL     1     -10.153   6.617 133.121  0.00  0.00    +0.000 OA
ATOM     49  H   UNL     1      -9.708   7.319 132.612  0.00  0.00    +0.000 HD
ENDBRANCH  47  48
BRANCH  46  50
ATOM     50  O   UNL     1      -9.759   3.774 133.874  0.00  0.00    +0.000 OA
ATOM     51  H   UNL     1      -8.993   3.240 134.147  0.00  0.00    +0.000 HD
ENDBRANCH  46  50
BRANCH  45  52
ATOM     52  O   UNL     1     -10.711   2.566 131.546  0.00  0.00    +0.000 OA
ATOM     53  H   UNL     1     -11.089   2.614 132.440  0.00  0.00    +0.000 HD
ENDBRANCH  45  52
ENDBRANCH  40  44
ENDBRANCH  39  40
ENDBRANCH   1  39
TORSDOF 16
ENDMDL
MODEL 6
REMARK VINA RESULT:      -8.4      3.871      6.703
REMARK  Name = Rutin
REMARK  17 active torsions:
REMARK  status: ('A' for Active; 'I' for Inactive)
REMARK    1  A    between atoms: C_1  and  C_2
REMARK    2  A    between atoms: C_4  and  O_5
REMARK    3  A    between atoms: O_5  and  C_6
REMARK    4  A    between atoms: C_6  and  C_7
REMARK    5  A    between atoms: C_9  and  O_10
REMARK    6  A    between atoms: O_10  and  C_11
REMARK    7  A    between atoms: C_12  and  C_24
REMARK    8  A    between atoms: C_16  and  O_17
REMARK    9  A    between atoms: C_19  and  O_20
REMARK   10  A    between atoms: C_26  and  O_27
REMARK   11  A    between atoms: C_28  and  O_29
REMARK   12  A    between atoms: C_32  and  O_33
REMARK   13  A    between atoms: C_34  and  O_35
REMARK   14  A    between atoms: C_36  and  O_37
REMARK   15  A    between atoms: C_38  and  O_39
REMARK   16  A    between atoms: C_40  and  O_41
REMARK   17  A    between atoms: C_42  and  O_43
REMARK                            x       y       z     vdW  Elec       q    Type
REMARK                         _______ _______ _______ _____ _____    ______ ____
ROOT
ATOM      1  C   UNL     1      -7.754   5.666 132.022  0.00  0.00    +0.000 C 
ATOM      2  O   UNL     1      -6.395   5.326 132.050  0.00  0.00    +0.000 OA
ATOM      3  C   UNL     1      -6.119   4.284 132.965  0.00  0.00    +0.000 C 
ATOM      4  C   UNL     1      -6.477   4.490 134.447  0.00  0.00    +0.000 C 
ATOM      5  C   UNL     1      -7.869   5.081 134.591  0.00  0.00    +0.000 C 
ATOM      6  C   UNL     1      -8.268   5.987 133.405  0.00  0.00    +0.000 C 
ENDROOT
BRANCH   6   7
ATOM      7  O   UNL     1      -9.655   6.253 133.472  0.00  0.00    +0.000 OA
ATOM      8  H   UNL     1     -10.004   6.025 134.347  0.00  0.00    +0.000 HD
ENDBRANCH   6   7
BRANCH   5   9
ATOM      9  O   UNL     1      -8.111   5.544 135.945  0.00  0.00    +0.000 OA
ATOM     10  H   UNL     1      -8.776   6.243 136.048  0.00  0.00    +0.000 HD
ENDBRANCH   5   9
BRANCH   4  11
ATOM     11  O   UNL     1      -6.376   3.276 135.206  0.00  0.00    +0.000 OA
ATOM     12  H   UNL     1      -5.434   3.041 135.256  0.00  0.00    +0.000 HD
ENDBRANCH   4  11
BRANCH   3  13
ATOM     13  O   UNL     1      -4.746   4.054 132.872  0.00  0.00    +0.000 OA
BRANCH  13  14
ATOM     14  C   UNL     1      -4.043   4.358 131.726  0.00  0.00    +0.000 A 
ATOM     15  C   UNL     1      -3.119   5.347 131.408  0.00  0.00    +0.000 A 
ATOM     16  O   UNL     1      -2.604   5.421 130.118  0.00  0.00    +0.000 OA
ATOM     17  C   UNL     1      -2.895   4.469 129.184  0.00  0.00    +0.000 A 
ATOM     18  C   UNL     1      -2.241   4.628 127.965  0.00  0.00    +0.000 A 
ATOM     19  C   UNL     1      -2.437   3.694 126.957  0.00  0.00    +0.000 A 
ATOM     20  C   UNL     1      -3.290   2.612 127.141  0.00  0.00    +0.000 A 
ATOM     21  C   UNL     1      -3.957   2.463 128.355  0.00  0.00    +0.000 A 
ATOM     22  C   UNL     1      -3.755   3.395 129.387  0.00  0.00    +0.000 A 
ATOM     23  C   UNL     1      -4.385   3.316 130.690  0.00  0.00    +0.000 A 
ATOM     24  O   UNL     1      -5.180   2.382 130.972  0.00  0.00    +0.000 OA
BRANCH  15  25
ATOM     25  C   UNL     1      -2.469   6.545 132.175  0.00  0.00    +0.000 A 
ATOM     26  C   UNL     1      -1.267   6.385 132.858  0.00  0.00    +0.000 A 
ATOM     27  C   UNL     1      -0.591   7.482 133.499  0.00  0.00    +0.000 A 
ATOM     28  C   UNL     1      -0.946   8.794 133.297  0.00  0.00    +0.000 A 
ATOM     29  C   UNL     1      -2.245   8.977 132.884  0.00  0.00    +0.000 A 
ATOM     30  C   UNL     1      -3.027   7.829 132.410  0.00  0.00    +0.000 A 
BRANCH  28  31
ATOM     31  O   UNL     1      -0.017   9.799 133.086  0.00  0.00    +0.000 OA
ATOM     32  H   UNL     1       0.710   9.729 133.740  0.00  0.00    +0.000 HD
ENDBRANCH  28  31
BRANCH  27  33
ATOM     33  O   UNL     1       0.557   7.256 134.193  0.00  0.00    +0.000 OA
ATOM     34  H   UNL     1       1.242   7.385 133.520  0.00  0.00    +0.000 HD
ENDBRANCH  27  33
ENDBRANCH  15  25
BRANCH  21  35
ATOM     35  O   UNL     1      -4.798   1.398 128.513  0.00  0.00    +0.000 OA
ATOM     36  H   UNL     1      -5.203   1.399 129.394  0.00  0.00    +0.000 HD
ENDBRANCH  21  35
BRANCH  19  37
ATOM     37  O   UNL     1      -1.799   3.799 125.758  0.00  0.00    +0.000 OA
ATOM     38  H   UNL     1      -0.981   4.310 125.872  0.00  0.00    +0.000 HD
ENDBRANCH  19  37
ENDBRANCH  13  14
ENDBRANCH   3  13
BRANCH   1  39
ATOM     39  C   UNL     1      -7.912   6.831 131.016  0.00  0.00    +0.000 C 
BRANCH  39  40
ATOM     40  O   UNL     1      -8.968   7.232 130.153  0.00  0.00    +0.000 OA
BRANCH  40  44
ATOM     41  C   UNL     1     -10.903   7.828 126.427  0.00  0.00    +0.000 C 
ATOM     42  C   UNL     1     -10.879   7.537 127.904  0.00  0.00    +0.000 C 
ATOM     43  O   UNL     1     -10.034   6.426 128.121  0.00  0.00    +0.000 OA
ATOM     44  C   UNL     1      -9.742   6.182 129.487  0.00  0.00    +0.000 C 
ATOM     45  C   UNL     1     -10.986   5.862 130.337  0.00  0.00    +0.000 C 
ATOM     46  C   UNL     1     -11.848   7.113 130.284  0.00  0.00    +0.000 C 
ATOM     47  C   UNL     1     -12.123   7.535 128.801  0.00  0.00    +0.000 C 
BRANCH  47  48
ATOM     48  O   UNL     1     -12.690   8.846 128.776  0.00  0.00    +0.000 OA
ATOM     49  H   UNL     1     -13.652   8.769 128.916  0.00  0.00    +0.000 HD
ENDBRANCH  47  48
BRANCH  46  50
ATOM     50  O   UNL     1     -13.070   6.908 130.991  0.00  0.00    +0.000 OA
ATOM     51  H   UNL     1     -13.299   5.969 130.880  0.00  0.00    +0.000 HD
ENDBRANCH  46  50
BRANCH  45  52
ATOM     52  O   UNL     1     -11.729   4.719 129.895  0.00  0.00    +0.000 OA
ATOM     53  H   UNL     1     -12.680   4.909 129.970  0.00  0.00    +0.000 HD
ENDBRANCH  45  52
ENDBRANCH  40  44
ENDBRANCH  39  40
ENDBRANCH   1  39
TORSDOF 16
ENDMDL
MODEL 7
REMARK VINA RESULT:      -8.4      2.113      6.889
REMARK  Name = Rutin
REMARK  17 active torsions:
REMARK  status: ('A' for Active; 'I' for Inactive)
REMARK    1  A    between atoms: C_1  and  C_2
REMARK    2  A    between atoms: C_4  and  O_5
REMARK    3  A    between atoms: O_5  and  C_6
REMARK    4  A    between atoms: C_6  and  C_7
REMARK    5  A    between atoms: C_9  and  O_10
REMARK    6  A    between atoms: O_10  and  C_11
REMARK    7  A    between atoms: C_12  and  C_24
REMARK    8  A    between atoms: C_16  and  O_17
REMARK    9  A    between atoms: C_19  and  O_20
REMARK   10  A    between atoms: C_26  and  O_27
REMARK   11  A    between atoms: C_28  and  O_29
REMARK   12  A    between atoms: C_32  and  O_33
REMARK   13  A    between atoms: C_34  and  O_35
REMARK   14  A    between atoms: C_36  and  O_37
REMARK   15  A    between atoms: C_38  and  O_39
REMARK   16  A    between atoms: C_40  and  O_41
REMARK   17  A    between atoms: C_42  and  O_43
REMARK                            x       y       z     vdW  Elec       q    Type
REMARK                         _______ _______ _______ _____ _____    ______ ____
ROOT
ATOM      1  C   UNL     1      -5.579   1.755 129.386  0.00  0.00    +0.000 C 
ATOM      2  O   UNL     1      -6.581   2.452 130.074  0.00  0.00    +0.000 OA
ATOM      3  C   UNL     1      -6.139   2.934 131.328  0.00  0.00    +0.000 C 
ATOM      4  C   UNL     1      -5.618   1.922 132.364  0.00  0.00    +0.000 C 
ATOM      5  C   UNL     1      -4.669   0.926 131.719  0.00  0.00    +0.000 C 
ATOM      6  C   UNL     1      -4.998   0.650 130.236  0.00  0.00    +0.000 C 
ENDROOT
BRANCH   6   7
ATOM      7  O   UNL     1      -3.918  -0.044 129.643  0.00  0.00    +0.000 OA
ATOM      8  H   UNL     1      -3.753  -0.878 130.108  0.00  0.00    +0.000 HD
ENDBRANCH   6   7
BRANCH   5   9
ATOM      9  O   UNL     1      -4.395  -0.193 132.602  0.00  0.00    +0.000 OA
ATOM     10  H   UNL     1      -3.460  -0.395 132.760  0.00  0.00    +0.000 HD
ENDBRANCH   5   9
BRANCH   4  11
ATOM     11  O   UNL     1      -4.978   2.563 133.478  0.00  0.00    +0.000 OA
ATOM     12  H   UNL     1      -5.677   2.854 134.087  0.00  0.00    +0.000 HD
ENDBRANCH   4  11
BRANCH   3  13
ATOM     13  O   UNL     1      -7.230   3.607 131.880  0.00  0.00    +0.000 OA
BRANCH  13  14
ATOM     14  C   UNL     1      -7.693   4.786 131.340  0.00  0.00    +0.000 A 
ATOM     15  C   UNL     1      -7.103   6.021 131.096  0.00  0.00    +0.000 A 
ATOM     16  O   UNL     1      -7.863   7.057 130.564  0.00  0.00    +0.000 OA
ATOM     17  C   UNL     1      -9.153   6.855 130.164  0.00  0.00    +0.000 A 
ATOM     18  C   UNL     1      -9.761   7.961 129.575  0.00  0.00    +0.000 A 
ATOM     19  C   UNL     1     -11.060   7.854 129.098  0.00  0.00    +0.000 A 
ATOM     20  C   UNL     1     -11.768   6.663 129.217  0.00  0.00    +0.000 A 
ATOM     21  C   UNL     1     -11.166   5.563 129.822  0.00  0.00    +0.000 A 
ATOM     22  C   UNL     1      -9.846   5.657 130.296  0.00  0.00    +0.000 A 
ATOM     23  C   UNL     1      -9.125   4.564 130.919  0.00  0.00    +0.000 A 
ATOM     24  O   UNL     1      -9.664   3.440 131.084  0.00  0.00    +0.000 OA
BRANCH  15  25
ATOM     25  C   UNL     1      -5.681   6.634 131.320  0.00  0.00    +0.000 A 
ATOM     26  C   UNL     1      -4.977   6.390 132.495  0.00  0.00    +0.000 A 
ATOM     27  C   UNL     1      -3.632   6.858 132.702  0.00  0.00    +0.000 A 
ATOM     28  C   UNL     1      -2.861   7.374 131.688  0.00  0.00    +0.000 A 
ATOM     29  C   UNL     1      -3.575   7.881 130.628  0.00  0.00    +0.000 A 
ATOM     30  C   UNL     1      -5.006   7.579 130.504  0.00  0.00    +0.000 A 
BRANCH  28  31
ATOM     31  O   UNL     1      -1.529   7.036 131.512  0.00  0.00    +0.000 OA
ATOM     32  H   UNL     1      -1.067   7.739 131.009  0.00  0.00    +0.000 HD
ENDBRANCH  28  31
BRANCH  27  33
ATOM     33  O   UNL     1      -3.012   6.630 133.891  0.00  0.00    +0.000 OA
ATOM     34  H   UNL     1      -3.380   7.322 134.460  0.00  0.00    +0.000 HD
ENDBRANCH  27  33
ENDBRANCH  15  25
BRANCH  21  35
ATOM     35  O   UNL     1     -11.882   4.404 129.936  0.00  0.00    +0.000 OA
ATOM     36  H   UNL     1     -11.625   3.766 129.253  0.00  0.00    +0.000 HD
ENDBRANCH  21  35
BRANCH  19  37
ATOM     37  O   UNL     1     -11.684   8.903 128.495  0.00  0.00    +0.000 OA
ATOM     38  H   UNL     1     -11.054   9.361 127.914  0.00  0.00    +0.000 HD
ENDBRANCH  19  37
ENDBRANCH  13  14
ENDBRANCH   3  13
BRANCH   1  39
ATOM     39  C   UNL     1      -6.199   1.258 128.059  0.00  0.00    +0.000 C 
BRANCH  39  40
ATOM     40  O   UNL     1      -6.652   1.927 126.889  0.00  0.00    +0.000 OA
BRANCH  40  44
ATOM     41  C   UNL     1      -9.789   1.664 124.049  0.00  0.00    +0.000 C 
ATOM     42  C   UNL     1      -8.692   2.386 124.785  0.00  0.00    +0.000 C 
ATOM     43  O   UNL     1      -8.949   2.281 126.170  0.00  0.00    +0.000 OA
ATOM     44  C   UNL     1      -7.878   2.723 126.989  0.00  0.00    +0.000 C 
ATOM     45  C   UNL     1      -7.525   4.210 126.797  0.00  0.00    +0.000 C 
ATOM     46  C   UNL     1      -7.062   4.335 125.355  0.00  0.00    +0.000 C 
ATOM     47  C   UNL     1      -8.137   3.755 124.374  0.00  0.00    +0.000 C 
BRANCH  47  48
ATOM     48  O   UNL     1      -7.572   3.631 123.068  0.00  0.00    +0.000 OA
ATOM     49  H   UNL     1      -7.738   4.459 122.580  0.00  0.00    +0.000 HD
ENDBRANCH  47  48
BRANCH  46  50
ATOM     50  O   UNL     1      -6.768   5.695 125.042  0.00  0.00    +0.000 OA
ATOM     51  H   UNL     1      -6.102   5.990 125.687  0.00  0.00    +0.000 HD
ENDBRANCH  46  50
BRANCH  45  52
ATOM     52  O   UNL     1      -8.606   5.114 127.060  0.00  0.00    +0.000 OA
ATOM     53  H   UNL     1      -8.823   5.084 128.007  0.00  0.00    +0.000 HD
ENDBRANCH  45  52
ENDBRANCH  40  44
ENDBRANCH  39  40
ENDBRANCH   1  39
TORSDOF 16
ENDMDL
MODEL 8
REMARK VINA RESULT:      -8.4      3.026      8.791
REMARK  Name = Rutin
REMARK  17 active torsions:
REMARK  status: ('A' for Active; 'I' for Inactive)
REMARK    1  A    between atoms: C_1  and  C_2
REMARK    2  A    between atoms: C_4  and  O_5
REMARK    3  A    between atoms: O_5  and  C_6
REMARK    4  A    between atoms: C_6  and  C_7
REMARK    5  A    between atoms: C_9  and  O_10
REMARK    6  A    between atoms: O_10  and  C_11
REMARK    7  A    between atoms: C_12  and  C_24
REMARK    8  A    between atoms: C_16  and  O_17
REMARK    9  A    between atoms: C_19  and  O_20
REMARK   10  A    between atoms: C_26  and  O_27
REMARK   11  A    between atoms: C_28  and  O_29
REMARK   12  A    between atoms: C_32  and  O_33
REMARK   13  A    between atoms: C_34  and  O_35
REMARK   14  A    between atoms: C_36  and  O_37
REMARK   15  A    between atoms: C_38  and  O_39
REMARK   16  A    between atoms: C_40  and  O_41
REMARK   17  A    between atoms: C_42  and  O_43
REMARK                            x       y       z     vdW  Elec       q    Type
REMARK                         _______ _______ _______ _____ _____    ______ ____
ROOT
ATOM      1  C   UNL     1      -8.075   1.709 127.147  0.00  0.00    +0.000 C 
ATOM      2  O   UNL     1      -7.411   2.690 127.895  0.00  0.00    +0.000 OA
ATOM      3  C   UNL     1      -7.968   3.977 127.714  0.00  0.00    +0.000 C 
ATOM      4  C   UNL     1      -8.015   4.567 126.294  0.00  0.00    +0.000 C 
ATOM      5  C   UNL     1      -8.511   3.535 125.295  0.00  0.00    +0.000 C 
ATOM      6  C   UNL     1      -8.144   2.088 125.686  0.00  0.00    +0.000 C 
ENDROOT
BRANCH   6   7
ATOM      7  O   UNL     1      -8.879   1.189 124.879  0.00  0.00    +0.000 OA
ATOM      8  H   UNL     1      -9.097   0.385 125.376  0.00  0.00    +0.000 HD
ENDBRANCH   6   7
BRANCH   5   9
ATOM      9  O   UNL     1      -8.293   3.974 123.928  0.00  0.00    +0.000 OA
ATOM     10  H   UNL     1      -9.088   4.162 123.406  0.00  0.00    +0.000 HD
ENDBRANCH   5   9
BRANCH   4  11
ATOM     11  O   UNL     1      -8.822   5.751 126.221  0.00  0.00    +0.000 OA
ATOM     12  H   UNL     1      -9.537   5.578 125.585  0.00  0.00    +0.000 HD
ENDBRANCH   4  11
BRANCH   3  13
ATOM     13  O   UNL     1      -7.217   4.831 128.521  0.00  0.00    +0.000 OA
BRANCH  13  14
ATOM     14  C   UNL     1      -7.607   5.129 129.809  0.00  0.00    +0.000 A 
ATOM     15  C   UNL     1      -8.755   5.697 130.352  0.00  0.00    +0.000 A 
ATOM     16  O   UNL     1      -8.836   5.912 131.723  0.00  0.00    +0.000 OA
ATOM     17  C   UNL     1      -7.859   5.470 132.569  0.00  0.00    +0.000 A 
ATOM     18  C   UNL     1      -8.117   5.683 133.920  0.00  0.00    +0.000 A 
ATOM     19  C   UNL     1      -7.206   5.238 134.868  0.00  0.00    +0.000 A 
ATOM     20  C   UNL     1      -6.031   4.598 134.486  0.00  0.00    +0.000 A 
ATOM     21  C   UNL     1      -5.766   4.401 133.133  0.00  0.00    +0.000 A 
ATOM     22  C   UNL     1      -6.689   4.835 132.165  0.00  0.00    +0.000 A 
ATOM     23  C   UNL     1      -6.515   4.658 130.737  0.00  0.00    +0.000 A 
ATOM     24  O   UNL     1      -5.490   4.096 130.272  0.00  0.00    +0.000 OA
BRANCH  15  25
ATOM     25  C   UNL     1     -10.097   6.252 129.772  0.00  0.00    +0.000 A 
ATOM     26  C   UNL     1     -10.117   7.420 129.015  0.00  0.00    +0.000 A 
ATOM     27  C   UNL     1     -11.314   7.915 128.389  0.00  0.00    +0.000 A 
ATOM     28  C   UNL     1     -12.465   7.169 128.293  0.00  0.00    +0.000 A 
ATOM     29  C   UNL     1     -12.582   6.174 129.236  0.00  0.00    +0.000 A 
ATOM     30  C   UNL     1     -11.412   5.787 130.033  0.00  0.00    +0.000 A 
BRANCH  28  31
ATOM     31  O   UNL     1     -13.220   7.100 127.134  0.00  0.00    +0.000 OA
ATOM     32  H   UNL     1     -13.991   7.702 127.198  0.00  0.00    +0.000 HD
ENDBRANCH  28  31
BRANCH  27  33
ATOM     33  O   UNL     1     -11.282   9.087 127.701  0.00  0.00    +0.000 OA
ATOM     34  H   UNL     1     -11.510   8.813 126.800  0.00  0.00    +0.000 HD
ENDBRANCH  27  33
ENDBRANCH  15  25
BRANCH  21  35
ATOM     35  O   UNL     1      -4.603   3.778 132.777  0.00  0.00    +0.000 OA
ATOM     36  H   UNL     1      -4.605   3.544 131.836  0.00  0.00    +0.000 HD
ENDBRANCH  21  35
BRANCH  19  37
ATOM     37  O   UNL     1      -7.428   5.405 136.201  0.00  0.00    +0.000 OA
ATOM     38  H   UNL     1      -8.236   5.930 136.329  0.00  0.00    +0.000 HD
ENDBRANCH  19  37
ENDBRANCH  13  14
ENDBRANCH   3  13
BRANCH   1  39
ATOM     39  C   UNL     1      -7.349   0.368 127.407  0.00  0.00    +0.000 C 
BRANCH  39  40
ATOM     40  O   UNL     1      -6.680  -0.554 126.556  0.00  0.00    +0.000 OA
BRANCH  40  44
ATOM     41  C   UNL     1      -5.258  -3.609 123.982  0.00  0.00    +0.000 C 
ATOM     42  C   UNL     1      -6.329  -2.884 124.755  0.00  0.00    +0.000 C 
ATOM     43  O   UNL     1      -5.930  -2.824 126.109  0.00  0.00    +0.000 OA
ATOM     44  C   UNL     1      -6.736  -1.974 126.909  0.00  0.00    +0.000 C 
ATOM     45  C   UNL     1      -8.211  -2.412 126.984  0.00  0.00    +0.000 C 
ATOM     46  C   UNL     1      -8.737  -2.314 125.562  0.00  0.00    +0.000 C 
ATOM     47  C   UNL     1      -7.832  -3.128 124.576  0.00  0.00    +0.000 C 
BRANCH  47  48
ATOM     48  O   UNL     1      -8.178  -2.800 123.230  0.00  0.00    +0.000 OA
ATOM     49  H   UNL     1      -7.803  -1.925 123.020  0.00  0.00    +0.000 HD
ENDBRANCH  47  48
BRANCH  46  50
ATOM     50  O   UNL     1     -10.090  -2.762 125.499  0.00  0.00    +0.000 OA
ATOM     51  H   UNL     1     -10.057  -3.724 125.355  0.00  0.00    +0.000 HD
ENDBRANCH  46  50
BRANCH  45  52
ATOM     52  O   UNL     1      -8.411  -3.732 127.506  0.00  0.00    +0.000 OA
ATOM     53  H   UNL     1      -8.923  -4.254 126.865  0.00  0.00    +0.000 HD
ENDBRANCH  45  52
ENDBRANCH  40  44
ENDBRANCH  39  40
ENDBRANCH   1  39
TORSDOF 16
ENDMDL
MODEL 9
REMARK VINA RESULT:      -8.3      2.611      7.995
REMARK  Name = Rutin
REMARK  17 active torsions:
REMARK  status: ('A' for Active; 'I' for Inactive)
REMARK    1  A    between atoms: C_1  and  C_2
REMARK    2  A    between atoms: C_4  and  O_5
REMARK    3  A    between atoms: O_5  and  C_6
REMARK    4  A    between atoms: C_6  and  C_7
REMARK    5  A    between atoms: C_9  and  O_10
REMARK    6  A    between atoms: O_10  and  C_11
REMARK    7  A    between atoms: C_12  and  C_24
REMARK    8  A    between atoms: C_16  and  O_17
REMARK    9  A    between atoms: C_19  and  O_20
REMARK   10  A    between atoms: C_26  and  O_27
REMARK   11  A    between atoms: C_28  and  O_29
REMARK   12  A    between atoms: C_32  and  O_33
REMARK   13  A    between atoms: C_34  and  O_35
REMARK   14  A    between atoms: C_36  and  O_37
REMARK   15  A    between atoms: C_38  and  O_39
REMARK   16  A    between atoms: C_40  and  O_41
REMARK   17  A    between atoms: C_42  and  O_43
REMARK                            x       y       z     vdW  Elec       q    Type
REMARK                         _______ _______ _______ _____ _____    ______ ____
ROOT
ATOM      1  C   UNL     1      -5.536   1.315 128.624  0.00  0.00    +0.000 C 
ATOM      2  O   UNL     1      -6.875   1.715 128.722  0.00  0.00    +0.000 OA
ATOM      3  C   UNL     1      -7.134   2.451 129.901  0.00  0.00    +0.000 C 
ATOM      4  C   UNL     1      -6.847   1.789 131.261  0.00  0.00    +0.000 C 
ATOM      5  C   UNL     1      -5.495   1.097 131.251  0.00  0.00    +0.000 C 
ATOM      6  C   UNL     1      -5.097   0.564 129.858  0.00  0.00    +0.000 C 
ENDROOT
BRANCH   6   7
ATOM      7  O   UNL     1      -3.729   0.204 129.873  0.00  0.00    +0.000 OA
ATOM      8  H   UNL     1      -3.430  -0.034 128.982  0.00  0.00    +0.000 HD
ENDBRANCH   6   7
BRANCH   5   9
ATOM      9  O   UNL     1      -5.333   0.236 132.409  0.00  0.00    +0.000 OA
ATOM     10  H   UNL     1      -4.711  -0.502 132.312  0.00  0.00    +0.000 HD
ENDBRANCH   5   9
BRANCH   4  11
ATOM     11  O   UNL     1      -6.914   2.724 132.347  0.00  0.00    +0.000 OA
ATOM     12  H   UNL     1      -7.201   2.234 133.136  0.00  0.00    +0.000 HD
ENDBRANCH   4  11
BRANCH   3  13
ATOM     13  O   UNL     1      -8.487   2.784 129.850  0.00  0.00    +0.000 OA
BRANCH  13  14
ATOM     14  C   UNL     1      -8.911   3.987 129.329  0.00  0.00    +0.000 A 
ATOM     15  C   UNL     1      -8.640   4.662 128.144  0.00  0.00    +0.000 A 
ATOM     16  O   UNL     1      -9.204   5.913 127.918  0.00  0.00    +0.000 OA
ATOM     17  C   UNL     1     -10.116   6.446 128.784  0.00  0.00    +0.000 A 
ATOM     18  C   UNL     1     -10.656   7.665 128.384  0.00  0.00    +0.000 A 
ATOM     19  C   UNL     1     -11.622   8.276 129.173  0.00  0.00    +0.000 A 
ATOM     20  C   UNL     1     -12.043   7.696 130.364  0.00  0.00    +0.000 A 
ATOM     21  C   UNL     1     -11.489   6.485 130.772  0.00  0.00    +0.000 A 
ATOM     22  C   UNL     1     -10.521   5.851 129.973  0.00  0.00    +0.000 A 
ATOM     23  C   UNL     1      -9.902   4.581 130.299  0.00  0.00    +0.000 A 
ATOM     24  O   UNL     1     -10.201   3.964 131.354  0.00  0.00    +0.000 OA
BRANCH  15  25
ATOM     25  C   UNL     1      -7.748   4.385 126.889  0.00  0.00    +0.000 A 
ATOM     26  C   UNL     1      -8.325   4.062 125.664  0.00  0.00    +0.000 A 
ATOM     27  C   UNL     1      -7.547   3.889 124.466  0.00  0.00    +0.000 A 
ATOM     28  C   UNL     1      -6.223   4.249 124.381  0.00  0.00    +0.000 A 
ATOM     29  C   UNL     1      -5.565   4.297 125.588  0.00  0.00    +0.000 A 
ATOM     30  C   UNL     1      -6.335   4.272 126.837  0.00  0.00    +0.000 A 
BRANCH  28  31
ATOM     31  O   UNL     1      -5.698   4.926 123.292  0.00  0.00    +0.000 OA
ATOM     32  H   UNL     1      -6.032   4.533 122.458  0.00  0.00    +0.000 HD
ENDBRANCH  28  31
BRANCH  27  33
ATOM     33  O   UNL     1      -8.161   3.526 123.308  0.00  0.00    +0.000 OA
ATOM     34  H   UNL     1      -8.373   4.379 122.902  0.00  0.00    +0.000 HD
ENDBRANCH  27  33
ENDBRANCH  15  25
BRANCH  21  35
ATOM     35  O   UNL     1     -11.910   5.936 131.950  0.00  0.00    +0.000 OA
ATOM     36  H   UNL     1     -12.189   5.016 131.827  0.00  0.00    +0.000 HD
ENDBRANCH  21  35
BRANCH  19  37
ATOM     37  O   UNL     1     -12.193   9.457 128.809  0.00  0.00    +0.000 OA
ATOM     38  H   UNL     1     -12.830   9.299 128.092  0.00  0.00    +0.000 HD
ENDBRANCH  19  37
ENDBRANCH  13  14
ENDBRANCH   3  13
BRANCH   1  39
ATOM     39  C   UNL     1      -5.400   0.497 127.317  0.00  0.00    +0.000 C 
BRANCH  39  40
ATOM     40  O   UNL     1      -6.175  -0.547 126.741  0.00  0.00    +0.000 OA
BRANCH  40  44
ATOM     41  C   UNL     1      -9.497  -3.128 126.217  0.00  0.00    +0.000 C 
ATOM     42  C   UNL     1      -8.322  -2.324 125.727  0.00  0.00    +0.000 C 
ATOM     43  O   UNL     1      -8.493  -0.988 126.155  0.00  0.00    +0.000 OA
ATOM     44  C   UNL     1      -7.352  -0.169 125.956  0.00  0.00    +0.000 C 
ATOM     45  C   UNL     1      -6.943  -0.027 124.478  0.00  0.00    +0.000 C 
ATOM     46  C   UNL     1      -6.569  -1.428 124.023  0.00  0.00    +0.000 C 
ATOM     47  C   UNL     1      -7.731  -2.437 124.317  0.00  0.00    +0.000 C 
BRANCH  47  48
ATOM     48  O   UNL     1      -7.258  -3.773 124.139  0.00  0.00    +0.000 OA
ATOM     49  H   UNL     1      -7.985  -4.312 123.776  0.00  0.00    +0.000 HD
ENDBRANCH  47  48
BRANCH  46  50
ATOM     50  O   UNL     1      -6.232  -1.429 122.637  0.00  0.00    +0.000 OA
ATOM     51  H   UNL     1      -6.807  -2.088 122.212  0.00  0.00    +0.000 HD
ENDBRANCH  46  50
BRANCH  45  52
ATOM     52  O   UNL     1      -7.961   0.523 123.631  0.00  0.00    +0.000 OA
ATOM     53  H   UNL     1      -7.961   0.047 122.783  0.00  0.00    +0.000 HD
ENDBRANCH  45  52
ENDBRANCH  40  44
ENDBRANCH  39  40
ENDBRANCH   1  39
TORSDOF 16
ENDMDL
