MODEL 1
REMARK VINA RESULT:      -6.9      0.000      0.000
REMARK  Name = Ruxolitinib
REMARK  5 active torsions:
REMARK  status: ('A' for Active; 'I' for Inactive)
REMARK    1  A    between atoms: C_2  and  C_3
REMARK    2  A    between atoms: C_3  and  C_4
REMARK    3  A    between atoms: C_4  and  C_5
REMARK    4  A    between atoms: C_4  and  N_10
REMARK    5  A    between atoms: C_12  and  C_15
REMARK                            x       y       z     vdW  Elec       q    Type
REMARK                         _______ _______ _______ _____ _____    ______ ____
ROOT
ATOM      1  N   UNL     1      -7.040  -0.406 125.757  0.00  0.00    +0.000 N 
ATOM      2  C   UNL     1      -7.901   0.638 125.531  0.00  0.00    +0.000 A 
ATOM      3  C   UNL     1      -7.168   1.783 125.247  0.00  0.00    +0.000 A 
ATOM      4  C   UNL     1      -5.842   1.338 125.644  0.00  0.00    +0.000 A 
ATOM      5  N   UNL     1      -5.763   0.015 125.906  0.00  0.00    +0.000 NA
ENDROOT
BRANCH   3   6
ATOM      6  C   UNL     1      -7.406   2.504 123.910  0.00  0.00    +0.000 A 
ATOM      7  C   UNL     1      -6.410   2.966 122.964  0.00  0.00    +0.000 A 
ATOM      8  C   UNL     1      -6.471   3.233 121.523  0.00  0.00    +0.000 A 
ATOM      9  C   UNL     1      -5.592   4.259 121.197  0.00  0.00    +0.000 A 
ATOM     10  N   UNL     1      -5.037   4.697 122.373  0.00  0.00    +0.000 N 
ATOM     11  C   UNL     1      -5.729   4.115 123.393  0.00  0.00    +0.000 A 
ATOM     12  N   UNL     1      -5.969   4.774 124.533  0.00  0.00    +0.000 NA
ATOM     13  C   UNL     1      -7.243   4.504 124.898  0.00  0.00    +0.000 A 
ATOM     14  N   UNL     1      -8.085   3.609 124.337  0.00  0.00    +0.000 NA
ATOM     15  H   UNL     1      -4.498   5.542 122.507  0.00  0.00    +0.000 HD
ENDBRANCH   3   6
BRANCH   1  16
ATOM     16  C   UNL     1      -7.476  -1.794 125.954  0.00  0.00    +0.000 C 
BRANCH  16  17
ATOM     17  C   UNL     1      -7.230  -2.596 124.655  0.00  0.00    +0.000 C 
ATOM     18  C   UNL     1      -7.387  -1.918 123.280  0.00  0.00    +0.000 C 
ATOM     19  C   UNL     1      -8.847  -1.998 122.888  0.00  0.00    +0.000 C 
ATOM     20  C   UNL     1      -9.378  -3.216 123.623  0.00  0.00    +0.000 C 
ATOM     21  C   UNL     1      -8.242  -3.737 124.521  0.00  0.00    +0.000 C 
ENDBRANCH  16  17
BRANCH  16  22
ATOM     22  C   UNL     1      -6.906  -2.543 127.209  0.00  0.00    +0.000 C 
BRANCH  22  24
ATOM     23  N   UNL     1      -8.700  -3.334 128.960  0.00  0.00    +0.000 NA
ATOM     24  C   UNL     1      -7.918  -2.971 128.204  0.00  0.00    +0.000 C 
ENDBRANCH  22  24
ENDBRANCH  16  22
ENDBRANCH   1  16
TORSDOF 5
ENDMDL
MODEL 2
REMARK VINA RESULT:      -6.9      3.435      7.673
REMARK  Name = Ruxolitinib
REMARK  5 active torsions:
REMARK  status: ('A' for Active; 'I' for Inactive)
REMARK    1  A    between atoms: C_2  and  C_3
REMARK    2  A    between atoms: C_3  and  C_4
REMARK    3  A    between atoms: C_4  and  C_5
REMARK    4  A    between atoms: C_4  and  N_10
REMARK    5  A    between atoms: C_12  and  C_15
REMARK                            x       y       z     vdW  Elec       q    Type
REMARK                         _______ _______ _______ _____ _____    ______ ____
ROOT
ATOM      1  N   UNL     1      -8.049  -2.313 126.768  0.00  0.00    +0.000 N 
ATOM      2  C   UNL     1      -7.451  -1.815 127.897  0.00  0.00    +0.000 A 
ATOM      3  C   UNL     1      -7.613  -2.720 128.939  0.00  0.00    +0.000 A 
ATOM      4  C   UNL     1      -8.613  -3.599 128.354  0.00  0.00    +0.000 A 
ATOM      5  N   UNL     1      -8.838  -3.378 127.041  0.00  0.00    +0.000 NA
ENDROOT
BRANCH   3   6
ATOM      6  C   UNL     1      -6.363  -3.279 129.638  0.00  0.00    +0.000 A 
ATOM      7  C   UNL     1      -6.310  -4.125 130.813  0.00  0.00    +0.000 A 
ATOM      8  C   UNL     1      -5.298  -5.068 131.301  0.00  0.00    +0.000 A 
ATOM      9  C   UNL     1      -5.315  -5.098 132.692  0.00  0.00    +0.000 A 
ATOM     10  N   UNL     1      -6.238  -4.168 133.098  0.00  0.00    +0.000 N 
ATOM     11  C   UNL     1      -6.594  -3.439 132.003  0.00  0.00    +0.000 A 
ATOM     12  N   UNL     1      -6.854  -2.129 132.096  0.00  0.00    +0.000 NA
ATOM     13  C   UNL     1      -6.290  -1.527 131.025  0.00  0.00    +0.000 A 
ATOM     14  N   UNL     1      -5.715  -2.121 129.957  0.00  0.00    +0.000 NA
ATOM     15  H   UNL     1      -6.365  -3.817 134.038  0.00  0.00    +0.000 HD
ENDBRANCH   3   6
BRANCH   1  16
ATOM     16  C   UNL     1      -7.955  -1.677 125.447  0.00  0.00    +0.000 C 
BRANCH  16  17
ATOM     17  C   UNL     1      -7.749  -2.766 124.369  0.00  0.00    +0.000 C 
ATOM     18  C   UNL     1      -6.411  -3.524 124.274  0.00  0.00    +0.000 C 
ATOM     19  C   UNL     1      -5.470  -2.700 123.422  0.00  0.00    +0.000 C 
ATOM     20  C   UNL     1      -6.380  -1.882 122.523  0.00  0.00    +0.000 C 
ATOM     21  C   UNL     1      -7.828  -2.162 122.965  0.00  0.00    +0.000 C 
ENDBRANCH  16  17
BRANCH  16  22
ATOM     22  C   UNL     1      -9.107  -0.688 125.055  0.00  0.00    +0.000 C 
BRANCH  22  24
ATOM     23  N   UNL     1      -9.110   1.574 126.393  0.00  0.00    +0.000 NA
ATOM     24  C   UNL     1      -9.122   0.594 125.797  0.00  0.00    +0.000 C 
ENDBRANCH  22  24
ENDBRANCH  16  22
ENDBRANCH   1  16
TORSDOF 5
ENDMDL
MODEL 3
REMARK VINA RESULT:      -6.8      7.403      9.361
REMARK  Name = Ruxolitinib
REMARK  5 active torsions:
REMARK  status: ('A' for Active; 'I' for Inactive)
REMARK    1  A    between atoms: C_2  and  C_3
REMARK    2  A    between atoms: C_3  and  C_4
REMARK    3  A    between atoms: C_4  and  C_5
REMARK    4  A    between atoms: C_4  and  N_10
REMARK    5  A    between atoms: C_12  and  C_15
REMARK                            x       y       z     vdW  Elec       q    Type
REMARK                         _______ _______ _______ _____ _____    ______ ____
ROOT
ATOM      1  N   UNL     1      -6.347   5.770 130.618  0.00  0.00    +0.000 N 
ATOM      2  C   UNL     1      -7.437   5.089 130.140  0.00  0.00    +0.000 A 
ATOM      3  C   UNL     1      -8.596   5.760 130.511  0.00  0.00    +0.000 A 
ATOM      4  C   UNL     1      -8.048   6.685 131.489  0.00  0.00    +0.000 A 
ATOM      5  N   UNL     1      -6.698   6.718 131.518  0.00  0.00    +0.000 NA
ENDROOT
BRANCH   3   6
ATOM      6  C   UNL     1      -9.564   6.232 129.413  0.00  0.00    +0.000 A 
ATOM      7  C   UNL     1     -10.375   7.433 129.405  0.00  0.00    +0.000 A 
ATOM      8  C   UNL     1     -10.956   8.220 128.312  0.00  0.00    +0.000 A 
ATOM      9  C   UNL     1     -12.150   8.798 128.732  0.00  0.00    +0.000 A 
ATOM     10  N   UNL     1     -12.380   8.353 130.010  0.00  0.00    +0.000 N 
ATOM     11  C   UNL     1     -11.481   7.361 130.265  0.00  0.00    +0.000 A 
ATOM     12  N   UNL     1     -11.815   6.296 131.005  0.00  0.00    +0.000 NA
ATOM     13  C   UNL     1     -11.281   5.205 130.411  0.00  0.00    +0.000 A 
ATOM     14  N   UNL     1     -10.426   5.175 129.366  0.00  0.00    +0.000 NA
ATOM     15  H   UNL     1     -13.241   8.441 130.532  0.00  0.00    +0.000 HD
ENDBRANCH   3   6
BRANCH   1  16
ATOM     16  C   UNL     1      -4.959   5.414 130.299  0.00  0.00    +0.000 C 
BRANCH  16  17
ATOM     17  C   UNL     1      -4.072   6.677 130.396  0.00  0.00    +0.000 C 
ATOM     18  C   UNL     1      -3.936   7.628 129.192  0.00  0.00    +0.000 C 
ATOM     19  C   UNL     1      -2.835   7.093 128.301  0.00  0.00    +0.000 C 
ATOM     20  C   UNL     1      -1.934   6.303 129.234  0.00  0.00    +0.000 C 
ATOM     21  C   UNL     1      -2.606   6.295 130.618  0.00  0.00    +0.000 C 
ENDBRANCH  16  17
BRANCH  16  22
ATOM     22  C   UNL     1      -4.337   4.211 131.090  0.00  0.00    +0.000 C 
BRANCH  22  24
ATOM     23  N   UNL     1      -4.156   1.971 129.725  0.00  0.00    +0.000 NA
ATOM     24  C   UNL     1      -4.242   2.938 130.336  0.00  0.00    +0.000 C 
ENDBRANCH  22  24
ENDBRANCH  16  22
ENDBRANCH   1  16
TORSDOF 5
ENDMDL
MODEL 4
REMARK VINA RESULT:      -6.6      2.070      2.864
REMARK  Name = Ruxolitinib
REMARK  5 active torsions:
REMARK  status: ('A' for Active; 'I' for Inactive)
REMARK    1  A    between atoms: C_2  and  C_3
REMARK    2  A    between atoms: C_3  and  C_4
REMARK    3  A    between atoms: C_4  and  C_5
REMARK    4  A    between atoms: C_4  and  N_10
REMARK    5  A    between atoms: C_12  and  C_15
REMARK                            x       y       z     vdW  Elec       q    Type
REMARK                         _______ _______ _______ _____ _____    ______ ____
ROOT
ATOM      1  N   UNL     1      -7.374   0.317 128.224  0.00  0.00    +0.000 N 
ATOM      2  C   UNL     1      -8.197   1.275 127.688  0.00  0.00    +0.000 A 
ATOM      3  C   UNL     1      -7.430   2.198 126.987  0.00  0.00    +0.000 A 
ATOM      4  C   UNL     1      -6.103   1.827 127.453  0.00  0.00    +0.000 A 
ATOM      5  N   UNL     1      -6.071   0.675 128.157  0.00  0.00    +0.000 NA
ENDROOT
BRANCH   3   6
ATOM      6  C   UNL     1      -7.723   2.426 125.495  0.00  0.00    +0.000 A 
ATOM      7  C   UNL     1      -6.784   2.800 124.456  0.00  0.00    +0.000 A 
ATOM      8  C   UNL     1      -6.803   2.614 123.002  0.00  0.00    +0.000 A 
ATOM      9  C   UNL     1      -6.139   3.668 122.385  0.00  0.00    +0.000 A 
ATOM     10  N   UNL     1      -5.769   4.541 123.376  0.00  0.00    +0.000 N 
ATOM     11  C   UNL     1      -6.391   4.144 124.522  0.00  0.00    +0.000 A 
ATOM     12  N   UNL     1      -6.841   5.038 125.412  0.00  0.00    +0.000 NA
ATOM     13  C   UNL     1      -8.051   4.611 125.839  0.00  0.00    +0.000 A 
ATOM     14  N   UNL     1      -8.646   3.429 125.571  0.00  0.00    +0.000 NA
ATOM     15  H   UNL     1      -5.430   5.485 123.252  0.00  0.00    +0.000 HD
ENDBRANCH   3   6
BRANCH   1  16
ATOM     16  C   UNL     1      -7.862  -0.884 128.914  0.00  0.00    +0.000 C 
BRANCH  16  17
ATOM     17  C   UNL     1      -7.265  -2.140 128.237  0.00  0.00    +0.000 C 
ATOM     18  C   UNL     1      -7.594  -2.463 126.767  0.00  0.00    +0.000 C 
ATOM     19  C   UNL     1      -8.894  -3.238 126.742  0.00  0.00    +0.000 C 
ATOM     20  C   UNL     1      -8.964  -3.916 128.099  0.00  0.00    +0.000 C 
ATOM     21  C   UNL     1      -7.764  -3.415 128.922  0.00  0.00    +0.000 C 
ENDBRANCH  16  17
BRANCH  16  22
ATOM     22  C   UNL     1      -7.681  -0.928 130.471  0.00  0.00    +0.000 C 
BRANCH  22  24
ATOM     23  N   UNL     1      -9.504   0.399 131.823  0.00  0.00    +0.000 NA
ATOM     24  C   UNL     1      -8.705  -0.191 131.248  0.00  0.00    +0.000 C 
ENDBRANCH  22  24
ENDBRANCH  16  22
ENDBRANCH   1  16
TORSDOF 5
ENDMDL
MODEL 5
REMARK VINA RESULT:      -6.5      4.099      7.967
REMARK  Name = Ruxolitinib
REMARK  5 active torsions:
REMARK  status: ('A' for Active; 'I' for Inactive)
REMARK    1  A    between atoms: C_2  and  C_3
REMARK    2  A    between atoms: C_3  and  C_4
REMARK    3  A    between atoms: C_4  and  C_5
REMARK    4  A    between atoms: C_4  and  N_10
REMARK    5  A    between atoms: C_12  and  C_15
REMARK                            x       y       z     vdW  Elec       q    Type
REMARK                         _______ _______ _______ _____ _____    ______ ____
ROOT
ATOM      1  N   UNL     1      -7.775  -2.714 127.276  0.00  0.00    +0.000 N 
ATOM      2  C   UNL     1      -6.897  -2.121 128.147  0.00  0.00    +0.000 A 
ATOM      3  C   UNL     1      -7.108  -2.624 129.425  0.00  0.00    +0.000 A 
ATOM      4  C   UNL     1      -8.377  -3.305 129.220  0.00  0.00    +0.000 A 
ATOM      5  N   UNL     1      -8.748  -3.394 127.925  0.00  0.00    +0.000 NA
ENDROOT
BRANCH   3   6
ATOM      6  C   UNL     1      -5.940  -3.305 130.157  0.00  0.00    +0.000 A 
ATOM      7  C   UNL     1      -6.006  -4.165 131.321  0.00  0.00    +0.000 A 
ATOM      8  C   UNL     1      -5.103  -5.203 131.829  0.00  0.00    +0.000 A 
ATOM      9  C   UNL     1      -5.171  -5.247 133.218  0.00  0.00    +0.000 A 
ATOM     10  N   UNL     1      -6.018  -4.240 133.607  0.00  0.00    +0.000 N 
ATOM     11  C   UNL     1      -6.267  -3.469 132.511  0.00  0.00    +0.000 A 
ATOM     12  N   UNL     1      -6.407  -2.142 132.614  0.00  0.00    +0.000 NA
ATOM     13  C   UNL     1      -5.753  -1.582 131.571  0.00  0.00    +0.000 A 
ATOM     14  N   UNL     1      -5.199  -2.215 130.515  0.00  0.00    +0.000 NA
ATOM     15  H   UNL     1      -6.144  -3.889 134.547  0.00  0.00    +0.000 HD
ENDBRANCH   3   6
BRANCH   1  16
ATOM     16  C   UNL     1      -7.741  -2.515 125.822  0.00  0.00    +0.000 C 
BRANCH  16  17
ATOM     17  C   UNL     1      -6.375  -1.911 125.421  0.00  0.00    +0.000 C 
ATOM     18  C   UNL     1      -6.310  -0.656 124.529  0.00  0.00    +0.000 C 
ATOM     19  C   UNL     1      -6.376  -1.110 123.086  0.00  0.00    +0.000 C 
ATOM     20  C   UNL     1      -5.824  -2.524 123.101  0.00  0.00    +0.000 C 
ATOM     21  C   UNL     1      -5.572  -2.899 124.572  0.00  0.00    +0.000 C 
ENDBRANCH  16  17
BRANCH  16  22
ATOM     22  C   UNL     1      -8.108  -3.751 124.930  0.00  0.00    +0.000 C 
BRANCH  22  24
ATOM     23  N   UNL     1     -10.023  -3.367 123.171  0.00  0.00    +0.000 NA
ATOM     24  C   UNL     1      -9.198  -3.525 123.951  0.00  0.00    +0.000 C 
ENDBRANCH  22  24
ENDBRANCH  16  22
ENDBRANCH   1  16
TORSDOF 5
ENDMDL
MODEL 6
REMARK VINA RESULT:      -6.5      4.249      7.832
REMARK  Name = Ruxolitinib
REMARK  5 active torsions:
REMARK  status: ('A' for Active; 'I' for Inactive)
REMARK    1  A    between atoms: C_2  and  C_3
REMARK    2  A    between atoms: C_3  and  C_4
REMARK    3  A    between atoms: C_4  and  C_5
REMARK    4  A    between atoms: C_4  and  N_10
REMARK    5  A    between atoms: C_12  and  C_15
REMARK                            x       y       z     vdW  Elec       q    Type
REMARK                         _______ _______ _______ _____ _____    ______ ____
ROOT
ATOM      1  N   UNL     1      -6.543  -2.340 127.000  0.00  0.00    +0.000 N 
ATOM      2  C   UNL     1      -5.295  -2.433 127.563  0.00  0.00    +0.000 A 
ATOM      3  C   UNL     1      -5.405  -2.320 128.943  0.00  0.00    +0.000 A 
ATOM      4  C   UNL     1      -6.776  -1.847 129.047  0.00  0.00    +0.000 A 
ATOM      5  N   UNL     1      -7.466  -1.903 127.888  0.00  0.00    +0.000 NA
ENDROOT
BRANCH   3   6
ATOM      6  C   UNL     1      -4.880  -3.463 129.826  0.00  0.00    +0.000 A 
ATOM      7  C   UNL     1      -5.394  -3.897 131.110  0.00  0.00    +0.000 A 
ATOM      8  C   UNL     1      -5.314  -5.179 131.819  0.00  0.00    +0.000 A 
ATOM      9  C   UNL     1      -5.300  -4.957 133.192  0.00  0.00    +0.000 A 
ATOM     10  N   UNL     1      -5.294  -3.598 133.375  0.00  0.00    +0.000 N 
ATOM     11  C   UNL     1      -5.076  -3.022 132.159  0.00  0.00    +0.000 A 
ATOM     12  N   UNL     1      -4.341  -1.909 132.040  0.00  0.00    +0.000 NA
ATOM     13  C   UNL     1      -3.554  -2.057 130.951  0.00  0.00    +0.000 A 
ATOM     14  N   UNL     1      -3.596  -3.049 130.036  0.00  0.00    +0.000 NA
ATOM     15  H   UNL     1      -5.106  -3.107 134.240  0.00  0.00    +0.000 HD
ENDBRANCH   3   6
BRANCH   1  16
ATOM     16  C   UNL     1      -6.811  -2.552 125.572  0.00  0.00    +0.000 C 
BRANCH  16  17
ATOM     17  C   UNL     1      -8.183  -1.935 125.213  0.00  0.00    +0.000 C 
ATOM     18  C   UNL     1      -9.426  -2.833 125.067  0.00  0.00    +0.000 C 
ATOM     19  C   UNL     1      -9.450  -3.364 123.649  0.00  0.00    +0.000 C 
ATOM     20  C   UNL     1      -8.693  -2.328 122.837  0.00  0.00    +0.000 C 
ATOM     21  C   UNL     1      -8.141  -1.287 123.826  0.00  0.00    +0.000 C 
ENDBRANCH  16  17
BRANCH  16  22
ATOM     22  C   UNL     1      -5.695  -2.098 124.568  0.00  0.00    +0.000 C 
BRANCH  22  24
ATOM     23  N   UNL     1      -4.380  -4.070 123.432  0.00  0.00    +0.000 NA
ATOM     24  C   UNL     1      -4.946  -3.197 123.914  0.00  0.00    +0.000 C 
ENDBRANCH  22  24
ENDBRANCH  16  22
ENDBRANCH   1  16
TORSDOF 5
ENDMDL
MODEL 7
REMARK VINA RESULT:      -6.3      3.907      6.423
REMARK  Name = Ruxolitinib
REMARK  5 active torsions:
REMARK  status: ('A' for Active; 'I' for Inactive)
REMARK    1  A    between atoms: C_2  and  C_3
REMARK    2  A    between atoms: C_3  and  C_4
REMARK    3  A    between atoms: C_4  and  C_5
REMARK    4  A    between atoms: C_4  and  N_10
REMARK    5  A    between atoms: C_12  and  C_15
REMARK                            x       y       z     vdW  Elec       q    Type
REMARK                         _______ _______ _______ _____ _____    ______ ____
ROOT
ATOM      1  N   UNL     1      -7.424  -2.649 129.488  0.00  0.00    +0.000 N 
ATOM      2  C   UNL     1      -8.063  -3.259 128.439  0.00  0.00    +0.000 A 
ATOM      3  C   UNL     1      -8.056  -2.407 127.341  0.00  0.00    +0.000 A 
ATOM      4  C   UNL     1      -7.635  -1.173 127.983  0.00  0.00    +0.000 A 
ATOM      5  N   UNL     1      -7.216  -1.332 129.257  0.00  0.00    +0.000 NA
ENDROOT
BRANCH   3   6
ATOM      6  C   UNL     1      -7.413  -2.890 126.031  0.00  0.00    +0.000 A 
ATOM      7  C   UNL     1      -6.987  -2.085 124.904  0.00  0.00    +0.000 A 
ATOM      8  C   UNL     1      -5.997  -2.317 123.847  0.00  0.00    +0.000 A 
ATOM      9  C   UNL     1      -6.399  -1.681 122.678  0.00  0.00    +0.000 A 
ATOM     10  N   UNL     1      -7.627  -1.124 122.930  0.00  0.00    +0.000 N 
ATOM     11  C   UNL     1      -8.055  -1.603 124.132  0.00  0.00    +0.000 A 
ATOM     12  N   UNL     1      -9.349  -1.869 124.352  0.00  0.00    +0.000 NA
ATOM     13  C   UNL     1      -9.413  -3.032 125.039  0.00  0.00    +0.000 A 
ATOM     14  N   UNL     1      -8.386  -3.730 125.568  0.00  0.00    +0.000 NA
ATOM     15  H   UNL     1      -8.270  -0.748 122.245  0.00  0.00    +0.000 HD
ENDBRANCH   3   6
BRANCH   1  16
ATOM     16  C   UNL     1      -7.132  -3.316 130.763  0.00  0.00    +0.000 C 
BRANCH  16  17
ATOM     17  C   UNL     1      -6.039  -4.387 130.541  0.00  0.00    +0.000 C 
ATOM     18  C   UNL     1      -5.371  -5.079 131.745  0.00  0.00    +0.000 C 
ATOM     19  C   UNL     1      -4.224  -4.205 132.205  0.00  0.00    +0.000 C 
ATOM     20  C   UNL     1      -3.812  -3.427 130.968  0.00  0.00    +0.000 C 
ATOM     21  C   UNL     1      -4.814  -3.779 129.853  0.00  0.00    +0.000 C 
ENDBRANCH  16  17
BRANCH  16  22
ATOM     22  C   UNL     1      -6.792  -2.391 131.984  0.00  0.00    +0.000 C 
BRANCH  22  24
ATOM     23  N   UNL     1      -8.328  -2.665 134.099  0.00  0.00    +0.000 NA
ATOM     24  C   UNL     1      -7.662  -2.564 133.171  0.00  0.00    +0.000 C 
ENDBRANCH  22  24
ENDBRANCH  16  22
ENDBRANCH   1  16
TORSDOF 5
ENDMDL
MODEL 8
REMARK VINA RESULT:      -6.3      2.024      2.937
REMARK  Name = Ruxolitinib
REMARK  5 active torsions:
REMARK  status: ('A' for Active; 'I' for Inactive)
REMARK    1  A    between atoms: C_2  and  C_3
REMARK    2  A    between atoms: C_3  and  C_4
REMARK    3  A    between atoms: C_4  and  C_5
REMARK    4  A    between atoms: C_4  and  N_10
REMARK    5  A    between atoms: C_12  and  C_15
REMARK                            x       y       z     vdW  Elec       q    Type
REMARK                         _______ _______ _______ _____ _____    ______ ____
ROOT
ATOM      1  N   UNL     1      -7.539   0.202 126.347  0.00  0.00    +0.000 N 
ATOM      2  C   UNL     1      -7.019   0.970 125.336  0.00  0.00    +0.000 A 
ATOM      3  C   UNL     1      -6.705   2.229 125.832  0.00  0.00    +0.000 A 
ATOM      4  C   UNL     1      -7.388   2.171 127.115  0.00  0.00    +0.000 A 
ATOM      5  N   UNL     1      -7.847   0.942 127.436  0.00  0.00    +0.000 NA
ENDROOT
BRANCH   3   6
ATOM      6  C   UNL     1      -5.257   2.733 125.715  0.00  0.00    +0.000 A 
ATOM      7  C   UNL     1      -4.480   3.433 126.719  0.00  0.00    +0.000 A 
ATOM      8  C   UNL     1      -3.034   3.561 126.929  0.00  0.00    +0.000 A 
ATOM      9  C   UNL     1      -2.750   4.797 127.502  0.00  0.00    +0.000 A 
ATOM     10  N   UNL     1      -3.939   5.475 127.593  0.00  0.00    +0.000 N 
ATOM     11  C   UNL     1      -4.868   4.770 126.888  0.00  0.00    +0.000 A 
ATOM     12  N   UNL     1      -5.826   5.390 126.188  0.00  0.00    +0.000 NA
ATOM     13  C   UNL     1      -5.955   4.738 125.011  0.00  0.00    +0.000 A 
ATOM     14  N   UNL     1      -5.370   3.576 124.647  0.00  0.00    +0.000 NA
ATOM     15  H   UNL     1      -4.056   6.459 127.797  0.00  0.00    +0.000 HD
ENDBRANCH   3   6
BRANCH   1  16
ATOM     16  C   UNL     1      -7.855  -1.225 126.207  0.00  0.00    +0.000 C 
BRANCH  16  17
ATOM     17  C   UNL     1      -7.623  -1.658 124.740  0.00  0.00    +0.000 C 
ATOM     18  C   UNL     1      -8.820  -1.900 123.801  0.00  0.00    +0.000 C 
ATOM     19  C   UNL     1      -9.286  -3.327 124.003  0.00  0.00    +0.000 C 
ATOM     20  C   UNL     1      -8.054  -4.069 124.490  0.00  0.00    +0.000 C 
ATOM     21  C   UNL     1      -6.939  -3.026 124.680  0.00  0.00    +0.000 C 
ENDBRANCH  16  17
BRANCH  16  22
ATOM     22  C   UNL     1      -7.159  -2.206 127.214  0.00  0.00    +0.000 C 
BRANCH  22  24
ATOM     23  N   UNL     1      -8.779  -3.620 128.725  0.00  0.00    +0.000 NA
ATOM     24  C   UNL     1      -8.078  -2.987 128.075  0.00  0.00    +0.000 C 
ENDBRANCH  22  24
ENDBRANCH  16  22
ENDBRANCH   1  16
TORSDOF 5
ENDMDL
MODEL 9
REMARK VINA RESULT:      -6.2      7.622      9.693
REMARK  Name = Ruxolitinib
REMARK  5 active torsions:
REMARK  status: ('A' for Active; 'I' for Inactive)
REMARK    1  A    between atoms: C_2  and  C_3
REMARK    2  A    between atoms: C_3  and  C_4
REMARK    3  A    between atoms: C_4  and  C_5
REMARK    4  A    between atoms: C_4  and  N_10
REMARK    5  A    between atoms: C_12  and  C_15
REMARK                            x       y       z     vdW  Elec       q    Type
REMARK                         _______ _______ _______ _____ _____    ______ ____
ROOT
ATOM      1  N   UNL     1      -6.349   5.590 131.189  0.00  0.00    +0.000 N 
ATOM      2  C   UNL     1      -7.337   4.909 130.525  0.00  0.00    +0.000 A 
ATOM      3  C   UNL     1      -8.560   5.522 130.769  0.00  0.00    +0.000 A 
ATOM      4  C   UNL     1      -8.186   6.400 131.866  0.00  0.00    +0.000 A 
ATOM      5  N   UNL     1      -6.855   6.470 132.084  0.00  0.00    +0.000 NA
ENDROOT
BRANCH   3   6
ATOM      6  C   UNL     1      -9.385   6.033 129.576  0.00  0.00    +0.000 A 
ATOM      7  C   UNL     1     -10.151   7.260 129.491  0.00  0.00    +0.000 A 
ATOM      8  C   UNL     1     -10.582   8.072 128.349  0.00  0.00    +0.000 A 
ATOM      9  C   UNL     1     -11.795   8.687 128.641  0.00  0.00    +0.000 A 
ATOM     10  N   UNL     1     -12.179   8.243 129.880  0.00  0.00    +0.000 N 
ATOM     11  C   UNL     1     -11.347   7.219 130.223  0.00  0.00    +0.000 A 
ATOM     12  N   UNL     1     -11.795   6.162 130.912  0.00  0.00    +0.000 NA
ATOM     13  C   UNL     1     -11.234   5.057 130.369  0.00  0.00    +0.000 A 
ATOM     14  N   UNL     1     -10.270   5.005 129.424  0.00  0.00    +0.000 NA
ATOM     15  H   UNL     1     -13.089   8.356 130.305  0.00  0.00    +0.000 HD
ENDBRANCH   3   6
BRANCH   1  16
ATOM     16  C   UNL     1      -4.918   5.294 131.046  0.00  0.00    +0.000 C 
BRANCH  16  17
ATOM     17  C   UNL     1      -4.450   4.438 132.246  0.00  0.00    +0.000 C 
ATOM     18  C   UNL     1      -4.014   5.113 133.560  0.00  0.00    +0.000 C 
ATOM     19  C   UNL     1      -2.550   5.479 133.430  0.00  0.00    +0.000 C 
ATOM     20  C   UNL     1      -1.995   4.492 132.419  0.00  0.00    +0.000 C 
ATOM     21  C   UNL     1      -3.179   3.660 131.895  0.00  0.00    +0.000 C 
ENDBRANCH  16  17
BRANCH  16  22
ATOM     22  C   UNL     1      -4.457   4.674 129.681  0.00  0.00    +0.000 C 
BRANCH  22  24
ATOM     23  N   UNL     1      -4.006   6.405 127.755  0.00  0.00    +0.000 NA
ATOM     24  C   UNL     1      -4.222   5.649 128.590  0.00  0.00    +0.000 C 
ENDBRANCH  22  24
ENDBRANCH  16  22
ENDBRANCH   1  16
TORSDOF 5
ENDMDL
