MODEL 1
REMARK VINA RESULT:      -7.6      0.000      0.000
REMARK  Name = Sacubitril
REMARK  15 active torsions:
REMARK  status: ('A' for Active; 'I' for Inactive)
REMARK    1  A    between atoms: C_1  and  C_2
REMARK    2  A    between atoms: C_2  and  O_3
REMARK    3  A    between atoms: O_3  and  C_4
REMARK    4  A    between atoms: C_4  and  C_6
REMARK    5  A    between atoms: C_6  and  C_7
REMARK    6  A    between atoms: C_6  and  C_8
REMARK    7  A    between atoms: C_8  and  C_9
REMARK    8  A    between atoms: C_9  and  C_10
REMARK    9  A    between atoms: C_9  and  N_23
REMARK   10  A    between atoms: C_10  and  C_11
REMARK   11  A    between atoms: C_14  and  C_17
REMARK   12  A    between atoms: C_24  and  C_26
REMARK   13  A    between atoms: C_26  and  C_27
REMARK   14  A    between atoms: C_27  and  C_28
REMARK   15  A    between atoms: C_28  and  O_29
REMARK                            x       y       z     vdW  Elec       q    Type
REMARK                         _______ _______ _______ _____ _____    ______ ____
ROOT
ATOM      1  C   UNL     1      -4.749   3.572 130.313  0.00  0.00    +0.000 C 
ENDROOT
BRANCH   1   2
ATOM      2  N   UNL     1      -5.411   3.757 128.991  0.00  0.00    +0.000 N 
ATOM      3  C   UNL     1      -6.080   2.741 128.349  0.00  0.00    +0.000 C 
ATOM      4  O   UNL     1      -6.205   1.621 128.831  0.00  0.00    +0.000 OA
ATOM      5  H   UNL     1      -5.298   4.648 128.516  0.00  0.00    +0.000 HD
BRANCH   3   6
ATOM      6  C   UNL     1      -6.662   3.096 126.997  0.00  0.00    +0.000 C 
BRANCH   6   7
ATOM      7  C   UNL     1      -7.780   4.123 127.166  0.00  0.00    +0.000 C 
BRANCH   7   8
ATOM      8  C   UNL     1      -8.141   4.971 125.959  0.00  0.00    +0.000 C 
ATOM      9  O   UNL     1      -9.026   5.772 125.981  0.00  0.00    +0.000 OA
BRANCH   8  10
ATOM     10  O   UNL     1      -7.395   4.767 124.842  0.00  0.00    +0.000 OA
ATOM     11  H   UNL     1      -7.838   4.773 123.982  0.00  0.00    +0.000 HD
ENDBRANCH   8  10
ENDBRANCH   7   8
ENDBRANCH   6   7
ENDBRANCH   3   6
ENDBRANCH   1   2
BRANCH   1  12
ATOM     12  C   UNL     1      -3.298   4.109 130.153  0.00  0.00    +0.000 C 
BRANCH  12  13
ATOM     13  C   UNL     1      -3.260   5.579 129.827  0.00  0.00    +0.000 C 
ATOM     14  C   UNL     1      -2.287   6.426 130.667  0.00  0.00    +0.000 C 
BRANCH  13  15
ATOM     15  C   UNL     1      -2.763   5.819 128.324  0.00  0.00    +0.000 C 
ATOM     16  O   UNL     1      -2.085   6.838 128.126  0.00  0.00    +0.000 OA
BRANCH  15  17
ATOM     17  O   UNL     1      -3.317   4.974 127.228  0.00  0.00    +0.000 OA
BRANCH  17  19
ATOM     18  C   UNL     1      -1.452   2.941 126.560  0.00  0.00    +0.000 C 
ATOM     19  C   UNL     1      -2.896   3.433 126.554  0.00  0.00    +0.000 C 
ENDBRANCH  17  19
ENDBRANCH  15  17
ENDBRANCH  13  15
ENDBRANCH  12  13
ENDBRANCH   1  12
BRANCH   1  20
ATOM     20  C   UNL     1      -5.556   4.228 131.488  0.00  0.00    +0.000 C 
BRANCH  20  21
ATOM     21  C   UNL     1      -6.867   5.064 131.214  0.00  0.00    +0.000 A 
ATOM     22  C   UNL     1      -6.805   6.421 131.151  0.00  0.00    +0.000 A 
ATOM     23  C   UNL     1      -7.998   7.128 130.894  0.00  0.00    +0.000 A 
ATOM     24  C   UNL     1      -9.259   6.508 130.680  0.00  0.00    +0.000 A 
ATOM     25  C   UNL     1      -9.395   5.191 130.728  0.00  0.00    +0.000 A 
ATOM     26  C   UNL     1      -8.206   4.609 130.923  0.00  0.00    +0.000 A 
BRANCH  24  27
ATOM     27  C   UNL     1     -10.460   7.123 130.270  0.00  0.00    +0.000 A 
ATOM     28  C   UNL     1     -10.452   7.820 129.078  0.00  0.00    +0.000 A 
ATOM     29  C   UNL     1     -11.570   8.551 128.781  0.00  0.00    +0.000 A 
ATOM     30  C   UNL     1     -12.717   8.421 129.578  0.00  0.00    +0.000 A 
ATOM     31  C   UNL     1     -12.773   7.542 130.659  0.00  0.00    +0.000 A 
ATOM     32  C   UNL     1     -11.632   6.874 131.003  0.00  0.00    +0.000 A 
ENDBRANCH  24  27
ENDBRANCH  20  21
ENDBRANCH   1  20
TORSDOF 13
ENDMDL
MODEL 2
REMARK VINA RESULT:      -7.6      3.158      6.912
REMARK  Name = Sacubitril
REMARK  15 active torsions:
REMARK  status: ('A' for Active; 'I' for Inactive)
REMARK    1  A    between atoms: C_1  and  C_2
REMARK    2  A    between atoms: C_2  and  O_3
REMARK    3  A    between atoms: O_3  and  C_4
REMARK    4  A    between atoms: C_4  and  C_6
REMARK    5  A    between atoms: C_6  and  C_7
REMARK    6  A    between atoms: C_6  and  C_8
REMARK    7  A    between atoms: C_8  and  C_9
REMARK    8  A    between atoms: C_9  and  C_10
REMARK    9  A    between atoms: C_9  and  N_23
REMARK   10  A    between atoms: C_10  and  C_11
REMARK   11  A    between atoms: C_14  and  C_17
REMARK   12  A    between atoms: C_24  and  C_26
REMARK   13  A    between atoms: C_26  and  C_27
REMARK   14  A    between atoms: C_27  and  C_28
REMARK   15  A    between atoms: C_28  and  O_29
REMARK                            x       y       z     vdW  Elec       q    Type
REMARK                         _______ _______ _______ _____ _____    ______ ____
ROOT
ATOM      1  C   UNL     1     -10.114   5.089 131.602  0.00  0.00    +0.000 C 
ENDROOT
BRANCH   1   2
ATOM      2  N   UNL     1     -10.851   5.564 130.396  0.00  0.00    +0.000 N 
ATOM      3  C   UNL     1     -12.032   6.264 130.478  0.00  0.00    +0.000 C 
ATOM      4  O   UNL     1     -12.547   6.573 131.547  0.00  0.00    +0.000 OA
ATOM      5  H   UNL     1     -10.503   5.294 129.481  0.00  0.00    +0.000 HD
BRANCH   3   6
ATOM      6  C   UNL     1     -12.663   6.636 129.152  0.00  0.00    +0.000 C 
BRANCH   6   7
ATOM      7  C   UNL     1     -12.223   8.042 128.745  0.00  0.00    +0.000 C 
BRANCH   7   8
ATOM      8  C   UNL     1     -10.860   8.188 128.093  0.00  0.00    +0.000 C 
ATOM      9  O   UNL     1      -9.848   8.210 128.725  0.00  0.00    +0.000 OA
BRANCH   8  10
ATOM     10  O   UNL     1     -10.855   8.292 126.738  0.00  0.00    +0.000 OA
ATOM     11  H   UNL     1     -11.127   7.526 126.214  0.00  0.00    +0.000 HD
ENDBRANCH   8  10
ENDBRANCH   7   8
ENDBRANCH   6   7
ENDBRANCH   3   6
ENDBRANCH   1   2
BRANCH   1  12
ATOM     12  C   UNL     1      -9.285   3.854 131.148  0.00  0.00    +0.000 C 
BRANCH  12  13
ATOM     13  C   UNL     1      -9.202   2.792 132.213  0.00  0.00    +0.000 C 
ATOM     14  C   UNL     1     -10.009   1.509 131.943  0.00  0.00    +0.000 C 
BRANCH  13  15
ATOM     15  C   UNL     1      -7.701   2.262 132.377  0.00  0.00    +0.000 C 
ATOM     16  O   UNL     1      -7.265   2.195 133.536  0.00  0.00    +0.000 OA
BRANCH  15  17
ATOM     17  O   UNL     1      -6.844   2.109 131.166  0.00  0.00    +0.000 OA
BRANCH  17  19
ATOM     18  C   UNL     1      -6.105   3.892 129.084  0.00  0.00    +0.000 C 
ATOM     19  C   UNL     1      -5.709   3.132 130.347  0.00  0.00    +0.000 C 
ENDBRANCH  17  19
ENDBRANCH  15  17
ENDBRANCH  13  15
ENDBRANCH  12  13
ENDBRANCH   1  12
BRANCH   1  20
ATOM     20  C   UNL     1      -9.267   6.225 132.276  0.00  0.00    +0.000 C 
BRANCH  20  21
ATOM     21  C   UNL     1      -7.691   6.226 132.198  0.00  0.00    +0.000 A 
ATOM     22  C   UNL     1      -7.062   6.882 131.186  0.00  0.00    +0.000 A 
ATOM     23  C   UNL     1      -5.652   6.865 131.160  0.00  0.00    +0.000 A 
ATOM     24  C   UNL     1      -4.847   6.218 132.137  0.00  0.00    +0.000 A 
ATOM     25  C   UNL     1      -5.390   5.559 133.149  0.00  0.00    +0.000 A 
ATOM     26  C   UNL     1      -6.723   5.676 133.118  0.00  0.00    +0.000 A 
BRANCH  24  27
ATOM     27  C   UNL     1      -3.444   6.280 132.272  0.00  0.00    +0.000 A 
ATOM     28  C   UNL     1      -2.870   7.519 132.473  0.00  0.00    +0.000 A 
ATOM     29  C   UNL     1      -1.504   7.583 132.430  0.00  0.00    +0.000 A 
ATOM     30  C   UNL     1      -0.755   6.399 132.372  0.00  0.00    +0.000 A 
ATOM     31  C   UNL     1      -1.354   5.141 132.386  0.00  0.00    +0.000 A 
ATOM     32  C   UNL     1      -2.719   5.079 132.347  0.00  0.00    +0.000 A 
ENDBRANCH  24  27
ENDBRANCH  20  21
ENDBRANCH   1  20
TORSDOF 13
ENDMDL
MODEL 3
REMARK VINA RESULT:      -7.5      4.112      7.314
REMARK  Name = Sacubitril
REMARK  15 active torsions:
REMARK  status: ('A' for Active; 'I' for Inactive)
REMARK    1  A    between atoms: C_1  and  C_2
REMARK    2  A    between atoms: C_2  and  O_3
REMARK    3  A    between atoms: O_3  and  C_4
REMARK    4  A    between atoms: C_4  and  C_6
REMARK    5  A    between atoms: C_6  and  C_7
REMARK    6  A    between atoms: C_6  and  C_8
REMARK    7  A    between atoms: C_8  and  C_9
REMARK    8  A    between atoms: C_9  and  C_10
REMARK    9  A    between atoms: C_9  and  N_23
REMARK   10  A    between atoms: C_10  and  C_11
REMARK   11  A    between atoms: C_14  and  C_17
REMARK   12  A    between atoms: C_24  and  C_26
REMARK   13  A    between atoms: C_26  and  C_27
REMARK   14  A    between atoms: C_27  and  C_28
REMARK   15  A    between atoms: C_28  and  O_29
REMARK                            x       y       z     vdW  Elec       q    Type
REMARK                         _______ _______ _______ _____ _____    ______ ____
ROOT
ATOM      1  C   UNL     1      -9.144   5.165 132.627  0.00  0.00    +0.000 C 
ENDROOT
BRANCH   1   2
ATOM      2  N   UNL     1     -10.333   6.062 132.552  0.00  0.00    +0.000 N 
ATOM      3  C   UNL     1     -11.205   6.047 131.489  0.00  0.00    +0.000 C 
ATOM      4  O   UNL     1     -11.086   5.277 130.543  0.00  0.00    +0.000 OA
ATOM      5  H   UNL     1     -10.456   6.760 133.280  0.00  0.00    +0.000 HD
BRANCH   3   6
ATOM      6  C   UNL     1     -12.337   7.051 131.561  0.00  0.00    +0.000 C 
BRANCH   6   7
ATOM      7  C   UNL     1     -12.810   7.402 130.151  0.00  0.00    +0.000 C 
BRANCH   7   8
ATOM      8  C   UNL     1     -12.056   8.491 129.410  0.00  0.00    +0.000 C 
ATOM      9  O   UNL     1     -10.952   8.330 128.986  0.00  0.00    +0.000 OA
BRANCH   8  10
ATOM     10  O   UNL     1     -12.712   9.670 129.252  0.00  0.00    +0.000 OA
ATOM     11  H   UNL     1     -12.399  10.288 128.577  0.00  0.00    +0.000 HD
ENDBRANCH   8  10
ENDBRANCH   7   8
ENDBRANCH   6   7
ENDBRANCH   3   6
ENDBRANCH   1   2
BRANCH   1  12
ATOM     12  C   UNL     1      -7.974   6.036 133.164  0.00  0.00    +0.000 C 
BRANCH  12  13
ATOM     13  C   UNL     1      -6.827   6.124 132.192  0.00  0.00    +0.000 C 
ATOM     14  C   UNL     1      -5.948   4.865 132.077  0.00  0.00    +0.000 C 
BRANCH  13  15
ATOM     15  C   UNL     1      -7.358   6.347 130.698  0.00  0.00    +0.000 C 
ATOM     16  O   UNL     1      -8.049   7.358 130.506  0.00  0.00    +0.000 OA
BRANCH  15  17
ATOM     17  O   UNL     1      -7.210   5.250 129.700  0.00  0.00    +0.000 OA
BRANCH  17  19
ATOM     18  C   UNL     1      -7.480   2.450 129.315  0.00  0.00    +0.000 C 
ATOM     19  C   UNL     1      -8.128   3.832 129.311  0.00  0.00    +0.000 C 
ENDBRANCH  17  19
ENDBRANCH  15  17
ENDBRANCH  13  15
ENDBRANCH  12  13
ENDBRANCH   1  12
BRANCH   1  20
ATOM     20  C   UNL     1      -9.423   3.866 133.463  0.00  0.00    +0.000 C 
BRANCH  20  21
ATOM     21  C   UNL     1      -9.032   2.439 132.912  0.00  0.00    +0.000 A 
ATOM     22  C   UNL     1      -9.910   1.747 132.139  0.00  0.00    +0.000 A 
ATOM     23  C   UNL     1      -9.517   0.480 131.660  0.00  0.00    +0.000 A 
ATOM     24  C   UNL     1      -8.250  -0.110 131.922  0.00  0.00    +0.000 A 
ATOM     25  C   UNL     1      -7.345   0.505 132.668  0.00  0.00    +0.000 A 
ATOM     26  C   UNL     1      -7.788   1.715 133.030  0.00  0.00    +0.000 A 
BRANCH  24  27
ATOM     27  C   UNL     1      -7.721  -1.293 131.363  0.00  0.00    +0.000 A 
ATOM     28  C   UNL     1      -7.969  -1.540 130.028  0.00  0.00    +0.000 A 
ATOM     29  C   UNL     1      -7.598  -2.766 129.547  0.00  0.00    +0.000 A 
ATOM     30  C   UNL     1      -6.837  -3.627 130.351  0.00  0.00    +0.000 A 
ATOM     31  C   UNL     1      -6.412  -3.266 131.629  0.00  0.00    +0.000 A 
ATOM     32  C   UNL     1      -6.851  -2.077 132.139  0.00  0.00    +0.000 A 
ENDBRANCH  24  27
ENDBRANCH  20  21
ENDBRANCH   1  20
TORSDOF 13
ENDMDL
MODEL 4
REMARK VINA RESULT:      -7.4      3.964      7.078
REMARK  Name = Sacubitril
REMARK  15 active torsions:
REMARK  status: ('A' for Active; 'I' for Inactive)
REMARK    1  A    between atoms: C_1  and  C_2
REMARK    2  A    between atoms: C_2  and  O_3
REMARK    3  A    between atoms: O_3  and  C_4
REMARK    4  A    between atoms: C_4  and  C_6
REMARK    5  A    between atoms: C_6  and  C_7
REMARK    6  A    between atoms: C_6  and  C_8
REMARK    7  A    between atoms: C_8  and  C_9
REMARK    8  A    between atoms: C_9  and  C_10
REMARK    9  A    between atoms: C_9  and  N_23
REMARK   10  A    between atoms: C_10  and  C_11
REMARK   11  A    between atoms: C_14  and  C_17
REMARK   12  A    between atoms: C_24  and  C_26
REMARK   13  A    between atoms: C_26  and  C_27
REMARK   14  A    between atoms: C_27  and  C_28
REMARK   15  A    between atoms: C_28  and  O_29
REMARK                            x       y       z     vdW  Elec       q    Type
REMARK                         _______ _______ _______ _____ _____    ______ ____
ROOT
ATOM      1  C   UNL     1      -9.422   5.921 129.926  0.00  0.00    +0.000 C 
ENDROOT
BRANCH   1   2
ATOM      2  N   UNL     1     -10.236   6.996 129.290  0.00  0.00    +0.000 N 
ATOM      3  C   UNL     1     -10.345   7.133 127.926  0.00  0.00    +0.000 C 
ATOM      4  O   UNL     1      -9.807   6.364 127.137  0.00  0.00    +0.000 OA
ATOM      5  H   UNL     1     -10.663   7.696 129.890  0.00  0.00    +0.000 HD
BRANCH   3   6
ATOM      6  C   UNL     1     -11.183   8.302 127.453  0.00  0.00    +0.000 C 
BRANCH   6   7
ATOM      7  C   UNL     1     -12.568   8.242 128.095  0.00  0.00    +0.000 C 
BRANCH   7   8
ATOM      8  C   UNL     1     -12.841   9.175 129.261  0.00  0.00    +0.000 C 
ATOM      9  O   UNL     1     -12.748   8.821 130.398  0.00  0.00    +0.000 OA
BRANCH   8  10
ATOM     10  O   UNL     1     -13.197  10.445 128.939  0.00  0.00    +0.000 OA
ATOM     11  H   UNL     1     -13.685  10.969 129.589  0.00  0.00    +0.000 HD
ENDBRANCH   8  10
ENDBRANCH   7   8
ENDBRANCH   6   7
ENDBRANCH   3   6
ENDBRANCH   1   2
BRANCH   1  12
ATOM     12  C   UNL     1      -8.527   6.622 130.987  0.00  0.00    +0.000 C 
BRANCH  12  13
ATOM     13  C   UNL     1      -7.171   5.979 131.113  0.00  0.00    +0.000 C 
ATOM     14  C   UNL     1      -5.977   6.946 131.207  0.00  0.00    +0.000 C 
BRANCH  13  15
ATOM     15  C   UNL     1      -7.066   5.124 132.463  0.00  0.00    +0.000 C 
ATOM     16  O   UNL     1      -7.126   5.762 133.524  0.00  0.00    +0.000 OA
BRANCH  15  17
ATOM     17  O   UNL     1      -6.672   3.688 132.388  0.00  0.00    +0.000 OA
BRANCH  17  19
ATOM     18  C   UNL     1      -5.138   1.369 131.813  0.00  0.00    +0.000 C 
ATOM     19  C   UNL     1      -5.545   2.788 131.426  0.00  0.00    +0.000 C 
ENDBRANCH  17  19
ENDBRANCH  15  17
ENDBRANCH  13  15
ENDBRANCH  12  13
ENDBRANCH   1  12
BRANCH   1  20
ATOM     20  C   UNL     1     -10.305   4.754 130.493  0.00  0.00    +0.000 C 
BRANCH  20  21
ATOM     21  C   UNL     1      -9.744   3.282 130.598  0.00  0.00    +0.000 A 
ATOM     22  C   UNL     1      -8.965   2.780 129.604  0.00  0.00    +0.000 A 
ATOM     23  C   UNL     1      -8.478   1.463 129.744  0.00  0.00    +0.000 A 
ATOM     24  C   UNL     1      -8.738   0.635 130.869  0.00  0.00    +0.000 A 
ATOM     25  C   UNL     1      -9.490   1.057 131.874  0.00  0.00    +0.000 A 
ATOM     26  C   UNL     1      -9.860   2.327 131.676  0.00  0.00    +0.000 A 
BRANCH  24  27
ATOM     27  C   UNL     1      -8.172  -0.624 131.159  0.00  0.00    +0.000 A 
ATOM     28  C   UNL     1      -7.711  -1.381 130.100  0.00  0.00    +0.000 A 
ATOM     29  C   UNL     1      -7.325  -2.664 130.379  0.00  0.00    +0.000 A 
ATOM     30  C   UNL     1      -7.237  -3.089 131.713  0.00  0.00    +0.000 A 
ATOM     31  C   UNL     1      -7.503  -2.235 132.782  0.00  0.00    +0.000 A 
ATOM     32  C   UNL     1      -7.966  -0.980 132.502  0.00  0.00    +0.000 A 
ENDBRANCH  24  27
ENDBRANCH  20  21
ENDBRANCH   1  20
TORSDOF 13
ENDMDL
MODEL 5
REMARK VINA RESULT:      -7.4      5.002      8.392
REMARK  Name = Sacubitril
REMARK  15 active torsions:
REMARK  status: ('A' for Active; 'I' for Inactive)
REMARK    1  A    between atoms: C_1  and  C_2
REMARK    2  A    between atoms: C_2  and  O_3
REMARK    3  A    between atoms: O_3  and  C_4
REMARK    4  A    between atoms: C_4  and  C_6
REMARK    5  A    between atoms: C_6  and  C_7
REMARK    6  A    between atoms: C_6  and  C_8
REMARK    7  A    between atoms: C_8  and  C_9
REMARK    8  A    between atoms: C_9  and  C_10
REMARK    9  A    between atoms: C_9  and  N_23
REMARK   10  A    between atoms: C_10  and  C_11
REMARK   11  A    between atoms: C_14  and  C_17
REMARK   12  A    between atoms: C_24  and  C_26
REMARK   13  A    between atoms: C_26  and  C_27
REMARK   14  A    between atoms: C_27  and  C_28
REMARK   15  A    between atoms: C_28  and  O_29
REMARK                            x       y       z     vdW  Elec       q    Type
REMARK                         _______ _______ _______ _____ _____    ______ ____
ROOT
ATOM      1  C   UNL     1      -8.789  -0.134 126.137  0.00  0.00    +0.000 C 
ENDROOT
BRANCH   1   2
ATOM      2  N   UNL     1      -8.161  -0.952 125.060  0.00  0.00    +0.000 N 
ATOM      3  C   UNL     1      -8.756  -2.080 124.545  0.00  0.00    +0.000 C 
ATOM      4  O   UNL     1      -9.856  -2.476 124.913  0.00  0.00    +0.000 OA
ATOM      5  H   UNL     1      -7.226  -0.705 124.751  0.00  0.00    +0.000 HD
BRANCH   3   6
ATOM      6  C   UNL     1      -7.961  -2.809 123.482  0.00  0.00    +0.000 C 
BRANCH   6   7
ATOM      7  C   UNL     1      -6.573  -2.183 123.352  0.00  0.00    +0.000 C 
BRANCH   7   8
ATOM      8  C   UNL     1      -5.470  -2.737 124.236  0.00  0.00    +0.000 C 
ATOM      9  O   UNL     1      -5.384  -2.467 125.396  0.00  0.00    +0.000 OA
BRANCH   8  10
ATOM     10  O   UNL     1      -4.579  -3.564 123.631  0.00  0.00    +0.000 OA
ATOM     11  H   UNL     1      -4.014  -3.205 122.932  0.00  0.00    +0.000 HD
ENDBRANCH   8  10
ENDBRANCH   7   8
ENDBRANCH   6   7
ENDBRANCH   3   6
ENDBRANCH   1   2
BRANCH   1  12
ATOM     12  C   UNL     1      -7.763  -0.091 127.305  0.00  0.00    +0.000 C 
BRANCH  12  13
ATOM     13  C   UNL     1      -6.981   1.197 127.338  0.00  0.00    +0.000 C 
ATOM     14  C   UNL     1      -7.200   2.081 128.579  0.00  0.00    +0.000 C 
BRANCH  13  15
ATOM     15  C   UNL     1      -5.406   0.910 127.356  0.00  0.00    +0.000 C 
ATOM     16  O   UNL     1      -4.991   0.181 128.269  0.00  0.00    +0.000 OA
BRANCH  15  17
ATOM     17  O   UNL     1      -4.511   1.694 126.459  0.00  0.00    +0.000 OA
BRANCH  17  19
ATOM     18  C   UNL     1      -5.217   4.441 126.322  0.00  0.00    +0.000 C 
ATOM     19  C   UNL     1      -4.123   3.377 126.303  0.00  0.00    +0.000 C 
ENDBRANCH  17  19
ENDBRANCH  15  17
ENDBRANCH  13  15
ENDBRANCH  12  13
ENDBRANCH   1  12
BRANCH   1  20
ATOM     20  C   UNL     1      -9.253   1.276 125.630  0.00  0.00    +0.000 C 
BRANCH  20  21
ATOM     21  C   UNL     1      -8.619   1.931 124.340  0.00  0.00    +0.000 A 
ATOM     22  C   UNL     1      -9.388   2.142 123.240  0.00  0.00    +0.000 A 
ATOM     23  C   UNL     1      -8.784   2.738 122.113  0.00  0.00    +0.000 A 
ATOM     24  C   UNL     1      -7.423   3.147 122.064  0.00  0.00    +0.000 A 
ATOM     25  C   UNL     1      -6.614   2.971 123.098  0.00  0.00    +0.000 A 
ATOM     26  C   UNL     1      -7.288   2.450 124.131  0.00  0.00    +0.000 A 
BRANCH  24  27
ATOM     27  C   UNL     1      -6.782   3.882 121.045  0.00  0.00    +0.000 A 
ATOM     28  C   UNL     1      -5.477   4.278 121.261  0.00  0.00    +0.000 A 
ATOM     29  C   UNL     1      -4.930   5.132 120.342  0.00  0.00    +0.000 A 
ATOM     30  C   UNL     1      -5.625   5.416 119.157  0.00  0.00    +0.000 A 
ATOM     31  C   UNL     1      -6.856   4.833 118.861  0.00  0.00    +0.000 A 
ATOM     32  C   UNL     1      -7.438   4.045 119.814  0.00  0.00    +0.000 A 
ENDBRANCH  24  27
ENDBRANCH  20  21
ENDBRANCH   1  20
TORSDOF 13
ENDMDL
MODEL 6
REMARK VINA RESULT:      -7.3      3.763      7.536
REMARK  Name = Sacubitril
REMARK  15 active torsions:
REMARK  status: ('A' for Active; 'I' for Inactive)
REMARK    1  A    between atoms: C_1  and  C_2
REMARK    2  A    between atoms: C_2  and  O_3
REMARK    3  A    between atoms: O_3  and  C_4
REMARK    4  A    between atoms: C_4  and  C_6
REMARK    5  A    between atoms: C_6  and  C_7
REMARK    6  A    between atoms: C_6  and  C_8
REMARK    7  A    between atoms: C_8  and  C_9
REMARK    8  A    between atoms: C_9  and  C_10
REMARK    9  A    between atoms: C_9  and  N_23
REMARK   10  A    between atoms: C_10  and  C_11
REMARK   11  A    between atoms: C_14  and  C_17
REMARK   12  A    between atoms: C_24  and  C_26
REMARK   13  A    between atoms: C_26  and  C_27
REMARK   14  A    between atoms: C_27  and  C_28
REMARK   15  A    between atoms: C_28  and  O_29
REMARK                            x       y       z     vdW  Elec       q    Type
REMARK                         _______ _______ _______ _____ _____    ______ ____
ROOT
ATOM      1  C   UNL     1      -8.594   5.489 133.347  0.00  0.00    +0.000 C 
ENDROOT
BRANCH   1   2
ATOM      2  N   UNL     1      -7.458   5.429 132.384  0.00  0.00    +0.000 N 
ATOM      3  C   UNL     1      -6.162   5.706 132.750  0.00  0.00    +0.000 C 
ATOM      4  O   UNL     1      -5.844   5.992 133.899  0.00  0.00    +0.000 OA
ATOM      5  H   UNL     1      -7.665   5.249 131.406  0.00  0.00    +0.000 HD
BRANCH   3   6
ATOM      6  C   UNL     1      -5.139   5.631 131.635  0.00  0.00    +0.000 C 
BRANCH   6   7
ATOM      7  C   UNL     1      -4.930   7.018 131.030  0.00  0.00    +0.000 C 
BRANCH   7   8
ATOM      8  C   UNL     1      -3.889   7.154 129.932  0.00  0.00    +0.000 C 
ATOM      9  O   UNL     1      -4.164   7.533 128.834  0.00  0.00    +0.000 OA
BRANCH   8  10
ATOM     10  O   UNL     1      -2.618   6.819 130.272  0.00  0.00    +0.000 OA
ATOM     11  H   UNL     1      -2.118   6.237 129.681  0.00  0.00    +0.000 HD
ENDBRANCH   8  10
ENDBRANCH   7   8
ENDBRANCH   6   7
ENDBRANCH   3   6
ENDBRANCH   1   2
BRANCH   1  12
ATOM     12  C   UNL     1      -9.812   6.039 132.551  0.00  0.00    +0.000 C 
BRANCH  12  13
ATOM     13  C   UNL     1      -9.728   5.727 131.080  0.00  0.00    +0.000 C 
ATOM     14  C   UNL     1     -11.009   5.161 130.442  0.00  0.00    +0.000 C 
BRANCH  13  15
ATOM     15  C   UNL     1      -9.441   7.053 130.229  0.00  0.00    +0.000 C 
ATOM     16  O   UNL     1      -8.301   7.530 130.323  0.00  0.00    +0.000 OA
BRANCH  15  17
ATOM     17  O   UNL     1     -10.579   7.764 129.579  0.00  0.00    +0.000 OA
BRANCH  17  19
ATOM     18  C   UNL     1     -11.009   7.622 126.777  0.00  0.00    +0.000 C 
ATOM     19  C   UNL     1     -10.828   8.485 128.022  0.00  0.00    +0.000 C 
ENDBRANCH  17  19
ENDBRANCH  15  17
ENDBRANCH  13  15
ENDBRANCH  12  13
ENDBRANCH   1  12
BRANCH   1  20
ATOM     20  C   UNL     1      -8.853   4.114 134.059  0.00  0.00    +0.000 C 
BRANCH  20  21
ATOM     21  C   UNL     1      -8.671   2.748 133.290  0.00  0.00    +0.000 A 
ATOM     22  C   UNL     1      -9.671   2.275 132.500  0.00  0.00    +0.000 A 
ATOM     23  C   UNL     1      -9.461   1.055 131.824  0.00  0.00    +0.000 A 
ATOM     24  C   UNL     1      -8.262   0.297 131.905  0.00  0.00    +0.000 A 
ATOM     25  C   UNL     1      -7.246   0.695 132.657  0.00  0.00    +0.000 A 
ATOM     26  C   UNL     1      -7.518   1.881 133.213  0.00  0.00    +0.000 A 
BRANCH  24  27
ATOM     27  C   UNL     1      -7.912  -0.843 131.152  0.00  0.00    +0.000 A 
ATOM     28  C   UNL     1      -7.862  -0.716 129.778  0.00  0.00    +0.000 A 
ATOM     29  C   UNL     1      -7.692  -1.865 129.056  0.00  0.00    +0.000 A 
ATOM     30  C   UNL     1      -7.397  -3.065 129.719  0.00  0.00    +0.000 A 
ATOM     31  C   UNL     1      -7.240  -3.128 131.103  0.00  0.00    +0.000 A 
ATOM     32  C   UNL     1      -7.490  -1.998 131.830  0.00  0.00    +0.000 A 
ENDBRANCH  24  27
ENDBRANCH  20  21
ENDBRANCH   1  20
TORSDOF 13
ENDMDL
MODEL 7
REMARK VINA RESULT:      -7.3      3.028      3.858
REMARK  Name = Sacubitril
REMARK  15 active torsions:
REMARK  status: ('A' for Active; 'I' for Inactive)
REMARK    1  A    between atoms: C_1  and  C_2
REMARK    2  A    between atoms: C_2  and  O_3
REMARK    3  A    between atoms: O_3  and  C_4
REMARK    4  A    between atoms: C_4  and  C_6
REMARK    5  A    between atoms: C_6  and  C_7
REMARK    6  A    between atoms: C_6  and  C_8
REMARK    7  A    between atoms: C_8  and  C_9
REMARK    8  A    between atoms: C_9  and  C_10
REMARK    9  A    between atoms: C_9  and  N_23
REMARK   10  A    between atoms: C_10  and  C_11
REMARK   11  A    between atoms: C_14  and  C_17
REMARK   12  A    between atoms: C_24  and  C_26
REMARK   13  A    between atoms: C_26  and  C_27
REMARK   14  A    between atoms: C_27  and  C_28
REMARK   15  A    between atoms: C_28  and  O_29
REMARK                            x       y       z     vdW  Elec       q    Type
REMARK                         _______ _______ _______ _____ _____    ______ ____
ROOT
ATOM      1  C   UNL     1      -6.709   4.224 132.818  0.00  0.00    +0.000 C 
ENDROOT
BRANCH   1   2
ATOM      2  N   UNL     1      -7.479   3.325 131.912  0.00  0.00    +0.000 N 
ATOM      3  C   UNL     1      -7.994   2.119 132.328  0.00  0.00    +0.000 C 
ATOM      4  O   UNL     1      -7.883   1.712 133.479  0.00  0.00    +0.000 OA
ATOM      5  H   UNL     1      -7.560   3.582 130.933  0.00  0.00    +0.000 HD
BRANCH   3   6
ATOM      6  C   UNL     1      -8.718   1.318 131.265  0.00  0.00    +0.000 C 
BRANCH   6   7
ATOM      7  C   UNL     1      -8.072   1.561 129.902  0.00  0.00    +0.000 C 
BRANCH   7   8
ATOM      8  C   UNL     1      -8.808   2.467 128.930  0.00  0.00    +0.000 C 
ATOM      9  O   UNL     1      -9.227   3.539 129.247  0.00  0.00    +0.000 OA
BRANCH   8  10
ATOM     10  O   UNL     1      -8.963   1.987 127.670  0.00  0.00    +0.000 OA
ATOM     11  H   UNL     1      -9.629   1.302 127.513  0.00  0.00    +0.000 HD
ENDBRANCH   8  10
ENDBRANCH   7   8
ENDBRANCH   6   7
ENDBRANCH   3   6
ENDBRANCH   1   2
BRANCH   1  12
ATOM     12  C   UNL     1      -5.335   4.463 132.130  0.00  0.00    +0.000 C 
BRANCH  12  13
ATOM     13  C   UNL     1      -4.198   4.518 133.117  0.00  0.00    +0.000 C 
ATOM     14  C   UNL     1      -2.862   3.926 132.632  0.00  0.00    +0.000 C 
BRANCH  13  15
ATOM     15  C   UNL     1      -3.826   6.032 133.479  0.00  0.00    +0.000 C 
ATOM     16  O   UNL     1      -4.407   6.522 134.458  0.00  0.00    +0.000 OA
BRANCH  15  17
ATOM     17  O   UNL     1      -3.014   6.834 132.519  0.00  0.00    +0.000 OA
BRANCH  17  19
ATOM     18  C   UNL     1      -4.690   7.635 130.372  0.00  0.00    +0.000 C 
ATOM     19  C   UNL     1      -3.389   7.825 131.146  0.00  0.00    +0.000 C 
ENDBRANCH  17  19
ENDBRANCH  15  17
ENDBRANCH  13  15
ENDBRANCH  12  13
ENDBRANCH   1  12
BRANCH   1  20
ATOM     20  C   UNL     1      -7.493   5.536 133.173  0.00  0.00    +0.000 C 
BRANCH  20  21
ATOM     21  C   UNL     1      -8.612   6.105 132.215  0.00  0.00    +0.000 A 
ATOM     22  C   UNL     1      -8.262   6.767 131.081  0.00  0.00    +0.000 A 
ATOM     23  C   UNL     1      -9.294   7.250 130.250  0.00  0.00    +0.000 A 
ATOM     24  C   UNL     1     -10.679   7.071 130.517  0.00  0.00    +0.000 A 
ATOM     25  C   UNL     1     -11.094   6.438 131.604  0.00  0.00    +0.000 A 
ATOM     26  C   UNL     1     -10.048   5.974 132.298  0.00  0.00    +0.000 A 
BRANCH  24  27
ATOM     27  C   UNL     1     -11.765   7.384 129.672  0.00  0.00    +0.000 A 
ATOM     28  C   UNL     1     -12.546   6.341 129.216  0.00  0.00    +0.000 A 
ATOM     29  C   UNL     1     -13.484   6.640 128.265  0.00  0.00    +0.000 A 
ATOM     30  C   UNL     1     -13.737   7.980 127.937  0.00  0.00    +0.000 A 
ATOM     31  C   UNL     1     -13.082   9.035 128.570  0.00  0.00    +0.000 A 
ATOM     32  C   UNL     1     -12.089   8.734 129.459  0.00  0.00    +0.000 A 
ENDBRANCH  24  27
ENDBRANCH  20  21
ENDBRANCH   1  20
TORSDOF 13
ENDMDL
MODEL 8
REMARK VINA RESULT:      -7.3      6.774      8.578
REMARK  Name = Sacubitril
REMARK  15 active torsions:
REMARK  status: ('A' for Active; 'I' for Inactive)
REMARK    1  A    between atoms: C_1  and  C_2
REMARK    2  A    between atoms: C_2  and  O_3
REMARK    3  A    between atoms: O_3  and  C_4
REMARK    4  A    between atoms: C_4  and  C_6
REMARK    5  A    between atoms: C_6  and  C_7
REMARK    6  A    between atoms: C_6  and  C_8
REMARK    7  A    between atoms: C_8  and  C_9
REMARK    8  A    between atoms: C_9  and  C_10
REMARK    9  A    between atoms: C_9  and  N_23
REMARK   10  A    between atoms: C_10  and  C_11
REMARK   11  A    between atoms: C_14  and  C_17
REMARK   12  A    between atoms: C_24  and  C_26
REMARK   13  A    between atoms: C_26  and  C_27
REMARK   14  A    between atoms: C_27  and  C_28
REMARK   15  A    between atoms: C_28  and  O_29
REMARK                            x       y       z     vdW  Elec       q    Type
REMARK                         _______ _______ _______ _____ _____    ______ ____
ROOT
ATOM      1  C   UNL     1      -8.053  -0.502 127.036  0.00  0.00    +0.000 C 
ENDROOT
BRANCH   1   2
ATOM      2  N   UNL     1      -7.871  -1.464 125.912  0.00  0.00    +0.000 N 
ATOM      3  C   UNL     1      -8.618  -2.613 125.793  0.00  0.00    +0.000 C 
ATOM      4  O   UNL     1      -9.506  -2.912 126.584  0.00  0.00    +0.000 OA
ATOM      5  H   UNL     1      -7.116  -1.299 125.254  0.00  0.00    +0.000 HD
BRANCH   3   6
ATOM      6  C   UNL     1      -8.275  -3.494 124.610  0.00  0.00    +0.000 C 
BRANCH   6   7
ATOM      7  C   UNL     1      -9.074  -3.052 123.385  0.00  0.00    +0.000 C 
BRANCH   7   8
ATOM      8  C   UNL     1      -8.939  -1.606 122.944  0.00  0.00    +0.000 C 
ATOM      9  O   UNL     1      -7.878  -1.082 122.785  0.00  0.00    +0.000 OA
BRANCH   8  10
ATOM     10  O   UNL     1     -10.102  -0.935 122.737  0.00  0.00    +0.000 OA
ATOM     11  H   UNL     1     -10.305  -0.176 123.302  0.00  0.00    +0.000 HD
ENDBRANCH   8  10
ENDBRANCH   7   8
ENDBRANCH   6   7
ENDBRANCH   3   6
ENDBRANCH   1   2
BRANCH   1  12
ATOM     12  C   UNL     1      -6.661  -0.354 127.714  0.00  0.00    +0.000 C 
BRANCH  12  13
ATOM     13  C   UNL     1      -6.596  -1.040 129.053  0.00  0.00    +0.000 C 
ATOM     14  C   UNL     1      -7.877  -0.969 129.905  0.00  0.00    +0.000 C 
BRANCH  13  15
ATOM     15  C   UNL     1      -6.350  -2.613 128.880  0.00  0.00    +0.000 C 
ATOM     16  O   UNL     1      -7.268  -3.358 129.254  0.00  0.00    +0.000 OA
BRANCH  15  17
ATOM     17  O   UNL     1      -4.989  -3.103 128.518  0.00  0.00    +0.000 OA
BRANCH  17  19
ATOM     18  C   UNL     1      -3.035  -2.062 130.295  0.00  0.00    +0.000 C 
ATOM     19  C   UNL     1      -3.467  -3.176 129.345  0.00  0.00    +0.000 C 
ENDBRANCH  17  19
ENDBRANCH  15  17
ENDBRANCH  13  15
ENDBRANCH  12  13
ENDBRANCH   1  12
BRANCH   1  20
ATOM     20  C   UNL     1      -8.693   0.853 126.571  0.00  0.00    +0.000 C 
BRANCH  20  21
ATOM     21  C   UNL     1      -8.272   1.532 125.209  0.00  0.00    +0.000 A 
ATOM     22  C   UNL     1      -9.207   2.152 124.442  0.00  0.00    +0.000 A 
ATOM     23  C   UNL     1      -8.786   2.753 123.238  0.00  0.00    +0.000 A 
ATOM     24  C   UNL     1      -7.438   2.766 122.785  0.00  0.00    +0.000 A 
ATOM     25  C   UNL     1      -6.474   2.180 123.479  0.00  0.00    +0.000 A 
ATOM     26  C   UNL     1      -6.960   1.687 124.624  0.00  0.00    +0.000 A 
BRANCH  24  27
ATOM     27  C   UNL     1      -6.908   3.468 121.683  0.00  0.00    +0.000 A 
ATOM     28  C   UNL     1      -5.580   3.840 121.735  0.00  0.00    +0.000 A 
ATOM     29  C   UNL     1      -5.129   4.665 120.741  0.00  0.00    +0.000 A 
ATOM     30  C   UNL     1      -5.953   4.942 119.640  0.00  0.00    +0.000 A 
ATOM     31  C   UNL     1      -7.221   4.379 119.503  0.00  0.00    +0.000 A 
ATOM     32  C   UNL     1      -7.702   3.622 120.534  0.00  0.00    +0.000 A 
ENDBRANCH  24  27
ENDBRANCH  20  21
ENDBRANCH   1  20
TORSDOF 13
ENDMDL
MODEL 9
REMARK VINA RESULT:      -7.2      4.084      7.167
REMARK  Name = Sacubitril
REMARK  15 active torsions:
REMARK  status: ('A' for Active; 'I' for Inactive)
REMARK    1  A    between atoms: C_1  and  C_2
REMARK    2  A    between atoms: C_2  and  O_3
REMARK    3  A    between atoms: O_3  and  C_4
REMARK    4  A    between atoms: C_4  and  C_6
REMARK    5  A    between atoms: C_6  and  C_7
REMARK    6  A    between atoms: C_6  and  C_8
REMARK    7  A    between atoms: C_8  and  C_9
REMARK    8  A    between atoms: C_9  and  C_10
REMARK    9  A    between atoms: C_9  and  N_23
REMARK   10  A    between atoms: C_10  and  C_11
REMARK   11  A    between atoms: C_14  and  C_17
REMARK   12  A    between atoms: C_24  and  C_26
REMARK   13  A    between atoms: C_26  and  C_27
REMARK   14  A    between atoms: C_27  and  C_28
REMARK   15  A    between atoms: C_28  and  O_29
REMARK                            x       y       z     vdW  Elec       q    Type
REMARK                         _______ _______ _______ _____ _____    ______ ____
ROOT
ATOM      1  C   UNL     1      -8.762   4.442 130.416  0.00  0.00    +0.000 C 
ENDROOT
BRANCH   1   2
ATOM      2  N   UNL     1      -9.567   5.695 130.356  0.00  0.00    +0.000 N 
ATOM      3  C   UNL     1      -9.803   6.367 129.180  0.00  0.00    +0.000 C 
ATOM      4  O   UNL     1      -9.394   5.969 128.095  0.00  0.00    +0.000 OA
ATOM      5  H   UNL     1      -9.888   6.103 131.229  0.00  0.00    +0.000 HD
BRANCH   3   6
ATOM      6  C   UNL     1     -10.610   7.642 129.309  0.00  0.00    +0.000 C 
BRANCH   6   7
ATOM      7  C   UNL     1     -11.000   8.152 127.922  0.00  0.00    +0.000 C 
BRANCH   7   8
ATOM      8  C   UNL     1     -12.155   7.459 127.221  0.00  0.00    +0.000 C 
ATOM      9  O   UNL     1     -13.295   7.662 127.512  0.00  0.00    +0.000 OA
BRANCH   8  10
ATOM     10  O   UNL     1     -11.818   6.589 126.234  0.00  0.00    +0.000 OA
ATOM     11  H   UNL     1     -11.436   5.734 126.480  0.00  0.00    +0.000 HD
ENDBRANCH   8  10
ENDBRANCH   7   8
ENDBRANCH   6   7
ENDBRANCH   3   6
ENDBRANCH   1   2
BRANCH   1  12
ATOM     12  C   UNL     1      -7.582   4.728 131.388  0.00  0.00    +0.000 C 
BRANCH  12  13
ATOM     13  C   UNL     1      -6.288   4.990 130.663  0.00  0.00    +0.000 C 
ATOM     14  C   UNL     1      -6.221   4.487 129.209  0.00  0.00    +0.000 C 
BRANCH  13  15
ATOM     15  C   UNL     1      -6.017   6.562 130.527  0.00  0.00    +0.000 C 
ATOM     16  O   UNL     1      -6.921   7.312 130.923  0.00  0.00    +0.000 OA
BRANCH  15  17
ATOM     17  O   UNL     1      -4.842   7.035 129.741  0.00  0.00    +0.000 OA
BRANCH  17  19
ATOM     18  C   UNL     1      -2.402   5.940 128.786  0.00  0.00    +0.000 C 
ATOM     19  C   UNL     1      -3.131   6.770 129.839  0.00  0.00    +0.000 C 
ENDBRANCH  17  19
ENDBRANCH  15  17
ENDBRANCH  13  15
ENDBRANCH  12  13
ENDBRANCH   1  12
BRANCH   1  20
ATOM     20  C   UNL     1      -9.626   3.188 130.798  0.00  0.00    +0.000 C 
BRANCH  20  21
ATOM     21  C   UNL     1      -9.007   1.736 130.794  0.00  0.00    +0.000 A 
ATOM     22  C   UNL     1      -8.313   1.297 129.712  0.00  0.00    +0.000 A 
ATOM     23  C   UNL     1      -7.769  -0.003 129.755  0.00  0.00    +0.000 A 
ATOM     24  C   UNL     1      -7.888  -0.878 130.869  0.00  0.00    +0.000 A 
ATOM     25  C   UNL     1      -8.552  -0.519 131.957  0.00  0.00    +0.000 A 
ATOM     26  C   UNL     1      -8.984   0.743 131.843  0.00  0.00    +0.000 A 
BRANCH  24  27
ATOM     27  C   UNL     1      -7.253  -2.124 131.056  0.00  0.00    +0.000 A 
ATOM     28  C   UNL     1      -7.047  -2.553 132.352  0.00  0.00    +0.000 A 
ATOM     29  C   UNL     1      -6.281  -3.674 132.518  0.00  0.00    +0.000 A 
ATOM     30  C   UNL     1      -5.901  -4.428 131.398  0.00  0.00    +0.000 A 
ATOM     31  C   UNL     1      -6.304  -4.092 130.107  0.00  0.00    +0.000 A 
ATOM     32  C   UNL     1      -7.000  -2.929 129.933  0.00  0.00    +0.000 A 
ENDBRANCH  24  27
ENDBRANCH  20  21
ENDBRANCH   1  20
TORSDOF 13
ENDMDL
