MODEL 1
REMARK VINA RESULT:      -7.3      0.000      0.000
REMARK  Name = Safinamide
REMARK  8 active torsions:
REMARK  status: ('A' for Active; 'I' for Inactive)
REMARK    1  A    between atoms: C_1  and  C_2
REMARK    2  A    between atoms: C_2  and  N_3
REMARK    3  A    between atoms: C_2  and  C_20
REMARK    4  A    between atoms: N_3  and  C_4
REMARK    5  A    between atoms: C_4  and  C_5
REMARK    6  A    between atoms: C_8  and  O_9
REMARK    7  A    between atoms: O_9  and  C_10
REMARK    8  A    between atoms: C_10  and  C_11
REMARK                            x       y       z     vdW  Elec       q    Type
REMARK                         _______ _______ _______ _____ _____    ______ ____
ROOT
ATOM      1  C   UNL     1      -7.658  -2.918 128.939  0.00  0.00    +0.000 A 
ATOM      2  C   UNL     1      -7.456  -1.725 128.244  0.00  0.00    +0.000 A 
ATOM      3  C   UNL     1      -8.147  -1.496 127.069  0.00  0.00    +0.000 A 
ATOM      4  C   UNL     1      -8.969  -2.491 126.543  0.00  0.00    +0.000 A 
ATOM      5  C   UNL     1      -9.214  -3.664 127.254  0.00  0.00    +0.000 A 
ATOM      6  C   UNL     1      -8.569  -3.872 128.457  0.00  0.00    +0.000 A 
ENDROOT
BRANCH   1   7
ATOM      7  C   UNL     1      -7.277  -3.050 130.371  0.00  0.00    +0.000 C 
BRANCH   7   8
ATOM      8  N   UNL     1      -6.150  -2.302 130.868  0.00  0.00    +0.000 NA
ATOM      9  H   UNL     1      -6.331  -2.000 131.822  0.00  0.00    +0.000 HD
BRANCH   8  11
ATOM     10  C   UNL     1      -5.295  -4.557 130.915  0.00  0.00    +0.000 C 
ATOM     11  C   UNL     1      -4.892  -3.082 130.847  0.00  0.00    +0.000 C 
BRANCH  11  12
ATOM     12  C   UNL     1      -3.853  -2.881 129.682  0.00  0.00    +0.000 C 
ATOM     13  N   UNL     1      -2.628  -2.284 129.823  0.00  0.00    +0.000 N 
ATOM     14  O   UNL     1      -4.101  -3.310 128.562  0.00  0.00    +0.000 OA
ATOM     15  H   UNL     1      -2.382  -1.553 130.467  0.00  0.00    +0.000 HD
ATOM     16  H   UNL     1      -2.050  -2.274 128.994  0.00  0.00    +0.000 HD
ENDBRANCH  11  12
ENDBRANCH   8  11
ENDBRANCH   7   8
ENDBRANCH   1   7
BRANCH   4  17
ATOM     17  O   UNL     1      -9.465  -2.210 125.311  0.00  0.00    +0.000 OA
BRANCH  17  18
ATOM     18  C   UNL     1      -9.245  -3.203 124.317  0.00  0.00    +0.000 C 
BRANCH  18  19
ATOM     19  C   UNL     1      -7.842  -3.081 123.789  0.00  0.00    +0.000 A 
ATOM     20  C   UNL     1      -6.802  -3.887 124.272  0.00  0.00    +0.000 A 
ATOM     21  C   UNL     1      -5.491  -3.584 123.944  0.00  0.00    +0.000 A 
ATOM     22  F   UNL     1      -4.496  -4.249 124.544  0.00  0.00    +0.000 F 
ATOM     23  C   UNL     1      -5.198  -2.562 123.052  0.00  0.00    +0.000 A 
ATOM     24  C   UNL     1      -6.233  -1.807 122.500  0.00  0.00    +0.000 A 
ATOM     25  C   UNL     1      -7.552  -2.063 122.870  0.00  0.00    +0.000 A 
ENDBRANCH  18  19
ENDBRANCH  17  18
ENDBRANCH   4  17
TORSDOF 7
ENDMDL
MODEL 2
REMARK VINA RESULT:      -7.2      6.032      8.317
REMARK  Name = Safinamide
REMARK  8 active torsions:
REMARK  status: ('A' for Active; 'I' for Inactive)
REMARK    1  A    between atoms: C_1  and  C_2
REMARK    2  A    between atoms: C_2  and  N_3
REMARK    3  A    between atoms: C_2  and  C_20
REMARK    4  A    between atoms: N_3  and  C_4
REMARK    5  A    between atoms: C_4  and  C_5
REMARK    6  A    between atoms: C_8  and  O_9
REMARK    7  A    between atoms: O_9  and  C_10
REMARK    8  A    between atoms: C_10  and  C_11
REMARK                            x       y       z     vdW  Elec       q    Type
REMARK                         _______ _______ _______ _____ _____    ______ ____
ROOT
ATOM      1  C   UNL     1      -8.665   2.882 122.235  0.00  0.00    +0.000 A 
ATOM      2  C   UNL     1      -9.608   1.853 122.220  0.00  0.00    +0.000 A 
ATOM      3  C   UNL     1      -9.968   1.244 123.407  0.00  0.00    +0.000 A 
ATOM      4  C   UNL     1      -9.327   1.599 124.592  0.00  0.00    +0.000 A 
ATOM      5  C   UNL     1      -8.423   2.658 124.623  0.00  0.00    +0.000 A 
ATOM      6  C   UNL     1      -8.101   3.308 123.449  0.00  0.00    +0.000 A 
ENDROOT
BRANCH   1   7
ATOM      7  C   UNL     1      -8.540   3.829 121.094  0.00  0.00    +0.000 C 
BRANCH   7   8
ATOM      8  N   UNL     1      -7.449   3.666 120.165  0.00  0.00    +0.000 NA
ATOM      9  H   UNL     1      -7.694   4.082 119.271  0.00  0.00    +0.000 HD
BRANCH   8  11
ATOM     10  C   UNL     1      -5.212   3.130 120.889  0.00  0.00    +0.000 C 
ATOM     11  C   UNL     1      -6.192   4.280 120.648  0.00  0.00    +0.000 C 
BRANCH  11  12
ATOM     12  C   UNL     1      -5.479   5.399 119.800  0.00  0.00    +0.000 C 
ATOM     13  N   UNL     1      -5.704   5.630 118.468  0.00  0.00    +0.000 N 
ATOM     14  O   UNL     1      -4.690   6.164 120.338  0.00  0.00    +0.000 OA
ATOM     15  H   UNL     1      -5.959   4.953 117.770  0.00  0.00    +0.000 HD
ATOM     16  H   UNL     1      -5.209   6.418 118.073  0.00  0.00    +0.000 HD
ENDBRANCH  11  12
ENDBRANCH   8  11
ENDBRANCH   7   8
ENDBRANCH   1   7
BRANCH   4  17
ATOM     17  O   UNL     1      -9.654   0.823 125.657  0.00  0.00    +0.000 OA
BRANCH  17  18
ATOM     18  C   UNL     1      -8.561   0.218 126.336  0.00  0.00    +0.000 C 
BRANCH  18  19
ATOM     19  C   UNL     1      -8.226  -1.093 125.680  0.00  0.00    +0.000 A 
ATOM     20  C   UNL     1      -7.029  -1.278 124.975  0.00  0.00    +0.000 A 
ATOM     21  C   UNL     1      -6.865  -2.403 124.185  0.00  0.00    +0.000 A 
ATOM     22  F   UNL     1      -5.796  -2.491 123.384  0.00  0.00    +0.000 F 
ATOM     23  C   UNL     1      -7.823  -3.408 124.169  0.00  0.00    +0.000 A 
ATOM     24  C   UNL     1      -8.982  -3.272 124.933  0.00  0.00    +0.000 A 
ATOM     25  C   UNL     1      -9.185  -2.115 125.684  0.00  0.00    +0.000 A 
ENDBRANCH  18  19
ENDBRANCH  17  18
ENDBRANCH   4  17
TORSDOF 7
ENDMDL
MODEL 3
REMARK VINA RESULT:      -6.8      5.246      6.849
REMARK  Name = Safinamide
REMARK  8 active torsions:
REMARK  status: ('A' for Active; 'I' for Inactive)
REMARK    1  A    between atoms: C_1  and  C_2
REMARK    2  A    between atoms: C_2  and  N_3
REMARK    3  A    between atoms: C_2  and  C_20
REMARK    4  A    between atoms: N_3  and  C_4
REMARK    5  A    between atoms: C_4  and  C_5
REMARK    6  A    between atoms: C_8  and  O_9
REMARK    7  A    between atoms: O_9  and  C_10
REMARK    8  A    between atoms: C_10  and  C_11
REMARK                            x       y       z     vdW  Elec       q    Type
REMARK                         _______ _______ _______ _____ _____    ______ ____
ROOT
ATOM      1  C   UNL     1      -8.844  -0.613 123.499  0.00  0.00    +0.000 A 
ATOM      2  C   UNL     1      -7.837   0.274 123.883  0.00  0.00    +0.000 A 
ATOM      3  C   UNL     1      -7.916   1.600 123.501  0.00  0.00    +0.000 A 
ATOM      4  C   UNL     1      -8.948   2.021 122.666  0.00  0.00    +0.000 A 
ATOM      5  C   UNL     1      -9.983   1.155 122.319  0.00  0.00    +0.000 A 
ATOM      6  C   UNL     1      -9.938  -0.157 122.745  0.00  0.00    +0.000 A 
ENDROOT
BRANCH   1   7
ATOM      7  C   UNL     1      -9.033  -1.914 124.196  0.00  0.00    +0.000 C 
BRANCH   7   8
ATOM      8  N   UNL     1      -9.296  -1.918 125.613  0.00  0.00    +0.000 NA
ATOM      9  H   UNL     1     -10.265  -2.176 125.782  0.00  0.00    +0.000 HD
BRANCH   8  11
ATOM     10  C   UNL     1      -7.087  -2.886 125.600  0.00  0.00    +0.000 C 
ATOM     11  C   UNL     1      -8.418  -2.851 126.355  0.00  0.00    +0.000 C 
BRANCH  11  12
ATOM     12  C   UNL     1      -8.139  -2.628 127.888  0.00  0.00    +0.000 C 
ATOM     13  N   UNL     1      -8.488  -3.507 128.879  0.00  0.00    +0.000 N 
ATOM     14  O   UNL     1      -7.536  -1.631 128.261  0.00  0.00    +0.000 OA
ATOM     15  H   UNL     1      -9.276  -4.132 128.887  0.00  0.00    +0.000 HD
ATOM     16  H   UNL     1      -8.195  -3.251 129.812  0.00  0.00    +0.000 HD
ENDBRANCH  11  12
ENDBRANCH   8  11
ENDBRANCH   7   8
ENDBRANCH   1   7
BRANCH   4  17
ATOM     17  O   UNL     1      -8.828   3.303 122.234  0.00  0.00    +0.000 OA
BRANCH  17  18
ATOM     18  C   UNL     1      -8.891   3.487 120.825  0.00  0.00    +0.000 C 
BRANCH  18  19
ATOM     19  C   UNL     1      -7.566   3.995 120.327  0.00  0.00    +0.000 A 
ATOM     20  C   UNL     1      -6.422   3.979 121.135  0.00  0.00    +0.000 A 
ATOM     21  C   UNL     1      -5.291   4.671 120.734  0.00  0.00    +0.000 A 
ATOM     22  F   UNL     1      -4.264   4.795 121.585  0.00  0.00    +0.000 F 
ATOM     23  C   UNL     1      -5.236   5.288 119.492  0.00  0.00    +0.000 A 
ATOM     24  C   UNL     1      -6.342   5.239 118.645  0.00  0.00    +0.000 A 
ATOM     25  C   UNL     1      -7.507   4.596 119.062  0.00  0.00    +0.000 A 
ENDBRANCH  18  19
ENDBRANCH  17  18
ENDBRANCH   4  17
TORSDOF 7
ENDMDL
MODEL 4
REMARK VINA RESULT:      -6.7      9.822     11.376
REMARK  Name = Safinamide
REMARK  8 active torsions:
REMARK  status: ('A' for Active; 'I' for Inactive)
REMARK    1  A    between atoms: C_1  and  C_2
REMARK    2  A    between atoms: C_2  and  N_3
REMARK    3  A    between atoms: C_2  and  C_20
REMARK    4  A    between atoms: N_3  and  C_4
REMARK    5  A    between atoms: C_4  and  C_5
REMARK    6  A    between atoms: C_8  and  O_9
REMARK    7  A    between atoms: O_9  and  C_10
REMARK    8  A    between atoms: C_10  and  C_11
REMARK                            x       y       z     vdW  Elec       q    Type
REMARK                         _______ _______ _______ _____ _____    ______ ____
ROOT
ATOM      1  C   UNL     1     -10.135   6.460 131.299  0.00  0.00    +0.000 A 
ATOM      2  C   UNL     1      -9.251   7.108 130.436  0.00  0.00    +0.000 A 
ATOM      3  C   UNL     1      -7.891   7.038 130.676  0.00  0.00    +0.000 A 
ATOM      4  C   UNL     1      -7.422   6.398 131.820  0.00  0.00    +0.000 A 
ATOM      5  C   UNL     1      -8.292   5.706 132.659  0.00  0.00    +0.000 A 
ATOM      6  C   UNL     1      -9.647   5.726 132.393  0.00  0.00    +0.000 A 
ENDROOT
BRANCH   1   7
ATOM      7  C   UNL     1     -11.532   6.156 130.886  0.00  0.00    +0.000 C 
BRANCH   7   8
ATOM      8  N   UNL     1     -11.775   5.647 129.559  0.00  0.00    +0.000 NA
ATOM      9  H   UNL     1     -12.359   4.817 129.611  0.00  0.00    +0.000 HD
BRANCH   8  11
ATOM     10  C   UNL     1     -13.044   7.698 129.601  0.00  0.00    +0.000 C 
ATOM     11  C   UNL     1     -12.435   6.639 128.680  0.00  0.00    +0.000 C 
BRANCH  11  12
ATOM     12  C   UNL     1     -11.621   7.351 127.536  0.00  0.00    +0.000 C 
ATOM     13  N   UNL     1     -11.027   8.579 127.652  0.00  0.00    +0.000 N 
ATOM     14  O   UNL     1     -11.449   6.784 126.465  0.00  0.00    +0.000 OA
ATOM     15  H   UNL     1     -11.336   9.352 128.217  0.00  0.00    +0.000 HD
ATOM     16  H   UNL     1     -10.493   8.883 126.849  0.00  0.00    +0.000 HD
ENDBRANCH  11  12
ENDBRANCH   8  11
ENDBRANCH   7   8
ENDBRANCH   1   7
BRANCH   4  17
ATOM     17  O   UNL     1      -6.086   6.533 132.025  0.00  0.00    +0.000 OA
BRANCH  17  18
ATOM     18  C   UNL     1      -5.279   5.461 131.552  0.00  0.00    +0.000 C 
BRANCH  18  19
ATOM     19  C   UNL     1      -4.492   5.918 130.354  0.00  0.00    +0.000 A 
ATOM     20  C   UNL     1      -3.819   5.009 129.526  0.00  0.00    +0.000 A 
ATOM     21  C   UNL     1      -2.914   5.477 128.588  0.00  0.00    +0.000 A 
ATOM     22  F   UNL     1      -2.151   4.602 127.922  0.00  0.00    +0.000 F 
ATOM     23  C   UNL     1      -2.747   6.839 128.377  0.00  0.00    +0.000 A 
ATOM     24  C   UNL     1      -3.474   7.752 129.139  0.00  0.00    +0.000 A 
ATOM     25  C   UNL     1      -4.343   7.294 130.129  0.00  0.00    +0.000 A 
ENDBRANCH  18  19
ENDBRANCH  17  18
ENDBRANCH   4  17
TORSDOF 7
ENDMDL
MODEL 5
REMARK VINA RESULT:      -6.6      9.936     11.383
REMARK  Name = Safinamide
REMARK  8 active torsions:
REMARK  status: ('A' for Active; 'I' for Inactive)
REMARK    1  A    between atoms: C_1  and  C_2
REMARK    2  A    between atoms: C_2  and  N_3
REMARK    3  A    between atoms: C_2  and  C_20
REMARK    4  A    between atoms: N_3  and  C_4
REMARK    5  A    between atoms: C_4  and  C_5
REMARK    6  A    between atoms: C_8  and  O_9
REMARK    7  A    between atoms: O_9  and  C_10
REMARK    8  A    between atoms: C_10  and  C_11
REMARK                            x       y       z     vdW  Elec       q    Type
REMARK                         _______ _______ _______ _____ _____    ______ ____
ROOT
ATOM      1  C   UNL     1      -6.701   5.892 130.911  0.00  0.00    +0.000 A 
ATOM      2  C   UNL     1      -7.694   6.850 131.125  0.00  0.00    +0.000 A 
ATOM      3  C   UNL     1      -8.990   6.588 130.722  0.00  0.00    +0.000 A 
ATOM      4  C   UNL     1      -9.277   5.414 130.029  0.00  0.00    +0.000 A 
ATOM      5  C   UNL     1      -8.303   4.432 129.855  0.00  0.00    +0.000 A 
ATOM      6  C   UNL     1      -7.020   4.665 130.306  0.00  0.00    +0.000 A 
ENDROOT
BRANCH   1   7
ATOM      7  C   UNL     1      -5.417   5.931 131.662  0.00  0.00    +0.000 C 
BRANCH   7   8
ATOM      8  N   UNL     1      -4.183   6.080 130.933  0.00  0.00    +0.000 NA
ATOM      9  H   UNL     1      -3.876   5.175 130.588  0.00  0.00    +0.000 HD
BRANCH   8  11
ATOM     10  C   UNL     1      -3.831   8.376 130.284  0.00  0.00    +0.000 C 
ATOM     11  C   UNL     1      -4.306   7.009 129.787  0.00  0.00    +0.000 C 
BRANCH  11  12
ATOM     12  C   UNL     1      -3.598   6.680 128.420  0.00  0.00    +0.000 C 
ATOM     13  N   UNL     1      -2.250   6.778 128.196  0.00  0.00    +0.000 N 
ATOM     14  O   UNL     1      -4.257   6.267 127.475  0.00  0.00    +0.000 OA
ATOM     15  H   UNL     1      -1.609   7.421 128.627  0.00  0.00    +0.000 HD
ATOM     16  H   UNL     1      -1.937   6.482 127.282  0.00  0.00    +0.000 HD
ENDBRANCH  11  12
ENDBRANCH   8  11
ENDBRANCH   7   8
ENDBRANCH   1   7
BRANCH   4  17
ATOM     17  O   UNL     1     -10.546   5.346 129.550  0.00  0.00    +0.000 OA
BRANCH  17  18
ATOM     18  C   UNL     1     -11.533   6.014 130.325  0.00  0.00    +0.000 C 
BRANCH  18  19
ATOM     19  C   UNL     1     -12.203   7.066 129.485  0.00  0.00    +0.000 A 
ATOM     20  C   UNL     1     -12.129   8.426 129.814  0.00  0.00    +0.000 A 
ATOM     21  C   UNL     1     -12.951   9.333 129.166  0.00  0.00    +0.000 A 
ATOM     22  F   UNL     1     -13.000  10.599 129.600  0.00  0.00    +0.000 F 
ATOM     23  C   UNL     1     -13.766   8.932 128.116  0.00  0.00    +0.000 A 
ATOM     24  C   UNL     1     -13.785   7.594 127.726  0.00  0.00    +0.000 A 
ATOM     25  C   UNL     1     -13.007   6.661 128.411  0.00  0.00    +0.000 A 
ENDBRANCH  18  19
ENDBRANCH  17  18
ENDBRANCH   4  17
TORSDOF 7
ENDMDL
MODEL 6
REMARK VINA RESULT:      -6.5      9.072     10.943
REMARK  Name = Safinamide
REMARK  8 active torsions:
REMARK  status: ('A' for Active; 'I' for Inactive)
REMARK    1  A    between atoms: C_1  and  C_2
REMARK    2  A    between atoms: C_2  and  N_3
REMARK    3  A    between atoms: C_2  and  C_20
REMARK    4  A    between atoms: N_3  and  C_4
REMARK    5  A    between atoms: C_4  and  C_5
REMARK    6  A    between atoms: C_8  and  O_9
REMARK    7  A    between atoms: O_9  and  C_10
REMARK    8  A    between atoms: C_10  and  C_11
REMARK                            x       y       z     vdW  Elec       q    Type
REMARK                         _______ _______ _______ _____ _____    ______ ____
ROOT
ATOM      1  C   UNL     1      -9.628   5.661 130.362  0.00  0.00    +0.000 A 
ATOM      2  C   UNL     1      -8.889   4.485 130.225  0.00  0.00    +0.000 A 
ATOM      3  C   UNL     1      -7.543   4.488 130.539  0.00  0.00    +0.000 A 
ATOM      4  C   UNL     1      -6.918   5.678 130.902  0.00  0.00    +0.000 A 
ATOM      5  C   UNL     1      -7.657   6.844 131.089  0.00  0.00    +0.000 A 
ATOM      6  C   UNL     1      -9.013   6.833 130.831  0.00  0.00    +0.000 A 
ENDROOT
BRANCH   1   7
ATOM      7  C   UNL     1     -11.114   5.634 130.438  0.00  0.00    +0.000 C 
BRANCH   7   8
ATOM      8  N   UNL     1     -11.881   5.966 129.263  0.00  0.00    +0.000 NA
ATOM      9  H   UNL     1     -12.486   5.187 129.016  0.00  0.00    +0.000 HD
BRANCH   8  11
ATOM     10  C   UNL     1     -12.868   7.370 130.959  0.00  0.00    +0.000 C 
ATOM     11  C   UNL     1     -12.715   7.176 129.448  0.00  0.00    +0.000 C 
BRANCH  11  12
ATOM     12  C   UNL     1     -12.289   8.540 128.790  0.00  0.00    +0.000 C 
ATOM     13  N   UNL     1     -11.089   8.766 128.169  0.00  0.00    +0.000 N 
ATOM     14  O   UNL     1     -13.071   9.482 128.775  0.00  0.00    +0.000 OA
ATOM     15  H   UNL     1     -10.205   8.340 128.386  0.00  0.00    +0.000 HD
ATOM     16  H   UNL     1     -10.981   9.678 127.748  0.00  0.00    +0.000 HD
ENDBRANCH  11  12
ENDBRANCH   8  11
ENDBRANCH   7   8
ENDBRANCH   1   7
BRANCH   4  17
ATOM     17  O   UNL     1      -5.569   5.582 131.030  0.00  0.00    +0.000 OA
BRANCH  17  18
ATOM     18  C   UNL     1      -5.027   4.276 130.873  0.00  0.00    +0.000 C 
BRANCH  18  19
ATOM     19  C   UNL     1      -4.005   4.287 129.770  0.00  0.00    +0.000 A 
ATOM     20  C   UNL     1      -3.278   5.443 129.453  0.00  0.00    +0.000 A 
ATOM     21  C   UNL     1      -2.532   5.484 128.287  0.00  0.00    +0.000 A 
ATOM     22  F   UNL     1      -1.980   6.642 127.904  0.00  0.00    +0.000 F 
ATOM     23  C   UNL     1      -2.403   4.360 127.483  0.00  0.00    +0.000 A 
ATOM     24  C   UNL     1      -3.056   3.179 127.834  0.00  0.00    +0.000 A 
ATOM     25  C   UNL     1      -3.859   3.143 128.973  0.00  0.00    +0.000 A 
ENDBRANCH  18  19
ENDBRANCH  17  18
ENDBRANCH   4  17
TORSDOF 7
ENDMDL
MODEL 7
REMARK VINA RESULT:      -6.5     10.512     12.040
REMARK  Name = Safinamide
REMARK  8 active torsions:
REMARK  status: ('A' for Active; 'I' for Inactive)
REMARK    1  A    between atoms: C_1  and  C_2
REMARK    2  A    between atoms: C_2  and  N_3
REMARK    3  A    between atoms: C_2  and  C_20
REMARK    4  A    between atoms: N_3  and  C_4
REMARK    5  A    between atoms: C_4  and  C_5
REMARK    6  A    between atoms: C_8  and  O_9
REMARK    7  A    between atoms: O_9  and  C_10
REMARK    8  A    between atoms: C_10  and  C_11
REMARK                            x       y       z     vdW  Elec       q    Type
REMARK                         _______ _______ _______ _____ _____    ______ ____
ROOT
ATOM      1  C   UNL     1     -10.169   6.597 131.248  0.00  0.00    +0.000 A 
ATOM      2  C   UNL     1      -9.037   7.028 130.556  0.00  0.00    +0.000 A 
ATOM      3  C   UNL     1      -7.782   6.747 131.062  0.00  0.00    +0.000 A 
ATOM      4  C   UNL     1      -7.658   6.116 132.298  0.00  0.00    +0.000 A 
ATOM      5  C   UNL     1      -8.780   5.638 132.971  0.00  0.00    +0.000 A 
ATOM      6  C   UNL     1     -10.034   5.867 132.441  0.00  0.00    +0.000 A 
ENDROOT
BRANCH   1   7
ATOM      7  C   UNL     1     -11.495   6.504 130.578  0.00  0.00    +0.000 C 
BRANCH   7   8
ATOM      8  N   UNL     1     -11.565   5.984 129.235  0.00  0.00    +0.000 NA
ATOM      9  H   UNL     1     -12.134   5.141 129.223  0.00  0.00    +0.000 HD
BRANCH   8  11
ATOM     10  C   UNL     1     -13.654   6.896 128.447  0.00  0.00    +0.000 C 
ATOM     11  C   UNL     1     -12.135   6.956 128.275  0.00  0.00    +0.000 C 
BRANCH  11  12
ATOM     12  C   UNL     1     -11.669   8.459 128.298  0.00  0.00    +0.000 C 
ATOM     13  N   UNL     1     -12.451   9.512 128.692  0.00  0.00    +0.000 N 
ATOM     14  O   UNL     1     -10.521   8.748 127.987  0.00  0.00    +0.000 OA
ATOM     15  H   UNL     1     -13.450   9.592 128.604  0.00  0.00    +0.000 HD
ATOM     16  H   UNL     1     -11.996  10.415 128.703  0.00  0.00    +0.000 HD
ENDBRANCH  11  12
ENDBRANCH   8  11
ENDBRANCH   7   8
ENDBRANCH   1   7
BRANCH   4  17
ATOM     17  O   UNL     1      -6.382   6.038 132.758  0.00  0.00    +0.000 OA
BRANCH  17  18
ATOM     18  C   UNL     1      -5.701   4.821 132.481  0.00  0.00    +0.000 C 
BRANCH  18  19
ATOM     19  C   UNL     1      -4.226   5.090 132.355  0.00  0.00    +0.000 A 
ATOM     20  C   UNL     1      -3.724   5.999 131.414  0.00  0.00    +0.000 A 
ATOM     21  C   UNL     1      -2.363   6.039 131.161  0.00  0.00    +0.000 A 
ATOM     22  F   UNL     1      -1.908   6.783 130.145  0.00  0.00    +0.000 F 
ATOM     23  C   UNL     1      -1.476   5.272 131.904  0.00  0.00    +0.000 A 
ATOM     24  C   UNL     1      -1.960   4.425 132.901  0.00  0.00    +0.000 A 
ATOM     25  C   UNL     1      -3.333   4.331 133.123  0.00  0.00    +0.000 A 
ENDBRANCH  18  19
ENDBRANCH  17  18
ENDBRANCH   4  17
TORSDOF 7
ENDMDL
MODEL 8
REMARK VINA RESULT:      -6.5      9.508     11.498
REMARK  Name = Safinamide
REMARK  8 active torsions:
REMARK  status: ('A' for Active; 'I' for Inactive)
REMARK    1  A    between atoms: C_1  and  C_2
REMARK    2  A    between atoms: C_2  and  N_3
REMARK    3  A    between atoms: C_2  and  C_20
REMARK    4  A    between atoms: N_3  and  C_4
REMARK    5  A    between atoms: C_4  and  C_5
REMARK    6  A    between atoms: C_8  and  O_9
REMARK    7  A    between atoms: O_9  and  C_10
REMARK    8  A    between atoms: C_10  and  C_11
REMARK                            x       y       z     vdW  Elec       q    Type
REMARK                         _______ _______ _______ _____ _____    ______ ____
ROOT
ATOM      1  C   UNL     1      -7.762   6.237 131.677  0.00  0.00    +0.000 A 
ATOM      2  C   UNL     1      -7.180   5.672 132.812  0.00  0.00    +0.000 A 
ATOM      3  C   UNL     1      -5.834   5.871 133.057  0.00  0.00    +0.000 A 
ATOM      4  C   UNL     1      -5.054   6.556 132.128  0.00  0.00    +0.000 A 
ATOM      5  C   UNL     1      -5.636   7.165 131.018  0.00  0.00    +0.000 A 
ATOM      6  C   UNL     1      -6.991   7.016 130.799  0.00  0.00    +0.000 A 
ENDROOT
BRANCH   1   7
ATOM      7  C   UNL     1      -9.237   6.407 131.570  0.00  0.00    +0.000 C 
BRANCH   7   8
ATOM      8  N   UNL     1      -9.779   7.123 130.442  0.00  0.00    +0.000 NA
ATOM      9  H   UNL     1      -9.181   6.990 129.631  0.00  0.00    +0.000 HD
BRANCH   8  11
ATOM     10  C   UNL     1     -11.284   5.244 130.574  0.00  0.00    +0.000 C 
ATOM     11  C   UNL     1     -11.152   6.692 130.098  0.00  0.00    +0.000 C 
BRANCH  11  12
ATOM     12  C   UNL     1     -12.394   7.519 130.601  0.00  0.00    +0.000 C 
ATOM     13  N   UNL     1     -12.780   8.731 130.094  0.00  0.00    +0.000 N 
ATOM     14  O   UNL     1     -13.115   7.064 131.479  0.00  0.00    +0.000 OA
ATOM     15  H   UNL     1     -12.186   9.441 129.701  0.00  0.00    +0.000 HD
ATOM     16  H   UNL     1     -13.629   9.116 130.484  0.00  0.00    +0.000 HD
ENDBRANCH  11  12
ENDBRANCH   8  11
ENDBRANCH   7   8
ENDBRANCH   1   7
BRANCH   4  17
ATOM     17  O   UNL     1      -3.724   6.548 132.403  0.00  0.00    +0.000 OA
BRANCH  17  18
ATOM     18  C   UNL     1      -3.046   5.327 132.130  0.00  0.00    +0.000 C 
BRANCH  18  19
ATOM     19  C   UNL     1      -2.815   5.203 130.649  0.00  0.00    +0.000 A 
ATOM     20  C   UNL     1      -2.217   6.233 129.910  0.00  0.00    +0.000 A 
ATOM     21  C   UNL     1      -2.242   6.186 128.526  0.00  0.00    +0.000 A 
ATOM     22  F   UNL     1      -1.825   7.249 127.828  0.00  0.00    +0.000 F 
ATOM     23  C   UNL     1      -2.750   5.079 127.860  0.00  0.00    +0.000 A 
ATOM     24  C   UNL     1      -3.272   4.011 128.589  0.00  0.00    +0.000 A 
ATOM     25  C   UNL     1      -3.308   4.074 129.981  0.00  0.00    +0.000 A 
ENDBRANCH  18  19
ENDBRANCH  17  18
ENDBRANCH   4  17
TORSDOF 7
ENDMDL
MODEL 9
REMARK VINA RESULT:      -6.4      5.790      8.425
REMARK  Name = Safinamide
REMARK  8 active torsions:
REMARK  status: ('A' for Active; 'I' for Inactive)
REMARK    1  A    between atoms: C_1  and  C_2
REMARK    2  A    between atoms: C_2  and  N_3
REMARK    3  A    between atoms: C_2  and  C_20
REMARK    4  A    between atoms: N_3  and  C_4
REMARK    5  A    between atoms: C_4  and  C_5
REMARK    6  A    between atoms: C_8  and  O_9
REMARK    7  A    between atoms: O_9  and  C_10
REMARK    8  A    between atoms: C_10  and  C_11
REMARK                            x       y       z     vdW  Elec       q    Type
REMARK                         _______ _______ _______ _____ _____    ______ ____
ROOT
ATOM      1  C   UNL     1      -6.912   2.353 123.573  0.00  0.00    +0.000 A 
ATOM      2  C   UNL     1      -6.401   2.300 124.870  0.00  0.00    +0.000 A 
ATOM      3  C   UNL     1      -6.198   1.073 125.472  0.00  0.00    +0.000 A 
ATOM      4  C   UNL     1      -6.586  -0.094 124.816  0.00  0.00    +0.000 A 
ATOM      5  C   UNL     1      -7.050  -0.053 123.503  0.00  0.00    +0.000 A 
ATOM      6  C   UNL     1      -7.202   1.168 122.877  0.00  0.00    +0.000 A 
ENDROOT
BRANCH   1   7
ATOM      7  C   UNL     1      -6.773   3.577 122.738  0.00  0.00    +0.000 C 
BRANCH   7   8
ATOM      8  N   UNL     1      -5.568   3.767 121.969  0.00  0.00    +0.000 NA
ATOM      9  H   UNL     1      -4.986   2.937 122.033  0.00  0.00    +0.000 HD
BRANCH   8  11
ATOM     10  C   UNL     1      -7.358   3.969 120.365  0.00  0.00    +0.000 C 
ATOM     11  C   UNL     1      -5.840   4.048 120.541  0.00  0.00    +0.000 C 
BRANCH  11  12
ATOM     12  C   UNL     1      -5.310   5.374 119.879  0.00  0.00    +0.000 C 
ATOM     13  N   UNL     1      -5.622   5.792 118.612  0.00  0.00    +0.000 N 
ATOM     14  O   UNL     1      -4.597   6.135 120.521  0.00  0.00    +0.000 OA
ATOM     15  H   UNL     1      -5.824   5.213 117.815  0.00  0.00    +0.000 HD
ATOM     16  H   UNL     1      -5.247   6.692 118.345  0.00  0.00    +0.000 HD
ENDBRANCH  11  12
ENDBRANCH   8  11
ENDBRANCH   7   8
ENDBRANCH   1   7
BRANCH   4  17
ATOM     17  O   UNL     1      -6.482  -1.218 125.571  0.00  0.00    +0.000 OA
BRANCH  17  18
ATOM     18  C   UNL     1      -7.287  -1.249 126.743  0.00  0.00    +0.000 C 
BRANCH  18  19
ATOM     19  C   UNL     1      -6.619  -2.100 127.788  0.00  0.00    +0.000 A 
ATOM     20  C   UNL     1      -7.338  -2.645 128.860  0.00  0.00    +0.000 A 
ATOM     21  C   UNL     1      -6.656  -3.212 129.924  0.00  0.00    +0.000 A 
ATOM     22  F   UNL     1      -7.335  -3.575 131.019  0.00  0.00    +0.000 F 
ATOM     23  C   UNL     1      -5.275  -3.350 129.892  0.00  0.00    +0.000 A 
ATOM     24  C   UNL     1      -4.557  -2.885 128.791  0.00  0.00    +0.000 A 
ATOM     25  C   UNL     1      -5.228  -2.258 127.742  0.00  0.00    +0.000 A 
ENDBRANCH  18  19
ENDBRANCH  17  18
ENDBRANCH   4  17
TORSDOF 7
ENDMDL
