MODEL 1
REMARK VINA RESULT:      -6.3      0.000      0.000
REMARK  Name = Salbutamol
REMARK  11 active torsions:
REMARK  status: ('A' for Active; 'I' for Inactive)
REMARK    1  A    between atoms: C_1  and  C_2
REMARK    2  A    between atoms: C_2  and  C_3
REMARK    3  A    between atoms: C_2  and  C_4
REMARK    4  A    between atoms: C_2  and  N_5
REMARK    5  A    between atoms: N_5  and  C_6
REMARK    6  A    between atoms: C_6  and  C_7
REMARK    7  A    between atoms: C_7  and  O_8
REMARK    8  A    between atoms: C_7  and  C_9
REMARK    9  A    between atoms: C_11  and  C_12
REMARK   10  A    between atoms: C_12  and  O_13
REMARK   11  A    between atoms: C_14  and  O_15
REMARK                            x       y       z     vdW  Elec       q    Type
REMARK                         _______ _______ _______ _____ _____    ______ ____
ROOT
ATOM      1  C   UNL     1      -7.863   3.338 121.914  0.00  0.00    +0.000 A 
ATOM      2  C   UNL     1      -6.547   3.755 122.184  0.00  0.00    +0.000 A 
ATOM      3  C   UNL     1      -5.757   4.384 121.197  0.00  0.00    +0.000 A 
ATOM      4  C   UNL     1      -6.336   4.598 119.940  0.00  0.00    +0.000 A 
ATOM      5  C   UNL     1      -7.644   4.229 119.669  0.00  0.00    +0.000 A 
ATOM      6  C   UNL     1      -8.412   3.617 120.654  0.00  0.00    +0.000 A 
ENDROOT
BRANCH   4   7
ATOM      7  O   UNL     1      -5.665   5.183 118.900  0.00  0.00    +0.000 OA
ATOM      8  H   UNL     1      -6.140   6.009 118.680  0.00  0.00    +0.000 HD
ENDBRANCH   4   7
BRANCH   1   9
ATOM      9  C   UNL     1      -8.695   2.678 123.002  0.00  0.00    +0.000 C 
BRANCH   9  10
ATOM     10  O   UNL     1      -8.826   3.542 124.137  0.00  0.00    +0.000 OA
ATOM     11  H   UNL     1      -9.097   2.994 124.889  0.00  0.00    +0.000 HD
ENDBRANCH   9  10
BRANCH   9  12
ATOM     12  C   UNL     1      -8.016   1.359 123.412  0.00  0.00    +0.000 C 
BRANCH  12  13
ATOM     13  N   UNL     1      -8.869   0.183 123.198  0.00  0.00    +0.000 NA
ATOM     14  H   UNL     1      -9.809   0.388 123.544  0.00  0.00    +0.000 HD
BRANCH  13  16
ATOM     15  C   UNL     1      -6.820  -1.070 123.598  0.00  0.00    +0.000 C 
ATOM     16  C   UNL     1      -8.345  -1.056 123.802  0.00  0.00    +0.000 C 
ATOM     17  C   UNL     1      -8.936  -2.306 123.128  0.00  0.00    +0.000 C 
ATOM     18  C   UNL     1      -8.629  -1.073 125.314  0.00  0.00    +0.000 C 
ENDBRANCH  13  16
ENDBRANCH  12  13
ENDBRANCH   9  12
ENDBRANCH   1   9
BRANCH   3  19
ATOM     19  C   UNL     1      -4.349   4.777 121.555  0.00  0.00    +0.000 C 
BRANCH  19  20
ATOM     20  O   UNL     1      -4.051   6.106 121.129  0.00  0.00    +0.000 OA
ATOM     21  H   UNL     1      -4.383   6.162 120.213  0.00  0.00    +0.000 HD
ENDBRANCH  19  20
ENDBRANCH   3  19
TORSDOF 8
ENDMDL
MODEL 2
REMARK VINA RESULT:      -6.2      3.295      5.284
REMARK  Name = Salbutamol
REMARK  11 active torsions:
REMARK  status: ('A' for Active; 'I' for Inactive)
REMARK    1  A    between atoms: C_1  and  C_2
REMARK    2  A    between atoms: C_2  and  C_3
REMARK    3  A    between atoms: C_2  and  C_4
REMARK    4  A    between atoms: C_2  and  N_5
REMARK    5  A    between atoms: N_5  and  C_6
REMARK    6  A    between atoms: C_6  and  C_7
REMARK    7  A    between atoms: C_7  and  O_8
REMARK    8  A    between atoms: C_7  and  C_9
REMARK    9  A    between atoms: C_11  and  C_12
REMARK   10  A    between atoms: C_12  and  O_13
REMARK   11  A    between atoms: C_14  and  O_15
REMARK                            x       y       z     vdW  Elec       q    Type
REMARK                         _______ _______ _______ _____ _____    ______ ____
ROOT
ATOM      1  C   UNL     1      -9.068  -0.719 124.807  0.00  0.00    +0.000 A 
ATOM      2  C   UNL     1      -9.142   0.043 123.627  0.00  0.00    +0.000 A 
ATOM      3  C   UNL     1      -9.148   1.455 123.662  0.00  0.00    +0.000 A 
ATOM      4  C   UNL     1      -9.059   2.075 124.914  0.00  0.00    +0.000 A 
ATOM      5  C   UNL     1      -8.946   1.340 126.084  0.00  0.00    +0.000 A 
ATOM      6  C   UNL     1      -8.934  -0.050 126.032  0.00  0.00    +0.000 A 
ENDROOT
BRANCH   4   7
ATOM      7  O   UNL     1      -9.071   3.434 125.076  0.00  0.00    +0.000 OA
ATOM      8  H   UNL     1      -8.533   3.634 125.868  0.00  0.00    +0.000 HD
ENDBRANCH   4   7
BRANCH   1   9
ATOM      9  C   UNL     1      -9.047  -2.237 124.737  0.00  0.00    +0.000 C 
BRANCH   9  10
ATOM     10  O   UNL     1     -10.132  -2.796 125.488  0.00  0.00    +0.000 OA
ATOM     11  H   UNL     1      -9.747  -3.361 126.175  0.00  0.00    +0.000 HD
ENDBRANCH   9  10
BRANCH   9  12
ATOM     12  C   UNL     1      -7.702  -2.740 125.289  0.00  0.00    +0.000 C 
BRANCH  12  13
ATOM     13  N   UNL     1      -6.893  -3.440 124.282  0.00  0.00    +0.000 NA
ATOM     14  H   UNL     1      -6.594  -4.340 124.665  0.00  0.00    +0.000 HD
BRANCH  13  16
ATOM     15  C   UNL     1      -6.148  -1.994 122.471  0.00  0.00    +0.000 C 
ATOM     16  C   UNL     1      -5.738  -2.665 123.794  0.00  0.00    +0.000 C 
ATOM     17  C   UNL     1      -4.524  -3.570 123.524  0.00  0.00    +0.000 C 
ATOM     18  C   UNL     1      -5.374  -1.561 124.802  0.00  0.00    +0.000 C 
ENDBRANCH  13  16
ENDBRANCH  12  13
ENDBRANCH   9  12
ENDBRANCH   1   9
BRANCH   3  19
ATOM     19  C   UNL     1      -9.256   2.200 122.358  0.00  0.00    +0.000 C 
BRANCH  19  20
ATOM     20  O   UNL     1      -8.583   3.457 122.415  0.00  0.00    +0.000 OA
ATOM     21  H   UNL     1      -9.003   3.939 123.153  0.00  0.00    +0.000 HD
ENDBRANCH  19  20
ENDBRANCH   3  19
TORSDOF 8
ENDMDL
MODEL 3
REMARK VINA RESULT:      -6.1      8.685     10.246
REMARK  Name = Salbutamol
REMARK  11 active torsions:
REMARK  status: ('A' for Active; 'I' for Inactive)
REMARK    1  A    between atoms: C_1  and  C_2
REMARK    2  A    between atoms: C_2  and  C_3
REMARK    3  A    between atoms: C_2  and  C_4
REMARK    4  A    between atoms: C_2  and  N_5
REMARK    5  A    between atoms: N_5  and  C_6
REMARK    6  A    between atoms: C_6  and  C_7
REMARK    7  A    between atoms: C_7  and  O_8
REMARK    8  A    between atoms: C_7  and  C_9
REMARK    9  A    between atoms: C_11  and  C_12
REMARK   10  A    between atoms: C_12  and  O_13
REMARK   11  A    between atoms: C_14  and  O_15
REMARK                            x       y       z     vdW  Elec       q    Type
REMARK                         _______ _______ _______ _____ _____    ______ ____
ROOT
ATOM      1  C   UNL     1     -11.625   6.919 130.964  0.00  0.00    +0.000 A 
ATOM      2  C   UNL     1     -11.049   7.095 129.693  0.00  0.00    +0.000 A 
ATOM      3  C   UNL     1     -11.517   8.088 128.804  0.00  0.00    +0.000 A 
ATOM      4  C   UNL     1     -12.565   8.908 129.239  0.00  0.00    +0.000 A 
ATOM      5  C   UNL     1     -13.117   8.775 130.503  0.00  0.00    +0.000 A 
ATOM      6  C   UNL     1     -12.641   7.796 131.370  0.00  0.00    +0.000 A 
ENDROOT
BRANCH   4   7
ATOM      7  O   UNL     1     -13.112   9.893 128.463  0.00  0.00    +0.000 OA
ATOM      8  H   UNL     1     -13.621   9.452 127.754  0.00  0.00    +0.000 HD
ENDBRANCH   4   7
BRANCH   1   9
ATOM      9  C   UNL     1     -11.089   5.852 131.905  0.00  0.00    +0.000 C 
BRANCH   9  10
ATOM     10  O   UNL     1     -10.331   6.443 132.967  0.00  0.00    +0.000 OA
ATOM     11  H   UNL     1     -10.963   6.779 133.621  0.00  0.00    +0.000 HD
ENDBRANCH   9  10
BRANCH   9  12
ATOM     12  C   UNL     1     -10.209   4.879 131.100  0.00  0.00    +0.000 C 
BRANCH  12  13
ATOM     13  N   UNL     1     -10.488   3.469 131.400  0.00  0.00    +0.000 NA
ATOM     14  H   UNL     1     -11.284   3.417 132.040  0.00  0.00    +0.000 HD
BRANCH  13  16
ATOM     15  C   UNL     1      -9.167   3.122 133.415  0.00  0.00    +0.000 C 
ATOM     16  C   UNL     1      -9.332   2.728 131.936  0.00  0.00    +0.000 C 
ATOM     17  C   UNL     1      -8.035   3.088 131.190  0.00  0.00    +0.000 C 
ATOM     18  C   UNL     1      -9.591   1.213 131.867  0.00  0.00    +0.000 C 
ENDBRANCH  13  16
ENDBRANCH  12  13
ENDBRANCH   9  12
ENDBRANCH   1   9
BRANCH   3  19
ATOM     19  C   UNL     1     -10.866   8.197 127.451  0.00  0.00    +0.000 C 
BRANCH  19  20
ATOM     20  O   UNL     1     -10.697   6.916 126.845  0.00  0.00    +0.000 OA
ATOM     21  H   UNL     1     -10.602   6.291 127.590  0.00  0.00    +0.000 HD
ENDBRANCH  19  20
ENDBRANCH   3  19
TORSDOF 8
ENDMDL
MODEL 4
REMARK VINA RESULT:      -6.1      1.368      2.450
REMARK  Name = Salbutamol
REMARK  11 active torsions:
REMARK  status: ('A' for Active; 'I' for Inactive)
REMARK    1  A    between atoms: C_1  and  C_2
REMARK    2  A    between atoms: C_2  and  C_3
REMARK    3  A    between atoms: C_2  and  C_4
REMARK    4  A    between atoms: C_2  and  N_5
REMARK    5  A    between atoms: N_5  and  C_6
REMARK    6  A    between atoms: C_6  and  C_7
REMARK    7  A    between atoms: C_7  and  O_8
REMARK    8  A    between atoms: C_7  and  C_9
REMARK    9  A    between atoms: C_11  and  C_12
REMARK   10  A    between atoms: C_12  and  O_13
REMARK   11  A    between atoms: C_14  and  O_15
REMARK                            x       y       z     vdW  Elec       q    Type
REMARK                         _______ _______ _______ _____ _____    ______ ____
ROOT
ATOM      1  C   UNL     1      -8.216   2.867 122.428  0.00  0.00    +0.000 A 
ATOM      2  C   UNL     1      -8.711   3.314 121.189  0.00  0.00    +0.000 A 
ATOM      3  C   UNL     1      -7.877   3.971 120.258  0.00  0.00    +0.000 A 
ATOM      4  C   UNL     1      -6.531   4.149 120.602  0.00  0.00    +0.000 A 
ATOM      5  C   UNL     1      -6.018   3.681 121.801  0.00  0.00    +0.000 A 
ATOM      6  C   UNL     1      -6.851   3.028 122.705  0.00  0.00    +0.000 A 
ENDROOT
BRANCH   4   7
ATOM      7  O   UNL     1      -5.632   4.784 119.789  0.00  0.00    +0.000 OA
ATOM      8  H   UNL     1      -4.751   4.683 120.200  0.00  0.00    +0.000 HD
ENDBRANCH   4   7
BRANCH   1   9
ATOM      9  C   UNL     1      -9.134   2.148 123.403  0.00  0.00    +0.000 C 
BRANCH   9  10
ATOM     10  O   UNL     1      -9.433   2.981 124.530  0.00  0.00    +0.000 OA
ATOM     11  H   UNL     1      -9.713   3.843 124.186  0.00  0.00    +0.000 HD
ENDBRANCH   9  10
BRANCH   9  12
ATOM     12  C   UNL     1      -8.445   0.852 123.867  0.00  0.00    +0.000 C 
BRANCH  12  13
ATOM     13  N   UNL     1      -9.397  -0.190 124.275  0.00  0.00    +0.000 NA
ATOM     14  H   UNL     1      -9.871   0.110 125.130  0.00  0.00    +0.000 HD
BRANCH  13  16
ATOM     15  C   UNL     1      -7.262  -1.351 124.408  0.00  0.00    +0.000 C 
ATOM     16  C   UNL     1      -8.791  -1.522 124.449  0.00  0.00    +0.000 C 
ATOM     17  C   UNL     1      -9.202  -2.482 123.320  0.00  0.00    +0.000 C 
ATOM     18  C   UNL     1      -9.173  -2.106 125.820  0.00  0.00    +0.000 C 
ENDBRANCH  13  16
ENDBRANCH  12  13
ENDBRANCH   9  12
ENDBRANCH   1   9
BRANCH   3  19
ATOM     19  C   UNL     1      -8.486   4.442 118.964  0.00  0.00    +0.000 C 
BRANCH  19  20
ATOM     20  O   UNL     1      -9.883   4.156 118.907  0.00  0.00    +0.000 OA
ATOM     21  H   UNL     1     -10.242   4.764 118.233  0.00  0.00    +0.000 HD
ENDBRANCH  19  20
ENDBRANCH   3  19
TORSDOF 8
ENDMDL
MODEL 5
REMARK VINA RESULT:      -5.9      9.149     10.654
REMARK  Name = Salbutamol
REMARK  11 active torsions:
REMARK  status: ('A' for Active; 'I' for Inactive)
REMARK    1  A    between atoms: C_1  and  C_2
REMARK    2  A    between atoms: C_2  and  C_3
REMARK    3  A    between atoms: C_2  and  C_4
REMARK    4  A    between atoms: C_2  and  N_5
REMARK    5  A    between atoms: N_5  and  C_6
REMARK    6  A    between atoms: C_6  and  C_7
REMARK    7  A    between atoms: C_7  and  O_8
REMARK    8  A    between atoms: C_7  and  C_9
REMARK    9  A    between atoms: C_11  and  C_12
REMARK   10  A    between atoms: C_12  and  O_13
REMARK   11  A    between atoms: C_14  and  O_15
REMARK                            x       y       z     vdW  Elec       q    Type
REMARK                         _______ _______ _______ _____ _____    ______ ____
ROOT
ATOM      1  C   UNL     1     -11.054   6.459 130.370  0.00  0.00    +0.000 A 
ATOM      2  C   UNL     1     -10.736   6.731 129.027  0.00  0.00    +0.000 A 
ATOM      3  C   UNL     1     -11.388   7.758 128.310  0.00  0.00    +0.000 A 
ATOM      4  C   UNL     1     -12.353   8.513 128.988  0.00  0.00    +0.000 A 
ATOM      5  C   UNL     1     -12.650   8.285 130.322  0.00  0.00    +0.000 A 
ATOM      6  C   UNL     1     -11.994   7.274 131.017  0.00  0.00    +0.000 A 
ENDROOT
BRANCH   4   7
ATOM      7  O   UNL     1     -13.061   9.523 128.396  0.00  0.00    +0.000 OA
ATOM      8  H   UNL     1     -12.979  10.309 128.971  0.00  0.00    +0.000 HD
ENDBRANCH   4   7
BRANCH   1   9
ATOM      9  C   UNL     1     -10.323   5.357 131.120  0.00  0.00    +0.000 C 
BRANCH   9  10
ATOM     10  O   UNL     1     -11.029   4.115 131.014  0.00  0.00    +0.000 OA
ATOM     11  H   UNL     1     -10.390   3.404 131.172  0.00  0.00    +0.000 HD
ENDBRANCH   9  10
BRANCH   9  12
ATOM     12  C   UNL     1     -10.188   5.769 132.597  0.00  0.00    +0.000 C 
BRANCH  12  13
ATOM     13  N   UNL     1      -8.812   6.121 132.971  0.00  0.00    +0.000 NA
ATOM     14  H   UNL     1      -8.279   6.326 132.122  0.00  0.00    +0.000 HD
BRANCH  13  16
ATOM     15  C   UNL     1      -6.850   4.681 133.041  0.00  0.00    +0.000 C 
ATOM     16  C   UNL     1      -8.131   5.098 133.785  0.00  0.00    +0.000 C 
ATOM     17  C   UNL     1      -9.010   3.850 133.975  0.00  0.00    +0.000 C 
ATOM     18  C   UNL     1      -7.727   5.685 135.149  0.00  0.00    +0.000 C 
ENDBRANCH  13  16
ENDBRANCH  12  13
ENDBRANCH   9  12
ENDBRANCH   1   9
BRANCH   3  19
ATOM     19  C   UNL     1     -11.011   7.972 126.868  0.00  0.00    +0.000 C 
BRANCH  19  20
ATOM     20  O   UNL     1     -11.238   6.799 126.087  0.00  0.00    +0.000 OA
ATOM     21  H   UNL     1     -10.420   6.674 125.569  0.00  0.00    +0.000 HD
ENDBRANCH  19  20
ENDBRANCH   3  19
TORSDOF 8
ENDMDL
MODEL 6
REMARK VINA RESULT:      -5.9      8.006      9.672
REMARK  Name = Salbutamol
REMARK  11 active torsions:
REMARK  status: ('A' for Active; 'I' for Inactive)
REMARK    1  A    between atoms: C_1  and  C_2
REMARK    2  A    between atoms: C_2  and  C_3
REMARK    3  A    between atoms: C_2  and  C_4
REMARK    4  A    between atoms: C_2  and  N_5
REMARK    5  A    between atoms: N_5  and  C_6
REMARK    6  A    between atoms: C_6  and  C_7
REMARK    7  A    between atoms: C_7  and  O_8
REMARK    8  A    between atoms: C_7  and  C_9
REMARK    9  A    between atoms: C_11  and  C_12
REMARK   10  A    between atoms: C_12  and  O_13
REMARK   11  A    between atoms: C_14  and  O_15
REMARK                            x       y       z     vdW  Elec       q    Type
REMARK                         _______ _______ _______ _____ _____    ______ ____
ROOT
ATOM      1  C   UNL     1     -10.562   6.795 130.740  0.00  0.00    +0.000 A 
ATOM      2  C   UNL     1     -10.279   7.070 129.390  0.00  0.00    +0.000 A 
ATOM      3  C   UNL     1     -11.307   7.367 128.468  0.00  0.00    +0.000 A 
ATOM      4  C   UNL     1     -12.622   7.396 128.948  0.00  0.00    +0.000 A 
ATOM      5  C   UNL     1     -12.915   7.165 130.283  0.00  0.00    +0.000 A 
ATOM      6  C   UNL     1     -11.890   6.882 131.180  0.00  0.00    +0.000 A 
ENDROOT
BRANCH   4   7
ATOM      7  O   UNL     1     -13.702   7.655 128.149  0.00  0.00    +0.000 OA
ATOM      8  H   UNL     1     -13.762   6.927 127.500  0.00  0.00    +0.000 HD
ENDBRANCH   4   7
BRANCH   1   9
ATOM      9  C   UNL     1      -9.432   6.495 131.712  0.00  0.00    +0.000 C 
BRANCH   9  10
ATOM     10  O   UNL     1      -8.158   6.684 131.085  0.00  0.00    +0.000 OA
ATOM     11  H   UNL     1      -8.215   6.307 130.194  0.00  0.00    +0.000 HD
ENDBRANCH   9  10
BRANCH   9  12
ATOM     12  C   UNL     1      -9.574   5.044 132.203  0.00  0.00    +0.000 C 
BRANCH  12  13
ATOM     13  N   UNL     1      -8.812   4.085 131.392  0.00  0.00    +0.000 NA
ATOM     14  H   UNL     1      -8.401   4.577 130.596  0.00  0.00    +0.000 HD
BRANCH  13  16
ATOM     15  C   UNL     1      -8.812   2.231 129.814  0.00  0.00    +0.000 C 
ATOM     16  C   UNL     1      -9.597   2.921 130.944  0.00  0.00    +0.000 C 
ATOM     17  C   UNL     1     -10.970   3.344 130.392  0.00  0.00    +0.000 C 
ATOM     18  C   UNL     1      -9.766   1.916 132.096  0.00  0.00    +0.000 C 
ENDBRANCH  13  16
ENDBRANCH  12  13
ENDBRANCH   9  12
ENDBRANCH   1   9
BRANCH   3  19
ATOM     19  C   UNL     1     -10.927   7.625 127.035  0.00  0.00    +0.000 C 
BRANCH  19  20
ATOM     20  O   UNL     1     -11.618   6.751 126.143  0.00  0.00    +0.000 OA
ATOM     21  H   UNL     1     -10.919   6.232 125.701  0.00  0.00    +0.000 HD
ENDBRANCH  19  20
ENDBRANCH   3  19
TORSDOF 8
ENDMDL
MODEL 7
REMARK VINA RESULT:      -5.9      8.840     10.391
REMARK  Name = Salbutamol
REMARK  11 active torsions:
REMARK  status: ('A' for Active; 'I' for Inactive)
REMARK    1  A    between atoms: C_1  and  C_2
REMARK    2  A    between atoms: C_2  and  C_3
REMARK    3  A    between atoms: C_2  and  C_4
REMARK    4  A    between atoms: C_2  and  N_5
REMARK    5  A    between atoms: N_5  and  C_6
REMARK    6  A    between atoms: C_6  and  C_7
REMARK    7  A    between atoms: C_7  and  O_8
REMARK    8  A    between atoms: C_7  and  C_9
REMARK    9  A    between atoms: C_11  and  C_12
REMARK   10  A    between atoms: C_12  and  O_13
REMARK   11  A    between atoms: C_14  and  O_15
REMARK                            x       y       z     vdW  Elec       q    Type
REMARK                         _______ _______ _______ _____ _____    ______ ____
ROOT
ATOM      1  C   UNL     1     -11.512   6.863 131.058  0.00  0.00    +0.000 A 
ATOM      2  C   UNL     1     -10.941   6.980 129.777  0.00  0.00    +0.000 A 
ATOM      3  C   UNL     1     -11.416   7.928 128.844  0.00  0.00    +0.000 A 
ATOM      4  C   UNL     1     -12.466   8.764 129.242  0.00  0.00    +0.000 A 
ATOM      5  C   UNL     1     -13.013   8.689 130.513  0.00  0.00    +0.000 A 
ATOM      6  C   UNL     1     -12.530   7.755 131.424  0.00  0.00    +0.000 A 
ENDROOT
BRANCH   4   7
ATOM      7  O   UNL     1     -13.019   9.709 128.421  0.00  0.00    +0.000 OA
ATOM      8  H   UNL     1     -13.945   9.441 128.257  0.00  0.00    +0.000 HD
ENDBRANCH   4   7
BRANCH   1   9
ATOM      9  C   UNL     1     -10.969   5.845 132.047  0.00  0.00    +0.000 C 
BRANCH   9  10
ATOM     10  O   UNL     1     -10.274   6.495 133.117  0.00  0.00    +0.000 OA
ATOM     11  H   UNL     1      -9.327   6.450 132.917  0.00  0.00    +0.000 HD
ENDBRANCH   9  10
BRANCH   9  12
ATOM     12  C   UNL     1     -10.023   4.887 131.301  0.00  0.00    +0.000 C 
BRANCH  12  13
ATOM     13  N   UNL     1      -8.683   4.822 131.899  0.00  0.00    +0.000 NA
ATOM     14  H   UNL     1      -8.683   5.356 132.771  0.00  0.00    +0.000 HD
BRANCH  13  16
ATOM     15  C   UNL     1      -6.293   4.625 131.481  0.00  0.00    +0.000 C 
ATOM     16  C   UNL     1      -7.604   5.275 131.004  0.00  0.00    +0.000 C 
ATOM     17  C   UNL     1      -7.433   6.804 131.053  0.00  0.00    +0.000 C 
ATOM     18  C   UNL     1      -7.876   4.810 129.563  0.00  0.00    +0.000 C 
ENDBRANCH  13  16
ENDBRANCH  12  13
ENDBRANCH   9  12
ENDBRANCH   1   9
BRANCH   3  19
ATOM     19  C   UNL     1     -10.770   7.974 127.484  0.00  0.00    +0.000 C 
BRANCH  19  20
ATOM     20  O   UNL     1     -10.003   6.798 127.228  0.00  0.00    +0.000 OA
ATOM     21  H   UNL     1      -9.426   6.693 128.008  0.00  0.00    +0.000 HD
ENDBRANCH  19  20
ENDBRANCH   3  19
TORSDOF 8
ENDMDL
MODEL 8
REMARK VINA RESULT:      -5.8      9.239     10.908
REMARK  Name = Salbutamol
REMARK  11 active torsions:
REMARK  status: ('A' for Active; 'I' for Inactive)
REMARK    1  A    between atoms: C_1  and  C_2
REMARK    2  A    between atoms: C_2  and  C_3
REMARK    3  A    between atoms: C_2  and  C_4
REMARK    4  A    between atoms: C_2  and  N_5
REMARK    5  A    between atoms: N_5  and  C_6
REMARK    6  A    between atoms: C_6  and  C_7
REMARK    7  A    between atoms: C_7  and  O_8
REMARK    8  A    between atoms: C_7  and  C_9
REMARK    9  A    between atoms: C_11  and  C_12
REMARK   10  A    between atoms: C_12  and  O_13
REMARK   11  A    between atoms: C_14  and  O_15
REMARK                            x       y       z     vdW  Elec       q    Type
REMARK                         _______ _______ _______ _____ _____    ______ ____
ROOT
ATOM      1  C   UNL     1      -9.493   6.370 131.689  0.00  0.00    +0.000 A 
ATOM      2  C   UNL     1      -8.303   6.675 131.002  0.00  0.00    +0.000 A 
ATOM      3  C   UNL     1      -7.038   6.419 131.574  0.00  0.00    +0.000 A 
ATOM      4  C   UNL     1      -7.005   5.830 132.844  0.00  0.00    +0.000 A 
ATOM      5  C   UNL     1      -8.167   5.487 133.518  0.00  0.00    +0.000 A 
ATOM      6  C   UNL     1      -9.406   5.740 132.938  0.00  0.00    +0.000 A 
ENDROOT
BRANCH   4   7
ATOM      7  O   UNL     1      -5.840   5.548 133.506  0.00  0.00    +0.000 OA
ATOM      8  H   UNL     1      -5.456   6.402 133.787  0.00  0.00    +0.000 HD
ENDBRANCH   4   7
BRANCH   1   9
ATOM      9  C   UNL     1     -10.840   6.643 131.041  0.00  0.00    +0.000 C 
BRANCH   9  10
ATOM     10  O   UNL     1     -11.876   5.889 131.682  0.00  0.00    +0.000 OA
ATOM     11  H   UNL     1     -11.461   5.110 132.083  0.00  0.00    +0.000 HD
ENDBRANCH   9  10
BRANCH   9  12
ATOM     12  C   UNL     1     -10.757   6.272 129.549  0.00  0.00    +0.000 C 
BRANCH  12  13
ATOM     13  N   UNL     1     -12.044   6.400 128.852  0.00  0.00    +0.000 NA
ATOM     14  H   UNL     1     -12.249   5.521 128.371  0.00  0.00    +0.000 HD
BRANCH  13  16
ATOM     15  C   UNL     1     -10.696   8.133 127.802  0.00  0.00    +0.000 C 
ATOM     16  C   UNL     1     -12.110   7.539 127.919  0.00  0.00    +0.000 C 
ATOM     17  C   UNL     1     -13.057   8.637 128.434  0.00  0.00    +0.000 C 
ATOM     18  C   UNL     1     -12.548   7.059 126.524  0.00  0.00    +0.000 C 
ENDBRANCH  13  16
ENDBRANCH  12  13
ENDBRANCH   9  12
ENDBRANCH   1   9
BRANCH   3  19
ATOM     19  C   UNL     1      -5.811   6.797 130.788  0.00  0.00    +0.000 C 
BRANCH  19  20
ATOM     20  O   UNL     1      -4.728   7.155 131.646  0.00  0.00    +0.000 OA
ATOM     21  H   UNL     1      -5.097   7.815 132.263  0.00  0.00    +0.000 HD
ENDBRANCH  19  20
ENDBRANCH   3  19
TORSDOF 8
ENDMDL
MODEL 9
REMARK VINA RESULT:      -5.7      9.453     11.203
REMARK  Name = Salbutamol
REMARK  11 active torsions:
REMARK  status: ('A' for Active; 'I' for Inactive)
REMARK    1  A    between atoms: C_1  and  C_2
REMARK    2  A    between atoms: C_2  and  C_3
REMARK    3  A    between atoms: C_2  and  C_4
REMARK    4  A    between atoms: C_2  and  N_5
REMARK    5  A    between atoms: N_5  and  C_6
REMARK    6  A    between atoms: C_6  and  C_7
REMARK    7  A    between atoms: C_7  and  O_8
REMARK    8  A    between atoms: C_7  and  C_9
REMARK    9  A    between atoms: C_11  and  C_12
REMARK   10  A    between atoms: C_12  and  O_13
REMARK   11  A    between atoms: C_14  and  O_15
REMARK                            x       y       z     vdW  Elec       q    Type
REMARK                         _______ _______ _______ _____ _____    ______ ____
ROOT
ATOM      1  C   UNL     1      -9.617   6.259 131.673  0.00  0.00    +0.000 A 
ATOM      2  C   UNL     1      -9.088   5.727 132.864  0.00  0.00    +0.000 A 
ATOM      3  C   UNL     1      -7.701   5.744 133.124  0.00  0.00    +0.000 A 
ATOM      4  C   UNL     1      -6.866   6.327 132.163  0.00  0.00    +0.000 A 
ATOM      5  C   UNL     1      -7.373   6.891 131.004  0.00  0.00    +0.000 A 
ATOM      6  C   UNL     1      -8.744   6.873 130.765  0.00  0.00    +0.000 A 
ENDROOT
BRANCH   4   7
ATOM      7  O   UNL     1      -5.505   6.389 132.296  0.00  0.00    +0.000 OA
ATOM      8  H   UNL     1      -5.257   7.334 132.279  0.00  0.00    +0.000 HD
ENDBRANCH   4   7
BRANCH   1   9
ATOM      9  C   UNL     1     -11.117   6.241 131.429  0.00  0.00    +0.000 C 
BRANCH   9  10
ATOM     10  O   UNL     1     -11.538   4.961 130.941  0.00  0.00    +0.000 OA
ATOM     11  H   UNL     1     -11.471   4.334 131.677  0.00  0.00    +0.000 HD
ENDBRANCH   9  10
BRANCH   9  12
ATOM     12  C   UNL     1     -11.466   7.340 130.410  0.00  0.00    +0.000 C 
BRANCH  12  13
ATOM     13  N   UNL     1     -12.129   6.819 129.207  0.00  0.00    +0.000 NA
ATOM     14  H   UNL     1     -11.688   5.935 128.941  0.00  0.00    +0.000 HD
BRANCH  13  16
ATOM     15  C   UNL     1     -13.139   8.885 128.407  0.00  0.00    +0.000 C 
ATOM     16  C   UNL     1     -12.142   7.762 128.073  0.00  0.00    +0.000 C 
ATOM     17  C   UNL     1     -12.600   7.077 126.774  0.00  0.00    +0.000 C 
ATOM     18  C   UNL     1     -10.750   8.392 127.889  0.00  0.00    +0.000 C 
ENDBRANCH  13  16
ENDBRANCH  12  13
ENDBRANCH   9  12
ENDBRANCH   1   9
BRANCH   3  19
ATOM     19  C   UNL     1      -7.209   5.132 134.409  0.00  0.00    +0.000 C 
BRANCH  19  20
ATOM     20  O   UNL     1      -5.960   4.465 134.228  0.00  0.00    +0.000 OA
ATOM     21  H   UNL     1      -5.737   4.589 133.286  0.00  0.00    +0.000 HD
ENDBRANCH  19  20
ENDBRANCH   3  19
TORSDOF 8
ENDMDL
