MODEL 1
REMARK VINA RESULT:      -5.5      0.000      0.000
REMARK  Name = Salicylic acid
REMARK  3 active torsions:
REMARK  status: ('A' for Active; 'I' for Inactive)
REMARK    1  A    between atoms: O_1  and  C_2
REMARK    2  A    between atoms: C_2  and  C_4
REMARK    3  A    between atoms: C_9  and  O_10
REMARK                            x       y       z     vdW  Elec       q    Type
REMARK                         _______ _______ _______ _____ _____    ______ ____
ROOT
ATOM      1  C   UNL     1     -11.491   7.349 127.566  0.00  0.00    +0.000 A 
ATOM      2  C   UNL     1     -12.850   7.036 127.429  0.00  0.00    +0.000 A 
ATOM      3  C   UNL     1     -13.696   7.078 128.541  0.00  0.00    +0.000 A 
ATOM      4  C   UNL     1     -13.193   7.466 129.783  0.00  0.00    +0.000 A 
ATOM      5  C   UNL     1     -11.841   7.797 129.923  0.00  0.00    +0.000 A 
ATOM      6  C   UNL     1     -10.991   7.719 128.818  0.00  0.00    +0.000 A 
ENDROOT
BRANCH   1   7
ATOM      7  C   UNL     1     -10.633   7.331 126.359  0.00  0.00    +0.000 C 
ATOM      8  O   UNL     1     -10.819   8.081 125.411  0.00  0.00    +0.000 OA
BRANCH   7   9
ATOM      9  O   UNL     1      -9.694   6.359 126.364  0.00  0.00    +0.000 OA
ATOM     10  H   UNL     1      -9.960   5.578 126.890  0.00  0.00    +0.000 HD
ENDBRANCH   7   9
ENDBRANCH   1   7
BRANCH   6  11
ATOM     11  O   UNL     1      -9.657   7.988 128.952  0.00  0.00    +0.000 OA
ATOM     12  H   UNL     1      -9.535   8.931 129.164  0.00  0.00    +0.000 HD
ENDBRANCH   6  11
TORSDOF 3
ENDMDL
MODEL 2
REMARK VINA RESULT:      -5.3      1.638      2.014
REMARK  Name = Salicylic acid
REMARK  3 active torsions:
REMARK  status: ('A' for Active; 'I' for Inactive)
REMARK    1  A    between atoms: O_1  and  C_2
REMARK    2  A    between atoms: C_2  and  C_4
REMARK    3  A    between atoms: C_9  and  O_10
REMARK                            x       y       z     vdW  Elec       q    Type
REMARK                         _______ _______ _______ _____ _____    ______ ____
ROOT
ATOM      1  C   UNL     1     -11.756   7.382 128.379  0.00  0.00    +0.000 A 
ATOM      2  C   UNL     1     -12.193   8.713 128.392  0.00  0.00    +0.000 A 
ATOM      3  C   UNL     1     -12.804   9.240 129.534  0.00  0.00    +0.000 A 
ATOM      4  C   UNL     1     -12.948   8.449 130.674  0.00  0.00    +0.000 A 
ATOM      5  C   UNL     1     -12.497   7.125 130.673  0.00  0.00    +0.000 A 
ATOM      6  C   UNL     1     -11.920   6.590 129.520  0.00  0.00    +0.000 A 
ENDROOT
BRANCH   1   7
ATOM      7  C   UNL     1     -11.078   6.869 127.166  0.00  0.00    +0.000 C 
ATOM      8  O   UNL     1      -9.887   6.594 127.147  0.00  0.00    +0.000 OA
BRANCH   7   9
ATOM      9  O   UNL     1     -11.868   6.821 126.071  0.00  0.00    +0.000 OA
ATOM     10  H   UNL     1     -12.381   5.989 126.010  0.00  0.00    +0.000 HD
ENDBRANCH   7   9
ENDBRANCH   1   7
BRANCH   6  11
ATOM     11  O   UNL     1     -11.525   5.281 129.487  0.00  0.00    +0.000 OA
ATOM     12  H   UNL     1     -12.125   4.775 128.913  0.00  0.00    +0.000 HD
ENDBRANCH   6  11
TORSDOF 3
ENDMDL
MODEL 3
REMARK VINA RESULT:      -5.2      3.286      4.182
REMARK  Name = Salicylic acid
REMARK  3 active torsions:
REMARK  status: ('A' for Active; 'I' for Inactive)
REMARK    1  A    between atoms: O_1  and  C_2
REMARK    2  A    between atoms: C_2  and  C_4
REMARK    3  A    between atoms: C_9  and  O_10
REMARK                            x       y       z     vdW  Elec       q    Type
REMARK                         _______ _______ _______ _____ _____    ______ ____
ROOT
ATOM      1  C   UNL     1     -11.015   7.060 130.515  0.00  0.00    +0.000 A 
ATOM      2  C   UNL     1     -10.144   7.445 129.487  0.00  0.00    +0.000 A 
ATOM      3  C   UNL     1     -10.590   8.295 128.471  0.00  0.00    +0.000 A 
ATOM      4  C   UNL     1     -11.894   8.788 128.499  0.00  0.00    +0.000 A 
ATOM      5  C   UNL     1     -12.763   8.422 129.532  0.00  0.00    +0.000 A 
ATOM      6  C   UNL     1     -12.326   7.544 130.526  0.00  0.00    +0.000 A 
ENDROOT
BRANCH   1   7
ATOM      7  C   UNL     1     -10.497   6.189 131.595  0.00  0.00    +0.000 C 
ATOM      8  O   UNL     1      -9.576   6.528 132.325  0.00  0.00    +0.000 OA
BRANCH   7   9
ATOM      9  O   UNL     1     -11.067   4.965 131.639  0.00  0.00    +0.000 OA
ATOM     10  H   UNL     1     -11.004   4.549 132.522  0.00  0.00    +0.000 HD
ENDBRANCH   7   9
ENDBRANCH   1   7
BRANCH   6  11
ATOM     11  O   UNL     1     -13.181   7.135 131.512  0.00  0.00    +0.000 OA
ATOM     12  H   UNL     1     -13.018   6.197 131.714  0.00  0.00    +0.000 HD
ENDBRANCH   6  11
TORSDOF 3
ENDMDL
MODEL 4
REMARK VINA RESULT:      -5.2      2.203      3.223
REMARK  Name = Salicylic acid
REMARK  3 active torsions:
REMARK  status: ('A' for Active; 'I' for Inactive)
REMARK    1  A    between atoms: O_1  and  C_2
REMARK    2  A    between atoms: C_2  and  C_4
REMARK    3  A    between atoms: C_9  and  O_10
REMARK                            x       y       z     vdW  Elec       q    Type
REMARK                         _______ _______ _______ _____ _____    ______ ____
ROOT
ATOM      1  C   UNL     1     -12.065   7.921 129.596  0.00  0.00    +0.000 A 
ATOM      2  C   UNL     1     -12.587   7.273 130.723  0.00  0.00    +0.000 A 
ATOM      3  C   UNL     1     -11.744   6.547 131.569  0.00  0.00    +0.000 A 
ATOM      4  C   UNL     1     -10.374   6.496 131.310  0.00  0.00    +0.000 A 
ATOM      5  C   UNL     1      -9.844   7.156 130.196  0.00  0.00    +0.000 A 
ATOM      6  C   UNL     1     -10.694   7.850 129.333  0.00  0.00    +0.000 A 
ENDROOT
BRANCH   1   7
ATOM      7  C   UNL     1     -12.982   8.712 128.743  0.00  0.00    +0.000 C 
ATOM      8  O   UNL     1     -13.763   8.190 127.961  0.00  0.00    +0.000 OA
BRANCH   7   9
ATOM      9  O   UNL     1     -12.812  10.049 128.843  0.00  0.00    +0.000 OA
ATOM     10  H   UNL     1     -13.302  10.545 128.157  0.00  0.00    +0.000 HD
ENDBRANCH   7   9
ENDBRANCH   1   7
BRANCH   6  11
ATOM     11  O   UNL     1     -10.196   8.454 128.211  0.00  0.00    +0.000 OA
ATOM     12  H   UNL     1     -10.905   8.543 127.549  0.00  0.00    +0.000 HD
ENDBRANCH   6  11
TORSDOF 3
ENDMDL
MODEL 5
REMARK VINA RESULT:      -5.2      2.081      3.589
REMARK  Name = Salicylic acid
REMARK  3 active torsions:
REMARK  status: ('A' for Active; 'I' for Inactive)
REMARK    1  A    between atoms: O_1  and  C_2
REMARK    2  A    between atoms: C_2  and  C_4
REMARK    3  A    between atoms: C_9  and  O_10
REMARK                            x       y       z     vdW  Elec       q    Type
REMARK                         _______ _______ _______ _____ _____    ______ ____
ROOT
ATOM      1  C   UNL     1     -12.165   7.026 129.591  0.00  0.00    +0.000 A 
ATOM      2  C   UNL     1     -13.224   6.906 128.681  0.00  0.00    +0.000 A 
ATOM      3  C   UNL     1     -13.005   7.117 127.317  0.00  0.00    +0.000 A 
ATOM      4  C   UNL     1     -11.722   7.414 126.857  0.00  0.00    +0.000 A 
ATOM      5  C   UNL     1     -10.657   7.517 127.758  0.00  0.00    +0.000 A 
ATOM      6  C   UNL     1     -10.886   7.341 129.124  0.00  0.00    +0.000 A 
ENDROOT
BRANCH   1   7
ATOM      7  C   UNL     1     -12.426   6.758 131.024  0.00  0.00    +0.000 C 
ATOM      8  O   UNL     1     -13.213   7.423 131.683  0.00  0.00    +0.000 OA
BRANCH   7   9
ATOM      9  O   UNL     1     -11.656   5.782 131.552  0.00  0.00    +0.000 OA
ATOM     10  H   UNL     1     -11.474   5.058 130.919  0.00  0.00    +0.000 HD
ENDBRANCH   7   9
ENDBRANCH   1   7
BRANCH   6  11
ATOM     11  O   UNL     1      -9.865   7.493 130.021  0.00  0.00    +0.000 OA
ATOM     12  H   UNL     1      -9.160   6.851 129.822  0.00  0.00    +0.000 HD
ENDBRANCH   6  11
TORSDOF 3
ENDMDL
MODEL 6
REMARK VINA RESULT:      -5.2      2.345      3.725
REMARK  Name = Salicylic acid
REMARK  3 active torsions:
REMARK  status: ('A' for Active; 'I' for Inactive)
REMARK    1  A    between atoms: O_1  and  C_2
REMARK    2  A    between atoms: C_2  and  C_4
REMARK    3  A    between atoms: C_9  and  O_10
REMARK                            x       y       z     vdW  Elec       q    Type
REMARK                         _______ _______ _______ _____ _____    ______ ____
ROOT
ATOM      1  C   UNL     1     -11.328   7.010 130.374  0.00  0.00    +0.000 A 
ATOM      2  C   UNL     1     -12.674   7.193 130.034  0.00  0.00    +0.000 A 
ATOM      3  C   UNL     1     -13.019   7.984 128.934  0.00  0.00    +0.000 A 
ATOM      4  C   UNL     1     -12.019   8.563 128.153  0.00  0.00    +0.000 A 
ATOM      5  C   UNL     1     -10.672   8.369 128.478  0.00  0.00    +0.000 A 
ATOM      6  C   UNL     1     -10.332   7.609 129.598  0.00  0.00    +0.000 A 
ENDROOT
BRANCH   1   7
ATOM      7  C   UNL     1     -10.999   6.134 131.523  0.00  0.00    +0.000 C 
ATOM      8  O   UNL     1     -10.478   6.561 132.544  0.00  0.00    +0.000 OA
BRANCH   7   9
ATOM      9  O   UNL     1     -11.240   4.823 131.305  0.00  0.00    +0.000 OA
ATOM     10  H   UNL     1     -10.843   4.246 131.988  0.00  0.00    +0.000 HD
ENDBRANCH   7   9
ENDBRANCH   1   7
BRANCH   6  11
ATOM     11  O   UNL     1      -9.021   7.456 129.958  0.00  0.00    +0.000 OA
ATOM     12  H   UNL     1      -8.540   6.997 129.246  0.00  0.00    +0.000 HD
ENDBRANCH   6  11
TORSDOF 3
ENDMDL
MODEL 7
REMARK VINA RESULT:      -5.2      7.512      9.421
REMARK  Name = Salicylic acid
REMARK  3 active torsions:
REMARK  status: ('A' for Active; 'I' for Inactive)
REMARK    1  A    between atoms: O_1  and  C_2
REMARK    2  A    between atoms: C_2  and  C_4
REMARK    3  A    between atoms: C_9  and  O_10
REMARK                            x       y       z     vdW  Elec       q    Type
REMARK                         _______ _______ _______ _____ _____    ______ ____
ROOT
ATOM      1  C   UNL     1      -7.587   3.532 121.580  0.00  0.00    +0.000 A 
ATOM      2  C   UNL     1      -6.231   3.710 121.883  0.00  0.00    +0.000 A 
ATOM      3  C   UNL     1      -5.363   4.247 120.928  0.00  0.00    +0.000 A 
ATOM      4  C   UNL     1      -5.855   4.637 119.682  0.00  0.00    +0.000 A 
ATOM      5  C   UNL     1      -7.212   4.479 119.381  0.00  0.00    +0.000 A 
ATOM      6  C   UNL     1      -8.069   3.910 120.324  0.00  0.00    +0.000 A 
ENDROOT
BRANCH   1   7
ATOM      7  C   UNL     1      -8.485   2.997 122.630  0.00  0.00    +0.000 C 
ATOM      8  O   UNL     1      -9.264   2.078 122.420  0.00  0.00    +0.000 OA
BRANCH   7   9
ATOM      9  O   UNL     1      -8.428   3.670 123.800  0.00  0.00    +0.000 OA
ATOM     10  H   UNL     1      -7.521   3.723 124.164  0.00  0.00    +0.000 HD
ENDBRANCH   7   9
ENDBRANCH   1   7
BRANCH   6  11
ATOM     11  O   UNL     1      -9.387   3.700 120.022  0.00  0.00    +0.000 OA
ATOM     12  H   UNL     1      -9.848   4.555 119.968  0.00  0.00    +0.000 HD
ENDBRANCH   6  11
TORSDOF 3
ENDMDL
MODEL 8
REMARK VINA RESULT:      -5.1     11.195     12.207
REMARK  Name = Salicylic acid
REMARK  3 active torsions:
REMARK  status: ('A' for Active; 'I' for Inactive)
REMARK    1  A    between atoms: O_1  and  C_2
REMARK    2  A    between atoms: C_2  and  C_4
REMARK    3  A    between atoms: C_9  and  O_10
REMARK                            x       y       z     vdW  Elec       q    Type
REMARK                         _______ _______ _______ _____ _____    ______ ____
ROOT
ATOM      1  C   UNL     1      -8.032  -2.979 123.897  0.00  0.00    +0.000 A 
ATOM      2  C   UNL     1      -7.047  -3.794 124.470  0.00  0.00    +0.000 A 
ATOM      3  C   UNL     1      -5.708  -3.645 124.096  0.00  0.00    +0.000 A 
ATOM      4  C   UNL     1      -5.348  -2.660 123.177  0.00  0.00    +0.000 A 
ATOM      5  C   UNL     1      -6.325  -1.831 122.615  0.00  0.00    +0.000 A 
ATOM      6  C   UNL     1      -7.666  -2.006 122.963  0.00  0.00    +0.000 A 
ENDROOT
BRANCH   1   7
ATOM      7  C   UNL     1      -9.435  -3.139 124.345  0.00  0.00    +0.000 C 
ATOM      8  O   UNL     1      -9.780  -2.942 125.502  0.00  0.00    +0.000 OA
BRANCH   7   9
ATOM      9  O   UNL     1     -10.269  -3.605 123.391  0.00  0.00    +0.000 OA
ATOM     10  H   UNL     1     -11.212  -3.543 123.648  0.00  0.00    +0.000 HD
ENDBRANCH   7   9
ENDBRANCH   1   7
BRANCH   6  11
ATOM     11  O   UNL     1      -8.637  -1.239 122.380  0.00  0.00    +0.000 OA
ATOM     12  H   UNL     1      -8.452  -0.298 122.550  0.00  0.00    +0.000 HD
ENDBRANCH   6  11
TORSDOF 3
ENDMDL
MODEL 9
REMARK VINA RESULT:      -5.1      7.545      9.217
REMARK  Name = Salicylic acid
REMARK  3 active torsions:
REMARK  status: ('A' for Active; 'I' for Inactive)
REMARK    1  A    between atoms: O_1  and  C_2
REMARK    2  A    between atoms: C_2  and  C_4
REMARK    3  A    between atoms: C_9  and  O_10
REMARK                            x       y       z     vdW  Elec       q    Type
REMARK                         _______ _______ _______ _____ _____    ______ ____
ROOT
ATOM      1  C   UNL     1      -8.128   3.549 121.282  0.00  0.00    +0.000 A 
ATOM      2  C   UNL     1      -9.047   3.798 120.254  0.00  0.00    +0.000 A 
ATOM      3  C   UNL     1      -8.609   4.315 119.031  0.00  0.00    +0.000 A 
ATOM      4  C   UNL     1      -7.250   4.551 118.822  0.00  0.00    +0.000 A 
ATOM      5  C   UNL     1      -6.325   4.287 119.838  0.00  0.00    +0.000 A 
ATOM      6  C   UNL     1      -6.770   3.805 121.071  0.00  0.00    +0.000 A 
ENDROOT
BRANCH   1   7
ATOM      7  C   UNL     1      -8.623   2.966 122.550  0.00  0.00    +0.000 C 
ATOM      8  O   UNL     1      -9.313   1.957 122.582  0.00  0.00    +0.000 OA
BRANCH   7   9
ATOM      9  O   UNL     1      -8.321   3.694 123.647  0.00  0.00    +0.000 OA
ATOM     10  H   UNL     1      -7.872   3.168 124.340  0.00  0.00    +0.000 HD
ENDBRANCH   7   9
ENDBRANCH   1   7
BRANCH   6  11
ATOM     11  O   UNL     1      -5.883   3.594 122.091  0.00  0.00    +0.000 OA
ATOM     12  H   UNL     1      -6.172   4.087 122.879  0.00  0.00    +0.000 HD
ENDBRANCH   6  11
TORSDOF 3
ENDMDL
