MODEL 1
REMARK VINA RESULT:      -5.4      0.000      0.000
REMARK  Name = Salicylamide
REMARK  2 active torsions:
REMARK  status: ('A' for Active; 'I' for Inactive)
REMARK    1  A    between atoms: C_2  and  C_4
REMARK    2  A    between atoms: C_9  and  O_10
REMARK                            x       y       z     vdW  Elec       q    Type
REMARK                         _______ _______ _______ _____ _____    ______ ____
ROOT
ATOM      1  C   UNL     1     -12.161   7.077 129.603  0.00  0.00    +0.000 A 
ATOM      2  C   UNL     1     -13.238   6.944 128.714  0.00  0.00    +0.000 A 
ATOM      3  C   UNL     1     -13.039   7.113 127.340  0.00  0.00    +0.000 A 
ATOM      4  C   UNL     1     -11.762   7.389 126.851  0.00  0.00    +0.000 A 
ATOM      5  C   UNL     1     -10.685   7.524 127.732  0.00  0.00    +0.000 A 
ATOM      6  C   UNL     1     -10.890   7.387 129.106  0.00  0.00    +0.000 A 
ENDROOT
BRANCH   1   8
ATOM      7  N   UNL     1     -11.600   5.862 131.634  0.00  0.00    +0.000 N 
ATOM      8  C   UNL     1     -12.387   6.812 131.046  0.00  0.00    +0.000 C 
ATOM      9  O   UNL     1     -13.243   7.424 131.679  0.00  0.00    +0.000 OA
ATOM     10  H   UNL     1     -11.857   5.545 132.558  0.00  0.00    +0.000 HD
ATOM     11  H   UNL     1     -11.025   5.256 131.061  0.00  0.00    +0.000 HD
ENDBRANCH   1   8
BRANCH   6  12
ATOM     12  O   UNL     1      -9.840   7.544 129.971  0.00  0.00    +0.000 OA
ATOM     13  H   UNL     1      -9.760   6.758 130.536  0.00  0.00    +0.000 HD
ENDBRANCH   6  12
TORSDOF 2
ENDMDL
MODEL 2
REMARK VINA RESULT:      -5.3      2.546      3.302
REMARK  Name = Salicylamide
REMARK  2 active torsions:
REMARK  status: ('A' for Active; 'I' for Inactive)
REMARK    1  A    between atoms: C_2  and  C_4
REMARK    2  A    between atoms: C_9  and  O_10
REMARK                            x       y       z     vdW  Elec       q    Type
REMARK                         _______ _______ _______ _____ _____    ______ ____
ROOT
ATOM      1  C   UNL     1     -12.129   7.912 129.531  0.00  0.00    +0.000 A 
ATOM      2  C   UNL     1     -12.616   7.240 130.663  0.00  0.00    +0.000 A 
ATOM      3  C   UNL     1     -11.737   6.545 131.499  0.00  0.00    +0.000 A 
ATOM      4  C   UNL     1     -10.370   6.542 131.222  0.00  0.00    +0.000 A 
ATOM      5  C   UNL     1      -9.878   7.208 130.095  0.00  0.00    +0.000 A 
ATOM      6  C   UNL     1     -10.760   7.875 129.242  0.00  0.00    +0.000 A 
ENDROOT
BRANCH   1   8
ATOM      7  N   UNL     1     -13.000  10.068 128.818  0.00  0.00    +0.000 N 
ATOM      8  C   UNL     1     -13.075   8.707 128.709  0.00  0.00    +0.000 C 
ATOM      9  O   UNL     1     -13.885   8.163 127.965  0.00  0.00    +0.000 OA
ATOM     10  H   UNL     1     -13.744  10.614 128.408  0.00  0.00    +0.000 HD
ATOM     11  H   UNL     1     -12.448  10.487 129.557  0.00  0.00    +0.000 HD
ENDBRANCH   1   8
BRANCH   6  12
ATOM     12  O   UNL     1     -10.282   8.506 128.125  0.00  0.00    +0.000 OA
ATOM     13  H   UNL     1     -11.012   8.948 127.661  0.00  0.00    +0.000 HD
ENDBRANCH   6  12
TORSDOF 2
ENDMDL
MODEL 3
REMARK VINA RESULT:      -5.3      1.708      2.634
REMARK  Name = Salicylamide
REMARK  2 active torsions:
REMARK  status: ('A' for Active; 'I' for Inactive)
REMARK    1  A    between atoms: C_2  and  C_4
REMARK    2  A    between atoms: C_9  and  O_10
REMARK                            x       y       z     vdW  Elec       q    Type
REMARK                         _______ _______ _______ _____ _____    ______ ____
ROOT
ATOM      1  C   UNL     1     -11.107   6.942 130.555  0.00  0.00    +0.000 A 
ATOM      2  C   UNL     1     -10.209   7.256 129.524  0.00  0.00    +0.000 A 
ATOM      3  C   UNL     1     -10.577   8.161 128.524  0.00  0.00    +0.000 A 
ATOM      4  C   UNL     1     -11.830   8.772 128.566  0.00  0.00    +0.000 A 
ATOM      5  C   UNL     1     -12.731   8.462 129.589  0.00  0.00    +0.000 A 
ATOM      6  C   UNL     1     -12.375   7.535 130.571  0.00  0.00    +0.000 A 
ENDROOT
BRANCH   1   8
ATOM      7  N   UNL     1     -10.577   4.708 131.356  0.00  0.00    +0.000 N 
ATOM      8  C   UNL     1     -10.657   6.042 131.646  0.00  0.00    +0.000 C 
ATOM      9  O   UNL     1     -10.369   6.480 132.755  0.00  0.00    +0.000 OA
ATOM     10  H   UNL     1     -10.447   4.067 132.126  0.00  0.00    +0.000 HD
ATOM     11  H   UNL     1     -10.979   4.351 130.497  0.00  0.00    +0.000 HD
ENDBRANCH   1   8
BRANCH   6  12
ATOM     12  O   UNL     1     -13.266   7.213 131.559  0.00  0.00    +0.000 OA
ATOM     13  H   UNL     1     -13.068   6.326 131.902  0.00  0.00    +0.000 HD
ENDBRANCH   6  12
TORSDOF 2
ENDMDL
MODEL 4
REMARK VINA RESULT:      -5.2      2.539      3.697
REMARK  Name = Salicylamide
REMARK  2 active torsions:
REMARK  status: ('A' for Active; 'I' for Inactive)
REMARK    1  A    between atoms: C_2  and  C_4
REMARK    2  A    between atoms: C_9  and  O_10
REMARK                            x       y       z     vdW  Elec       q    Type
REMARK                         _______ _______ _______ _____ _____    ______ ____
ROOT
ATOM      1  C   UNL     1     -11.481   7.447 128.635  0.00  0.00    +0.000 A 
ATOM      2  C   UNL     1     -12.045   8.725 128.768  0.00  0.00    +0.000 A 
ATOM      3  C   UNL     1     -12.779   9.053 129.912  0.00  0.00    +0.000 A 
ATOM      4  C   UNL     1     -12.928   8.116 130.934  0.00  0.00    +0.000 A 
ATOM      5  C   UNL     1     -12.371   6.840 130.807  0.00  0.00    +0.000 A 
ATOM      6  C   UNL     1     -11.665   6.502 129.651  0.00  0.00    +0.000 A 
ENDROOT
BRANCH   1   8
ATOM      7  N   UNL     1     -10.976   7.784 126.280  0.00  0.00    +0.000 N 
ATOM      8  C   UNL     1     -10.640   7.156 127.447  0.00  0.00    +0.000 C 
ATOM      9  O   UNL     1      -9.685   6.388 127.515  0.00  0.00    +0.000 OA
ATOM     10  H   UNL     1     -10.531   7.465 125.430  0.00  0.00    +0.000 HD
ATOM     11  H   UNL     1     -11.859   8.274 126.204  0.00  0.00    +0.000 HD
ENDBRANCH   1   8
BRANCH   6  12
ATOM     12  O   UNL     1     -11.140   5.244 129.515  0.00  0.00    +0.000 OA
ATOM     13  H   UNL     1     -11.393   4.701 130.280  0.00  0.00    +0.000 HD
ENDBRANCH   6  12
TORSDOF 2
ENDMDL
MODEL 5
REMARK VINA RESULT:      -5.2      1.920      2.121
REMARK  Name = Salicylamide
REMARK  2 active torsions:
REMARK  status: ('A' for Active; 'I' for Inactive)
REMARK    1  A    between atoms: C_2  and  C_4
REMARK    2  A    between atoms: C_9  and  O_10
REMARK                            x       y       z     vdW  Elec       q    Type
REMARK                         _______ _______ _______ _____ _____    ______ ____
ROOT
ATOM      1  C   UNL     1     -11.427   6.576 129.900  0.00  0.00    +0.000 A 
ATOM      2  C   UNL     1     -12.445   7.424 130.362  0.00  0.00    +0.000 A 
ATOM      3  C   UNL     1     -12.732   8.611 129.681  0.00  0.00    +0.000 A 
ATOM      4  C   UNL     1     -12.022   8.940 128.526  0.00  0.00    +0.000 A 
ATOM      5  C   UNL     1     -11.005   8.100 128.062  0.00  0.00    +0.000 A 
ATOM      6  C   UNL     1     -10.697   6.930 128.760  0.00  0.00    +0.000 A 
ENDROOT
BRANCH   1   8
ATOM      7  N   UNL     1     -10.911   5.342 131.931  0.00  0.00    +0.000 N 
ATOM      8  C   UNL     1     -11.201   5.285 130.597  0.00  0.00    +0.000 C 
ATOM      9  O   UNL     1     -11.276   4.216 129.997  0.00  0.00    +0.000 OA
ATOM     10  H   UNL     1     -10.582   4.497 132.377  0.00  0.00    +0.000 HD
ATOM     11  H   UNL     1     -10.688   6.230 132.364  0.00  0.00    +0.000 HD
ENDBRANCH   1   8
BRANCH   6  12
ATOM     12  O   UNL     1      -9.685   6.120 128.319  0.00  0.00    +0.000 OA
ATOM     13  H   UNL     1      -9.468   6.339 127.398  0.00  0.00    +0.000 HD
ENDBRANCH   6  12
TORSDOF 2
ENDMDL
MODEL 6
REMARK VINA RESULT:      -5.0      9.734     10.585
REMARK  Name = Salicylamide
REMARK  2 active torsions:
REMARK  status: ('A' for Active; 'I' for Inactive)
REMARK    1  A    between atoms: C_2  and  C_4
REMARK    2  A    between atoms: C_9  and  O_10
REMARK                            x       y       z     vdW  Elec       q    Type
REMARK                         _______ _______ _______ _____ _____    ______ ____
ROOT
ATOM      1  C   UNL     1      -6.500   4.015 121.142  0.00  0.00    +0.000 A 
ATOM      2  C   UNL     1      -7.538   3.905 120.204  0.00  0.00    +0.000 A 
ATOM      3  C   UNL     1      -7.428   4.529 118.958  0.00  0.00    +0.000 A 
ATOM      4  C   UNL     1      -6.272   5.241 118.637  0.00  0.00    +0.000 A 
ATOM      5  C   UNL     1      -5.234   5.356 119.567  0.00  0.00    +0.000 A 
ATOM      6  C   UNL     1      -5.358   4.759 120.823  0.00  0.00    +0.000 A 
ENDROOT
BRANCH   1   8
ATOM      7  N   UNL     1      -6.702   4.020 123.565  0.00  0.00    +0.000 N 
ATOM      8  C   UNL     1      -6.612   3.274 122.423  0.00  0.00    +0.000 C 
ATOM      9  O   UNL     1      -6.626   2.047 122.450  0.00  0.00    +0.000 OA
ATOM     10  H   UNL     1      -6.600   3.540 124.448  0.00  0.00    +0.000 HD
ATOM     11  H   UNL     1      -6.518   5.015 123.536  0.00  0.00    +0.000 HD
ENDBRANCH   1   8
BRANCH   6  12
ATOM     12  O   UNL     1      -4.353   4.892 121.743  0.00  0.00    +0.000 OA
ATOM     13  H   UNL     1      -4.708   4.760 122.638  0.00  0.00    +0.000 HD
ENDBRANCH   6  12
TORSDOF 2
ENDMDL
MODEL 7
REMARK VINA RESULT:      -5.0      1.756      2.635
REMARK  Name = Salicylamide
REMARK  2 active torsions:
REMARK  status: ('A' for Active; 'I' for Inactive)
REMARK    1  A    between atoms: C_2  and  C_4
REMARK    2  A    between atoms: C_9  and  O_10
REMARK                            x       y       z     vdW  Elec       q    Type
REMARK                         _______ _______ _______ _____ _____    ______ ____
ROOT
ATOM      1  C   UNL     1     -11.222   7.382 129.481  0.00  0.00    +0.000 A 
ATOM      2  C   UNL     1     -11.546   8.680 129.058  0.00  0.00    +0.000 A 
ATOM      3  C   UNL     1     -12.745   8.918 128.379  0.00  0.00    +0.000 A 
ATOM      4  C   UNL     1     -13.632   7.868 128.145  0.00  0.00    +0.000 A 
ATOM      5  C   UNL     1     -13.314   6.572 128.562  0.00  0.00    +0.000 A 
ATOM      6  C   UNL     1     -12.102   6.329 129.212  0.00  0.00    +0.000 A 
ENDROOT
BRANCH   1   8
ATOM      7  N   UNL     1     -10.105   6.512 131.459  0.00  0.00    +0.000 N 
ATOM      8  C   UNL     1      -9.981   7.176 130.270  0.00  0.00    +0.000 C 
ATOM      9  O   UNL     1      -8.895   7.582 129.867  0.00  0.00    +0.000 OA
ATOM     10  H   UNL     1      -9.312   6.519 132.085  0.00  0.00    +0.000 HD
ATOM     11  H   UNL     1     -11.023   6.338 131.849  0.00  0.00    +0.000 HD
ENDBRANCH   1   8
BRANCH   6  12
ATOM     12  O   UNL     1     -11.780   5.055 129.598  0.00  0.00    +0.000 OA
ATOM     13  H   UNL     1     -10.961   5.069 130.121  0.00  0.00    +0.000 HD
ENDBRANCH   6  12
TORSDOF 2
ENDMDL
MODEL 8
REMARK VINA RESULT:      -5.0      2.534      4.149
REMARK  Name = Salicylamide
REMARK  2 active torsions:
REMARK  status: ('A' for Active; 'I' for Inactive)
REMARK    1  A    between atoms: C_2  and  C_4
REMARK    2  A    between atoms: C_9  and  O_10
REMARK                            x       y       z     vdW  Elec       q    Type
REMARK                         _______ _______ _______ _____ _____    ______ ____
ROOT
ATOM      1  C   UNL     1     -10.592   6.970 130.401  0.00  0.00    +0.000 A 
ATOM      2  C   UNL     1      -9.231   7.178 130.130  0.00  0.00    +0.000 A 
ATOM      3  C   UNL     1      -8.262   6.789 131.060  0.00  0.00    +0.000 A 
ATOM      4  C   UNL     1      -8.648   6.169 132.248  0.00  0.00    +0.000 A 
ATOM      5  C   UNL     1     -10.003   5.960 132.526  0.00  0.00    +0.000 A 
ATOM      6  C   UNL     1     -10.972   6.378 131.610  0.00  0.00    +0.000 A 
ENDROOT
BRANCH   1   8
ATOM      7  N   UNL     1     -12.457   8.336 129.647  0.00  0.00    +0.000 N 
ATOM      8  C   UNL     1     -11.590   7.319 129.360  0.00  0.00    +0.000 C 
ATOM      9  O   UNL     1     -11.629   6.721 128.289  0.00  0.00    +0.000 OA
ATOM     10  H   UNL     1     -13.248   8.468 129.032  0.00  0.00    +0.000 HD
ATOM     11  H   UNL     1     -12.518   8.698 130.591  0.00  0.00    +0.000 HD
ENDBRANCH   1   8
BRANCH   6  12
ATOM     12  O   UNL     1     -12.299   6.196 131.893  0.00  0.00    +0.000 OA
ATOM     13  H   UNL     1     -12.593   6.868 132.530  0.00  0.00    +0.000 HD
ENDBRANCH   6  12
TORSDOF 2
ENDMDL
MODEL 9
REMARK VINA RESULT:      -4.9     10.921     11.496
REMARK  Name = Salicylamide
REMARK  2 active torsions:
REMARK  status: ('A' for Active; 'I' for Inactive)
REMARK    1  A    between atoms: C_2  and  C_4
REMARK    2  A    between atoms: C_9  and  O_10
REMARK                            x       y       z     vdW  Elec       q    Type
REMARK                         _______ _______ _______ _____ _____    ______ ____
ROOT
ATOM      1  C   UNL     1      -6.686   4.327 120.091  0.00  0.00    +0.000 A 
ATOM      2  C   UNL     1      -6.711   3.661 121.326  0.00  0.00    +0.000 A 
ATOM      3  C   UNL     1      -5.656   3.817 122.230  0.00  0.00    +0.000 A 
ATOM      4  C   UNL     1      -4.588   4.657 121.913  0.00  0.00    +0.000 A 
ATOM      5  C   UNL     1      -4.555   5.321 120.683  0.00  0.00    +0.000 A 
ATOM      6  C   UNL     1      -5.594   5.140 119.768  0.00  0.00    +0.000 A 
ENDROOT
BRANCH   1   8
ATOM      7  N   UNL     1      -9.081   4.044 119.778  0.00  0.00    +0.000 N 
ATOM      8  C   UNL     1      -7.858   4.205 119.189  0.00  0.00    +0.000 C 
ATOM      9  O   UNL     1      -7.729   4.250 117.969  0.00  0.00    +0.000 OA
ATOM     10  H   UNL     1      -9.857   3.784 119.186  0.00  0.00    +0.000 HD
ATOM     11  H   UNL     1      -9.143   3.841 120.768  0.00  0.00    +0.000 HD
ENDBRANCH   1   8
BRANCH   6  12
ATOM     12  O   UNL     1      -5.550   5.771 118.554  0.00  0.00    +0.000 OA
ATOM     13  H   UNL     1      -6.022   6.619 118.608  0.00  0.00    +0.000 HD
ENDBRANCH   6  12
TORSDOF 2
ENDMDL
