MODEL 1
REMARK VINA RESULT:      -6.4      0.000      0.000
REMARK  Name = Salmeterol
REMARK  19 active torsions:
REMARK  status: ('A' for Active; 'I' for Inactive)
REMARK    1  A    between atoms: O_1  and  C_2
REMARK    2  A    between atoms: C_2  and  C_3
REMARK    3  A    between atoms: C_4  and  O_5
REMARK    4  A    between atoms: C_8  and  C_10
REMARK    5  A    between atoms: C_10  and  O_11
REMARK    6  A    between atoms: C_10  and  C_12
REMARK    7  A    between atoms: C_12  and  N_13
REMARK    8  A    between atoms: N_13  and  C_14
REMARK    9  A    between atoms: C_14  and  C_15
REMARK   10  A    between atoms: C_15  and  C_16
REMARK   11  A    between atoms: C_16  and  C_17
REMARK   12  A    between atoms: C_17  and  C_18
REMARK   13  A    between atoms: C_18  and  C_19
REMARK   14  A    between atoms: C_19  and  O_20
REMARK   15  A    between atoms: O_20  and  C_21
REMARK   16  A    between atoms: C_21  and  C_22
REMARK   17  A    between atoms: C_22  and  C_23
REMARK   18  A    between atoms: C_23  and  C_24
REMARK   19  A    between atoms: C_24  and  C_25
REMARK                            x       y       z     vdW  Elec       q    Type
REMARK                         _______ _______ _______ _____ _____    ______ ____
ROOT
ATOM      1  N   UNL     1      -6.903   2.946 126.619  0.00  0.00    +0.000 NA
ATOM      2  H   UNL     1      -7.374   3.801 126.314  0.00  0.00    +0.000 HD
ENDROOT
BRANCH   1   3
ATOM      3  C   UNL     1      -7.862   1.920 126.997  0.00  0.00    +0.000 C 
BRANCH   3   4
ATOM      4  C   UNL     1      -7.857   0.846 125.933  0.00  0.00    +0.000 C 
BRANCH   4   5
ATOM      5  C   UNL     1      -9.259   0.286 125.774  0.00  0.00    +0.000 C 
BRANCH   5   6
ATOM      6  C   UNL     1      -9.731   0.491 124.349  0.00  0.00    +0.000 C 
BRANCH   6   7
ATOM      7  C   UNL     1      -8.689  -0.012 123.371  0.00  0.00    +0.000 C 
BRANCH   7   8
ATOM      8  C   UNL     1      -9.116  -1.358 122.834  0.00  0.00    +0.000 C 
BRANCH   8   9
ATOM      9  O   UNL     1      -7.990  -1.965 122.220  0.00  0.00    +0.000 OA
BRANCH   9  10
ATOM     10  C   UNL     1      -6.801  -1.457 122.799  0.00  0.00    +0.000 C 
BRANCH  10  11
ATOM     11  C   UNL     1      -6.066  -2.602 123.471  0.00  0.00    +0.000 C 
BRANCH  11  12
ATOM     12  C   UNL     1      -6.289  -2.488 124.961  0.00  0.00    +0.000 C 
BRANCH  12  13
ATOM     13  C   UNL     1      -7.604  -3.098 125.429  0.00  0.00    +0.000 C 
BRANCH  13  14
ATOM     14  C   UNL     1      -7.783  -2.996 126.928  0.00  0.00    +0.000 A 
ATOM     15  C   UNL     1      -6.889  -2.216 127.673  0.00  0.00    +0.000 A 
ATOM     16  C   UNL     1      -6.956  -2.216 129.068  0.00  0.00    +0.000 A 
ATOM     17  C   UNL     1      -7.942  -2.941 129.730  0.00  0.00    +0.000 A 
ATOM     18  C   UNL     1      -8.868  -3.679 129.002  0.00  0.00    +0.000 A 
ATOM     19  C   UNL     1      -8.784  -3.702 127.615  0.00  0.00    +0.000 A 
ENDBRANCH  13  14
ENDBRANCH  12  13
ENDBRANCH  11  12
ENDBRANCH  10  11
ENDBRANCH   9  10
ENDBRANCH   8   9
ENDBRANCH   7   8
ENDBRANCH   6   7
ENDBRANCH   5   6
ENDBRANCH   4   5
ENDBRANCH   3   4
ENDBRANCH   1   3
BRANCH   1  20
ATOM     20  C   UNL     1      -6.084   2.440 125.525  0.00  0.00    +0.000 C 
BRANCH  20  21
ATOM     21  C   UNL     1      -5.436   3.559 124.689  0.00  0.00    +0.000 C 
BRANCH  21  26
ATOM     22  C   UNL     1      -5.934   4.386 120.945  0.00  0.00    +0.000 A 
ATOM     23  C   UNL     1      -7.234   3.912 120.770  0.00  0.00    +0.000 A 
ATOM     24  C   UNL     1      -7.945   3.360 121.838  0.00  0.00    +0.000 A 
ATOM     25  C   UNL     1      -7.362   3.250 123.100  0.00  0.00    +0.000 A 
ATOM     26  C   UNL     1      -6.050   3.680 123.308  0.00  0.00    +0.000 A 
ATOM     27  C   UNL     1      -5.361   4.249 122.220  0.00  0.00    +0.000 A 
BRANCH  23  28
ATOM     28  O   UNL     1      -7.903   3.945 119.581  0.00  0.00    +0.000 OA
ATOM     29  H   UNL     1      -7.664   3.176 119.045  0.00  0.00    +0.000 HD
ENDBRANCH  23  28
BRANCH  22  30
ATOM     30  C   UNL     1      -5.117   5.098 119.904  0.00  0.00    +0.000 C 
BRANCH  30  31
ATOM     31  O   UNL     1      -4.627   6.305 120.471  0.00  0.00    +0.000 OA
ATOM     32  H   UNL     1      -3.667   6.208 120.584  0.00  0.00    +0.000 HD
ENDBRANCH  30  31
ENDBRANCH  22  30
ENDBRANCH  21  26
BRANCH  21  33
ATOM     33  O   UNL     1      -5.592   4.804 125.386  0.00  0.00    +0.000 OA
ATOM     34  H   UNL     1      -5.043   4.749 126.184  0.00  0.00    +0.000 HD
ENDBRANCH  21  33
ENDBRANCH  20  21
ENDBRANCH   1  20
TORSDOF 19
ENDMDL
MODEL 2
REMARK VINA RESULT:      -6.4      4.392      6.224
REMARK  Name = Salmeterol
REMARK  19 active torsions:
REMARK  status: ('A' for Active; 'I' for Inactive)
REMARK    1  A    between atoms: O_1  and  C_2
REMARK    2  A    between atoms: C_2  and  C_3
REMARK    3  A    between atoms: C_4  and  O_5
REMARK    4  A    between atoms: C_8  and  C_10
REMARK    5  A    between atoms: C_10  and  O_11
REMARK    6  A    between atoms: C_10  and  C_12
REMARK    7  A    between atoms: C_12  and  N_13
REMARK    8  A    between atoms: N_13  and  C_14
REMARK    9  A    between atoms: C_14  and  C_15
REMARK   10  A    between atoms: C_15  and  C_16
REMARK   11  A    between atoms: C_16  and  C_17
REMARK   12  A    between atoms: C_17  and  C_18
REMARK   13  A    between atoms: C_18  and  C_19
REMARK   14  A    between atoms: C_19  and  O_20
REMARK   15  A    between atoms: O_20  and  C_21
REMARK   16  A    between atoms: C_21  and  C_22
REMARK   17  A    between atoms: C_22  and  C_23
REMARK   18  A    between atoms: C_23  and  C_24
REMARK   19  A    between atoms: C_24  and  C_25
REMARK                            x       y       z     vdW  Elec       q    Type
REMARK                         _______ _______ _______ _____ _____    ______ ____
ROOT
ATOM      1  N   UNL     1      -8.978   2.481 129.612  0.00  0.00    +0.000 NA
ATOM      2  H   UNL     1      -9.101   2.860 128.671  0.00  0.00    +0.000 HD
ENDROOT
BRANCH   1   3
ATOM      3  C   UNL     1      -7.857   1.556 129.668  0.00  0.00    +0.000 C 
BRANCH   3   4
ATOM      4  C   UNL     1      -7.491   1.163 128.253  0.00  0.00    +0.000 C 
BRANCH   4   5
ATOM      5  C   UNL     1      -8.720   1.261 127.368  0.00  0.00    +0.000 C 
BRANCH   5   6
ATOM      6  C   UNL     1      -8.377   0.795 125.968  0.00  0.00    +0.000 C 
BRANCH   6   7
ATOM      7  C   UNL     1      -9.633   0.685 125.127  0.00  0.00    +0.000 C 
BRANCH   7   8
ATOM      8  C   UNL     1      -9.249   0.481 123.680  0.00  0.00    +0.000 C 
BRANCH   8   9
ATOM      9  O   UNL     1      -9.793  -0.757 123.250  0.00  0.00    +0.000 OA
BRANCH   9  10
ATOM     10  C   UNL     1      -8.758  -1.716 123.133  0.00  0.00    +0.000 C 
BRANCH  10  11
ATOM     11  C   UNL     1      -9.344  -3.091 123.396  0.00  0.00    +0.000 C 
BRANCH  11  12
ATOM     12  C   UNL     1      -8.666  -3.660 124.620  0.00  0.00    +0.000 C 
BRANCH  12  13
ATOM     13  C   UNL     1      -9.180  -3.074 125.929  0.00  0.00    +0.000 C 
BRANCH  13  14
ATOM     14  C   UNL     1      -8.056  -2.718 126.879  0.00  0.00    +0.000 A 
ATOM     15  C   UNL     1      -6.808  -2.351 126.357  0.00  0.00    +0.000 A 
ATOM     16  C   UNL     1      -5.724  -2.149 127.214  0.00  0.00    +0.000 A 
ATOM     17  C   UNL     1      -5.882  -2.254 128.592  0.00  0.00    +0.000 A 
ATOM     18  C   UNL     1      -7.126  -2.567 129.128  0.00  0.00    +0.000 A 
ATOM     19  C   UNL     1      -8.198  -2.796 128.273  0.00  0.00    +0.000 A 
ENDBRANCH  13  14
ENDBRANCH  12  13
ENDBRANCH  11  12
ENDBRANCH  10  11
ENDBRANCH   9  10
ENDBRANCH   8   9
ENDBRANCH   7   8
ENDBRANCH   6   7
ENDBRANCH   5   6
ENDBRANCH   4   5
ENDBRANCH   3   4
ENDBRANCH   1   3
BRANCH   1  20
ATOM     20  C   UNL     1      -8.723   3.580 130.535  0.00  0.00    +0.000 C 
BRANCH  20  21
ATOM     21  C   UNL     1     -10.013   4.199 131.105  0.00  0.00    +0.000 C 
BRANCH  21  26
ATOM     22  C   UNL     1     -12.052   6.820 129.124  0.00  0.00    +0.000 A 
ATOM     23  C   UNL     1     -11.102   7.837 129.033  0.00  0.00    +0.000 A 
ATOM     24  C   UNL     1      -9.826   7.675 129.575  0.00  0.00    +0.000 A 
ATOM     25  C   UNL     1      -9.478   6.500 130.241  0.00  0.00    +0.000 A 
ATOM     26  C   UNL     1     -10.412   5.472 130.385  0.00  0.00    +0.000 A 
ATOM     27  C   UNL     1     -11.687   5.653 129.814  0.00  0.00    +0.000 A 
BRANCH  23  28
ATOM     28  O   UNL     1     -11.329   9.039 128.427  0.00  0.00    +0.000 OA
ATOM     29  H   UNL     1     -11.861   9.605 129.002  0.00  0.00    +0.000 HD
ENDBRANCH  23  28
BRANCH  22  30
ATOM     30  C   UNL     1     -13.412   6.836 128.485  0.00  0.00    +0.000 C 
BRANCH  30  31
ATOM     31  O   UNL     1     -13.256   7.183 127.116  0.00  0.00    +0.000 OA
ATOM     32  H   UNL     1     -12.577   6.600 126.741  0.00  0.00    +0.000 HD
ENDBRANCH  30  31
ENDBRANCH  22  30
ENDBRANCH  21  26
BRANCH  21  33
ATOM     33  O   UNL     1     -11.074   3.240 130.992  0.00  0.00    +0.000 OA
ATOM     34  H   UNL     1     -11.058   2.708 131.803  0.00  0.00    +0.000 HD
ENDBRANCH  21  33
ENDBRANCH  20  21
ENDBRANCH   1  20
TORSDOF 19
ENDMDL
MODEL 3
REMARK VINA RESULT:      -6.1      4.889      7.152
REMARK  Name = Salmeterol
REMARK  19 active torsions:
REMARK  status: ('A' for Active; 'I' for Inactive)
REMARK    1  A    between atoms: O_1  and  C_2
REMARK    2  A    between atoms: C_2  and  C_3
REMARK    3  A    between atoms: C_4  and  O_5
REMARK    4  A    between atoms: C_8  and  C_10
REMARK    5  A    between atoms: C_10  and  O_11
REMARK    6  A    between atoms: C_10  and  C_12
REMARK    7  A    between atoms: C_12  and  N_13
REMARK    8  A    between atoms: N_13  and  C_14
REMARK    9  A    between atoms: C_14  and  C_15
REMARK   10  A    between atoms: C_15  and  C_16
REMARK   11  A    between atoms: C_16  and  C_17
REMARK   12  A    between atoms: C_17  and  C_18
REMARK   13  A    between atoms: C_18  and  C_19
REMARK   14  A    between atoms: C_19  and  O_20
REMARK   15  A    between atoms: O_20  and  C_21
REMARK   16  A    between atoms: C_21  and  C_22
REMARK   17  A    between atoms: C_22  and  C_23
REMARK   18  A    between atoms: C_23  and  C_24
REMARK   19  A    between atoms: C_24  and  C_25
REMARK                            x       y       z     vdW  Elec       q    Type
REMARK                         _______ _______ _______ _____ _____    ______ ____
ROOT
ATOM      1  N   UNL     1      -8.835   3.681 129.890  0.00  0.00    +0.000 NA
ATOM      2  H   UNL     1      -9.704   3.353 129.464  0.00  0.00    +0.000 HD
ENDROOT
BRANCH   1   3
ATOM      3  C   UNL     1      -7.806   3.908 128.887  0.00  0.00    +0.000 C 
BRANCH   3   4
ATOM      4  C   UNL     1      -7.863   2.781 127.880  0.00  0.00    +0.000 C 
BRANCH   4   5
ATOM      5  C   UNL     1      -8.636   1.615 128.471  0.00  0.00    +0.000 C 
BRANCH   5   6
ATOM      6  C   UNL     1      -7.691   0.462 128.740  0.00  0.00    +0.000 C 
BRANCH   6   7
ATOM      7  C   UNL     1      -7.856  -0.033 130.163  0.00  0.00    +0.000 C 
BRANCH   7   8
ATOM      8  C   UNL     1      -7.927  -1.542 130.161  0.00  0.00    +0.000 C 
BRANCH   8   9
ATOM      9  O   UNL     1      -7.331  -2.010 128.962  0.00  0.00    +0.000 OA
BRANCH   9  10
ATOM     10  C   UNL     1      -7.569  -3.400 128.823  0.00  0.00    +0.000 C 
BRANCH  10  11
ATOM     11  C   UNL     1      -8.760  -3.593 127.901  0.00  0.00    +0.000 C 
BRANCH  11  12
ATOM     12  C   UNL     1      -8.582  -2.676 126.713  0.00  0.00    +0.000 C 
BRANCH  12  13
ATOM     13  C   UNL     1      -8.781  -3.371 125.372  0.00  0.00    +0.000 C 
BRANCH  13  14
ATOM     14  C   UNL     1      -7.655  -3.082 124.403  0.00  0.00    +0.000 A 
ATOM     15  C   UNL     1      -6.446  -3.780 124.530  0.00  0.00    +0.000 A 
ATOM     16  C   UNL     1      -5.353  -3.434 123.733  0.00  0.00    +0.000 A 
ATOM     17  C   UNL     1      -5.465  -2.437 122.769  0.00  0.00    +0.000 A 
ATOM     18  C   UNL     1      -6.674  -1.772 122.597  0.00  0.00    +0.000 A 
ATOM     19  C   UNL     1      -7.754  -2.096 123.409  0.00  0.00    +0.000 A 
ENDBRANCH  13  14
ENDBRANCH  12  13
ENDBRANCH  11  12
ENDBRANCH  10  11
ENDBRANCH   9  10
ENDBRANCH   8   9
ENDBRANCH   7   8
ENDBRANCH   6   7
ENDBRANCH   5   6
ENDBRANCH   4   5
ENDBRANCH   3   4
ENDBRANCH   1   3
BRANCH   1  20
ATOM     20  C   UNL     1      -9.093   4.935 130.586  0.00  0.00    +0.000 C 
BRANCH  20  21
ATOM     21  C   UNL     1     -10.574   5.120 130.965  0.00  0.00    +0.000 C 
BRANCH  21  26
ATOM     22  C   UNL     1     -11.528   7.685 128.232  0.00  0.00    +0.000 A 
ATOM     23  C   UNL     1     -12.397   8.495 128.964  0.00  0.00    +0.000 A 
ATOM     24  C   UNL     1     -12.652   8.237 130.312  0.00  0.00    +0.000 A 
ATOM     25  C   UNL     1     -12.061   7.150 130.953  0.00  0.00    +0.000 A 
ATOM     26  C   UNL     1     -11.214   6.294 130.248  0.00  0.00    +0.000 A 
ATOM     27  C   UNL     1     -10.958   6.585 128.894  0.00  0.00    +0.000 A 
BRANCH  23  28
ATOM     28  O   UNL     1     -13.051   9.574 128.443  0.00  0.00    +0.000 OA
ATOM     29  H   UNL     1     -12.533   9.960 127.723  0.00  0.00    +0.000 HD
ENDBRANCH  23  28
BRANCH  22  30
ATOM     30  C   UNL     1     -11.091   7.929 126.815  0.00  0.00    +0.000 C 
BRANCH  30  31
ATOM     31  O   UNL     1     -11.667   6.923 125.993  0.00  0.00    +0.000 OA
ATOM     32  H   UNL     1     -10.961   6.563 125.431  0.00  0.00    +0.000 HD
ENDBRANCH  30  31
ENDBRANCH  22  30
ENDBRANCH  21  26
BRANCH  21  33
ATOM     33  O   UNL     1     -11.288   3.920 130.635  0.00  0.00    +0.000 OA
ATOM     34  H   UNL     1     -10.638   3.302 130.263  0.00  0.00    +0.000 HD
ENDBRANCH  21  33
ENDBRANCH  20  21
ENDBRANCH   1  20
TORSDOF 19
ENDMDL
MODEL 4
REMARK VINA RESULT:      -6.1      5.443      7.730
REMARK  Name = Salmeterol
REMARK  19 active torsions:
REMARK  status: ('A' for Active; 'I' for Inactive)
REMARK    1  A    between atoms: O_1  and  C_2
REMARK    2  A    between atoms: C_2  and  C_3
REMARK    3  A    between atoms: C_4  and  O_5
REMARK    4  A    between atoms: C_8  and  C_10
REMARK    5  A    between atoms: C_10  and  O_11
REMARK    6  A    between atoms: C_10  and  C_12
REMARK    7  A    between atoms: C_12  and  N_13
REMARK    8  A    between atoms: N_13  and  C_14
REMARK    9  A    between atoms: C_14  and  C_15
REMARK   10  A    between atoms: C_15  and  C_16
REMARK   11  A    between atoms: C_16  and  C_17
REMARK   12  A    between atoms: C_17  and  C_18
REMARK   13  A    between atoms: C_18  and  C_19
REMARK   14  A    between atoms: C_19  and  O_20
REMARK   15  A    between atoms: O_20  and  C_21
REMARK   16  A    between atoms: C_21  and  C_22
REMARK   17  A    between atoms: C_22  and  C_23
REMARK   18  A    between atoms: C_23  and  C_24
REMARK   19  A    between atoms: C_24  and  C_25
REMARK                            x       y       z     vdW  Elec       q    Type
REMARK                         _______ _______ _______ _____ _____    ______ ____
ROOT
ATOM      1  N   UNL     1      -9.639   4.178 132.717  0.00  0.00    +0.000 NA
ATOM      2  H   UNL     1     -10.488   3.621 132.835  0.00  0.00    +0.000 HD
ENDROOT
BRANCH   1   3
ATOM      3  C   UNL     1      -8.517   3.352 132.298  0.00  0.00    +0.000 C 
BRANCH   3   4
ATOM      4  C   UNL     1      -8.761   1.937 132.773  0.00  0.00    +0.000 C 
BRANCH   4   5
ATOM      5  C   UNL     1      -9.393   1.131 131.654  0.00  0.00    +0.000 C 
BRANCH   5   6
ATOM      6  C   UNL     1      -8.668  -0.191 131.505  0.00  0.00    +0.000 C 
BRANCH   6   7
ATOM      7  C   UNL     1      -7.194   0.043 131.245  0.00  0.00    +0.000 C 
BRANCH   7   8
ATOM      8  C   UNL     1      -6.669  -1.042 130.334  0.00  0.00    +0.000 C 
BRANCH   8   9
ATOM      9  O   UNL     1      -7.363  -2.243 130.633  0.00  0.00    +0.000 OA
BRANCH   9  10
ATOM     10  C   UNL     1      -7.299  -3.119 129.522  0.00  0.00    +0.000 C 
BRANCH  10  11
ATOM     11  C   UNL     1      -8.714  -3.498 129.128  0.00  0.00    +0.000 C 
BRANCH  11  12
ATOM     12  C   UNL     1      -8.767  -3.596 127.620  0.00  0.00    +0.000 C 
BRANCH  12  13
ATOM     13  C   UNL     1      -7.985  -2.497 126.911  0.00  0.00    +0.000 C 
BRANCH  13  14
ATOM     14  C   UNL     1      -8.491  -2.247 125.506  0.00  0.00    +0.000 A 
ATOM     15  C   UNL     1      -8.968  -3.325 124.749  0.00  0.00    +0.000 A 
ATOM     16  C   UNL     1      -9.314  -3.138 123.408  0.00  0.00    +0.000 A 
ATOM     17  C   UNL     1      -9.243  -1.876 122.828  0.00  0.00    +0.000 A 
ATOM     18  C   UNL     1      -8.821  -0.787 123.582  0.00  0.00    +0.000 A 
ATOM     19  C   UNL     1      -8.449  -0.978 124.908  0.00  0.00    +0.000 A 
ENDBRANCH  13  14
ENDBRANCH  12  13
ENDBRANCH  11  12
ENDBRANCH  10  11
ENDBRANCH   9  10
ENDBRANCH   8   9
ENDBRANCH   7   8
ENDBRANCH   6   7
ENDBRANCH   5   6
ENDBRANCH   4   5
ENDBRANCH   3   4
ENDBRANCH   1   3
BRANCH   1  20
ATOM     20  C   UNL     1      -9.877   5.194 131.700  0.00  0.00    +0.000 C 
BRANCH  20  21
ATOM     21  C   UNL     1     -11.228   5.022 130.982  0.00  0.00    +0.000 C 
BRANCH  21  26
ATOM     22  C   UNL     1     -11.715   7.775 128.310  0.00  0.00    +0.000 A 
ATOM     23  C   UNL     1     -12.509   8.665 129.032  0.00  0.00    +0.000 A 
ATOM     24  C   UNL     1     -12.861   8.399 130.356  0.00  0.00    +0.000 A 
ATOM     25  C   UNL     1     -12.445   7.225 130.981  0.00  0.00    +0.000 A 
ATOM     26  C   UNL     1     -11.678   6.290 130.282  0.00  0.00    +0.000 A 
ATOM     27  C   UNL     1     -11.322   6.590 128.953  0.00  0.00    +0.000 A 
BRANCH  23  28
ATOM     28  O   UNL     1     -12.996   9.836 128.524  0.00  0.00    +0.000 OA
ATOM     29  H   UNL     1     -12.690  10.581 129.058  0.00  0.00    +0.000 HD
ENDBRANCH  23  28
BRANCH  22  30
ATOM     30  C   UNL     1     -11.182   8.006 126.924  0.00  0.00    +0.000 C 
BRANCH  30  31
ATOM     31  O   UNL     1     -11.247   6.779 126.211  0.00  0.00    +0.000 OA
ATOM     32  H   UNL     1     -12.171   6.480 126.224  0.00  0.00    +0.000 HD
ENDBRANCH  30  31
ENDBRANCH  22  30
ENDBRANCH  21  26
BRANCH  21  33
ATOM     33  O   UNL     1     -11.106   3.968 130.016  0.00  0.00    +0.000 OA
ATOM     34  H   UNL     1     -12.008   3.716 129.761  0.00  0.00    +0.000 HD
ENDBRANCH  21  33
ENDBRANCH  20  21
ENDBRANCH   1  20
TORSDOF 19
ENDMDL
MODEL 5
REMARK VINA RESULT:      -6.1      4.706      8.708
REMARK  Name = Salmeterol
REMARK  19 active torsions:
REMARK  status: ('A' for Active; 'I' for Inactive)
REMARK    1  A    between atoms: O_1  and  C_2
REMARK    2  A    between atoms: C_2  and  C_3
REMARK    3  A    between atoms: C_4  and  O_5
REMARK    4  A    between atoms: C_8  and  C_10
REMARK    5  A    between atoms: C_10  and  O_11
REMARK    6  A    between atoms: C_10  and  C_12
REMARK    7  A    between atoms: C_12  and  N_13
REMARK    8  A    between atoms: N_13  and  C_14
REMARK    9  A    between atoms: C_14  and  C_15
REMARK   10  A    between atoms: C_15  and  C_16
REMARK   11  A    between atoms: C_16  and  C_17
REMARK   12  A    between atoms: C_17  and  C_18
REMARK   13  A    between atoms: C_18  and  C_19
REMARK   14  A    between atoms: C_19  and  O_20
REMARK   15  A    between atoms: O_20  and  C_21
REMARK   16  A    between atoms: C_21  and  C_22
REMARK   17  A    between atoms: C_22  and  C_23
REMARK   18  A    between atoms: C_23  and  C_24
REMARK   19  A    between atoms: C_24  and  C_25
REMARK                            x       y       z     vdW  Elec       q    Type
REMARK                         _______ _______ _______ _____ _____    ______ ____
ROOT
ATOM      1  N   UNL     1      -9.863   1.985 124.416  0.00  0.00    +0.000 NA
ATOM      2  H   UNL     1     -10.493   1.211 124.640  0.00  0.00    +0.000 HD
ENDROOT
BRANCH   1   3
ATOM      3  C   UNL     1      -8.844   2.151 125.440  0.00  0.00    +0.000 C 
BRANCH   3   4
ATOM      4  C   UNL     1      -8.778   0.881 126.260  0.00  0.00    +0.000 C 
BRANCH   4   5
ATOM      5  C   UNL     1      -7.869   1.099 127.455  0.00  0.00    +0.000 C 
BRANCH   5   6
ATOM      6  C   UNL     1      -8.661   1.708 128.594  0.00  0.00    +0.000 C 
BRANCH   6   7
ATOM      7  C   UNL     1      -7.815   2.718 129.343  0.00  0.00    +0.000 C 
BRANCH   7   8
ATOM      8  C   UNL     1      -8.017   4.087 128.736  0.00  0.00    +0.000 C 
BRANCH   8   9
ATOM      9  O   UNL     1      -9.332   4.518 129.048  0.00  0.00    +0.000 OA
BRANCH   9  10
ATOM     10  C   UNL     1      -9.486   4.595 130.454  0.00  0.00    +0.000 C 
BRANCH  10  11
ATOM     11  C   UNL     1      -8.830   5.874 130.940  0.00  0.00    +0.000 C 
BRANCH  11  12
ATOM     12  C   UNL     1      -9.654   7.039 130.442  0.00  0.00    +0.000 C 
BRANCH  12  13
ATOM     13  C   UNL     1     -11.082   7.047 130.975  0.00  0.00    +0.000 C 
BRANCH  13  14
ATOM     14  C   UNL     1     -12.085   7.469 129.923  0.00  0.00    +0.000 A 
ATOM     15  C   UNL     1     -12.672   6.493 129.106  0.00  0.00    +0.000 A 
ATOM     16  C   UNL     1     -13.496   6.874 128.045  0.00  0.00    +0.000 A 
ATOM     17  C   UNL     1     -13.789   8.216 127.821  0.00  0.00    +0.000 A 
ATOM     18  C   UNL     1     -13.254   9.191 128.654  0.00  0.00    +0.000 A 
ATOM     19  C   UNL     1     -12.411   8.815 129.693  0.00  0.00    +0.000 A 
ENDBRANCH  13  14
ENDBRANCH  12  13
ENDBRANCH  11  12
ENDBRANCH  10  11
ENDBRANCH   9  10
ENDBRANCH   8   9
ENDBRANCH   7   8
ENDBRANCH   6   7
ENDBRANCH   5   6
ENDBRANCH   4   5
ENDBRANCH   3   4
ENDBRANCH   1   3
BRANCH   1  20
ATOM     20  C   UNL     1      -9.207   1.709 123.144  0.00  0.00    +0.000 C 
BRANCH  20  21
ATOM     21  C   UNL     1      -9.725   0.428 122.465  0.00  0.00    +0.000 C 
BRANCH  21  26
ATOM     22  C   UNL     1      -7.055  -2.035 123.792  0.00  0.00    +0.000 A 
ATOM     23  C   UNL     1      -7.846  -3.171 123.961  0.00  0.00    +0.000 A 
ATOM     24  C   UNL     1      -9.203  -3.154 123.633  0.00  0.00    +0.000 A 
ATOM     25  C   UNL     1      -9.804  -1.992 123.149  0.00  0.00    +0.000 A 
ATOM     26  C   UNL     1      -9.055  -0.823 122.999  0.00  0.00    +0.000 A 
ATOM     27  C   UNL     1      -7.685  -0.871 123.320  0.00  0.00    +0.000 A 
BRANCH  23  28
ATOM     28  O   UNL     1      -7.380  -4.359 124.445  0.00  0.00    +0.000 OA
ATOM     29  H   UNL     1      -8.016  -5.064 124.264  0.00  0.00    +0.000 HD
ENDBRANCH  23  28
BRANCH  22  30
ATOM     30  C   UNL     1      -5.568  -1.967 124.003  0.00  0.00    +0.000 C 
BRANCH  30  31
ATOM     31  O   UNL     1      -4.976  -3.085 123.356  0.00  0.00    +0.000 OA
ATOM     32  H   UNL     1      -4.286  -3.432 123.945  0.00  0.00    +0.000 HD
ENDBRANCH  30  31
ENDBRANCH  22  30
ENDBRANCH  21  26
BRANCH  21  33
ATOM     33  O   UNL     1     -11.140   0.333 122.677  0.00  0.00    +0.000 OA
ATOM     34  H   UNL     1     -11.352   0.919 123.421  0.00  0.00    +0.000 HD
ENDBRANCH  21  33
ENDBRANCH  20  21
ENDBRANCH   1  20
TORSDOF 19
ENDMDL
MODEL 6
REMARK VINA RESULT:      -6.1      4.960      7.110
REMARK  Name = Salmeterol
REMARK  19 active torsions:
REMARK  status: ('A' for Active; 'I' for Inactive)
REMARK    1  A    between atoms: O_1  and  C_2
REMARK    2  A    between atoms: C_2  and  C_3
REMARK    3  A    between atoms: C_4  and  O_5
REMARK    4  A    between atoms: C_8  and  C_10
REMARK    5  A    between atoms: C_10  and  O_11
REMARK    6  A    between atoms: C_10  and  C_12
REMARK    7  A    between atoms: C_12  and  N_13
REMARK    8  A    between atoms: N_13  and  C_14
REMARK    9  A    between atoms: C_14  and  C_15
REMARK   10  A    between atoms: C_15  and  C_16
REMARK   11  A    between atoms: C_16  and  C_17
REMARK   12  A    between atoms: C_17  and  C_18
REMARK   13  A    between atoms: C_18  and  C_19
REMARK   14  A    between atoms: C_19  and  O_20
REMARK   15  A    between atoms: O_20  and  C_21
REMARK   16  A    between atoms: C_21  and  C_22
REMARK   17  A    between atoms: C_22  and  C_23
REMARK   18  A    between atoms: C_23  and  C_24
REMARK   19  A    between atoms: C_24  and  C_25
REMARK                            x       y       z     vdW  Elec       q    Type
REMARK                         _______ _______ _______ _____ _____    ______ ____
ROOT
ATOM      1  N   UNL     1      -9.299   3.735 132.010  0.00  0.00    +0.000 NA
ATOM      2  H   UNL     1      -9.907   3.956 132.801  0.00  0.00    +0.000 HD
ENDROOT
BRANCH   1   3
ATOM      3  C   UNL     1      -9.945   2.817 131.085  0.00  0.00    +0.000 C 
BRANCH   3   4
ATOM      4  C   UNL     1      -9.199   2.859 129.769  0.00  0.00    +0.000 C 
BRANCH   4   5
ATOM      5  C   UNL     1      -8.386   1.588 129.610  0.00  0.00    +0.000 C 
BRANCH   5   6
ATOM      6  C   UNL     1      -8.271   1.237 128.141  0.00  0.00    +0.000 C 
BRANCH   6   7
ATOM      7  C   UNL     1      -6.829   0.943 127.780  0.00  0.00    +0.000 C 
BRANCH   7   8
ATOM      8  C   UNL     1      -6.072   2.244 127.648  0.00  0.00    +0.000 C 
BRANCH   8   9
ATOM      9  O   UNL     1      -6.419   2.831 126.404  0.00  0.00    +0.000 OA
BRANCH   9  10
ATOM     10  C   UNL     1      -5.985   1.996 125.346  0.00  0.00    +0.000 C 
BRANCH  10  11
ATOM     11  C   UNL     1      -6.718   2.402 124.081  0.00  0.00    +0.000 C 
BRANCH  11  12
ATOM     12  C   UNL     1      -7.474   1.195 123.573  0.00  0.00    +0.000 C 
BRANCH  12  13
ATOM     13  C   UNL     1      -8.627   0.774 124.477  0.00  0.00    +0.000 C 
BRANCH  13  14
ATOM     14  C   UNL     1      -8.887  -0.716 124.418  0.00  0.00    +0.000 A 
ATOM     15  C   UNL     1      -9.051  -1.430 125.613  0.00  0.00    +0.000 A 
ATOM     16  C   UNL     1      -9.159  -2.822 125.586  0.00  0.00    +0.000 A 
ATOM     17  C   UNL     1      -9.161  -3.509 124.376  0.00  0.00    +0.000 A 
ATOM     18  C   UNL     1      -9.050  -2.810 123.180  0.00  0.00    +0.000 A 
ATOM     19  C   UNL     1      -8.914  -1.427 123.208  0.00  0.00    +0.000 A 
ENDBRANCH  13  14
ENDBRANCH  12  13
ENDBRANCH  11  12
ENDBRANCH  10  11
ENDBRANCH   9  10
ENDBRANCH   8   9
ENDBRANCH   7   8
ENDBRANCH   6   7
ENDBRANCH   5   6
ENDBRANCH   4   5
ENDBRANCH   3   4
ENDBRANCH   1   3
BRANCH   1  20
ATOM     20  C   UNL     1      -8.979   4.967 131.299  0.00  0.00    +0.000 C 
BRANCH  20  21
ATOM     21  C   UNL     1      -9.815   6.170 131.774  0.00  0.00    +0.000 C 
BRANCH  21  26
ATOM     22  C   UNL     1     -11.411   7.267 128.427  0.00  0.00    +0.000 A 
ATOM     23  C   UNL     1     -12.723   7.479 128.850  0.00  0.00    +0.000 A 
ATOM     24  C   UNL     1     -13.082   7.297 130.187  0.00  0.00    +0.000 A 
ATOM     25  C   UNL     1     -12.141   6.877 131.127  0.00  0.00    +0.000 A 
ATOM     26  C   UNL     1     -10.826   6.619 130.736  0.00  0.00    +0.000 A 
ATOM     27  C   UNL     1     -10.484   6.826 129.386  0.00  0.00    +0.000 A 
BRANCH  23  28
ATOM     28  O   UNL     1     -13.736   7.870 128.023  0.00  0.00    +0.000 OA
ATOM     29  H   UNL     1     -13.546   8.744 127.657  0.00  0.00    +0.000 HD
ENDBRANCH  23  28
BRANCH  22  30
ATOM     30  C   UNL     1     -10.885   7.537 127.045  0.00  0.00    +0.000 C 
BRANCH  30  31
ATOM     31  O   UNL     1     -11.614   6.735 126.126  0.00  0.00    +0.000 OA
ATOM     32  H   UNL     1     -11.073   5.953 125.927  0.00  0.00    +0.000 HD
ENDBRANCH  30  31
ENDBRANCH  22  30
ENDBRANCH  21  26
BRANCH  21  33
ATOM     33  O   UNL     1     -10.505   5.806 132.978  0.00  0.00    +0.000 OA
ATOM     34  H   UNL     1     -10.466   4.838 133.041  0.00  0.00    +0.000 HD
ENDBRANCH  21  33
ENDBRANCH  20  21
ENDBRANCH   1  20
TORSDOF 19
ENDMDL
MODEL 7
REMARK VINA RESULT:      -6.0      5.644      7.750
REMARK  Name = Salmeterol
REMARK  19 active torsions:
REMARK  status: ('A' for Active; 'I' for Inactive)
REMARK    1  A    between atoms: O_1  and  C_2
REMARK    2  A    between atoms: C_2  and  C_3
REMARK    3  A    between atoms: C_4  and  O_5
REMARK    4  A    between atoms: C_8  and  C_10
REMARK    5  A    between atoms: C_10  and  O_11
REMARK    6  A    between atoms: C_10  and  C_12
REMARK    7  A    between atoms: C_12  and  N_13
REMARK    8  A    between atoms: N_13  and  C_14
REMARK    9  A    between atoms: C_14  and  C_15
REMARK   10  A    between atoms: C_15  and  C_16
REMARK   11  A    between atoms: C_16  and  C_17
REMARK   12  A    between atoms: C_17  and  C_18
REMARK   13  A    between atoms: C_18  and  C_19
REMARK   14  A    between atoms: C_19  and  O_20
REMARK   15  A    between atoms: O_20  and  C_21
REMARK   16  A    between atoms: C_21  and  C_22
REMARK   17  A    between atoms: C_22  and  C_23
REMARK   18  A    between atoms: C_23  and  C_24
REMARK   19  A    between atoms: C_24  and  C_25
REMARK                            x       y       z     vdW  Elec       q    Type
REMARK                         _______ _______ _______ _____ _____    ______ ____
ROOT
ATOM      1  N   UNL     1      -8.875   4.071 131.571  0.00  0.00    +0.000 NA
ATOM      2  H   UNL     1      -9.524   3.962 132.353  0.00  0.00    +0.000 HD
ENDROOT
BRANCH   1   3
ATOM      3  C   UNL     1      -9.375   3.414 130.373  0.00  0.00    +0.000 C 
BRANCH   3   4
ATOM      4  C   UNL     1      -8.387   2.343 129.968  0.00  0.00    +0.000 C 
BRANCH   4   5
ATOM      5  C   UNL     1      -8.319   1.283 131.053  0.00  0.00    +0.000 C 
BRANCH   5   6
ATOM      6  C   UNL     1      -8.035  -0.068 130.429  0.00  0.00    +0.000 C 
BRANCH   6   7
ATOM      7  C   UNL     1      -8.079  -1.155 131.483  0.00  0.00    +0.000 C 
BRANCH   7   8
ATOM      8  C   UNL     1      -7.309  -0.702 132.701  0.00  0.00    +0.000 C 
BRANCH   8   9
ATOM      9  O   UNL     1      -6.236  -1.607 132.906  0.00  0.00    +0.000 OA
BRANCH   9  10
ATOM     10  C   UNL     1      -6.703  -2.938 132.766  0.00  0.00    +0.000 C 
BRANCH  10  11
ATOM     11  C   UNL     1      -5.519  -3.830 132.440  0.00  0.00    +0.000 C 
BRANCH  11  12
ATOM     12  C   UNL     1      -5.733  -4.402 131.058  0.00  0.00    +0.000 C 
BRANCH  12  13
ATOM     13  C   UNL     1      -5.297  -3.466 129.937  0.00  0.00    +0.000 C 
BRANCH  13  14
ATOM     14  C   UNL     1      -6.429  -3.144 128.985  0.00  0.00    +0.000 A 
ATOM     15  C   UNL     1      -7.672  -3.765 129.164  0.00  0.00    +0.000 A 
ATOM     16  C   UNL     1      -8.686  -3.584 128.220  0.00  0.00    +0.000 A 
ATOM     17  C   UNL     1      -8.494  -2.744 127.127  0.00  0.00    +0.000 A 
ATOM     18  C   UNL     1      -7.284  -2.081 126.964  0.00  0.00    +0.000 A 
ATOM     19  C   UNL     1      -6.264  -2.284 127.888  0.00  0.00    +0.000 A 
ENDBRANCH  13  14
ENDBRANCH  12  13
ENDBRANCH  11  12
ENDBRANCH  10  11
ENDBRANCH   9  10
ENDBRANCH   8   9
ENDBRANCH   7   8
ENDBRANCH   6   7
ENDBRANCH   5   6
ENDBRANCH   4   5
ENDBRANCH   3   4
ENDBRANCH   1   3
BRANCH   1  20
ATOM     20  C   UNL     1      -8.708   5.492 131.290  0.00  0.00    +0.000 C 
BRANCH  20  21
ATOM     21  C   UNL     1      -9.859   6.354 131.841  0.00  0.00    +0.000 C 
BRANCH  21  26
ATOM     22  C   UNL     1     -11.427   7.310 128.439  0.00  0.00    +0.000 A 
ATOM     23  C   UNL     1     -12.760   7.453 128.826  0.00  0.00    +0.000 A 
ATOM     24  C   UNL     1     -13.143   7.269 130.156  0.00  0.00    +0.000 A 
ATOM     25  C   UNL     1     -12.204   6.917 131.125  0.00  0.00    +0.000 A 
ATOM     26  C   UNL     1     -10.866   6.729 130.772  0.00  0.00    +0.000 A 
ATOM     27  C   UNL     1     -10.502   6.938 129.428  0.00  0.00    +0.000 A 
BRANCH  23  28
ATOM     28  O   UNL     1     -13.772   7.773 127.968  0.00  0.00    +0.000 OA
ATOM     29  H   UNL     1     -13.961   7.026 127.384  0.00  0.00    +0.000 HD
ENDBRANCH  23  28
BRANCH  22  30
ATOM     30  C   UNL     1     -10.882   7.592 127.067  0.00  0.00    +0.000 C 
BRANCH  30  31
ATOM     31  O   UNL     1     -11.574   6.770 126.136  0.00  0.00    +0.000 OA
ATOM     32  H   UNL     1     -12.344   6.394 126.593  0.00  0.00    +0.000 HD
ENDBRANCH  30  31
ENDBRANCH  22  30
ENDBRANCH  21  26
BRANCH  21  33
ATOM     33  O   UNL     1     -10.524   5.624 132.882  0.00  0.00    +0.000 OA
ATOM     34  H   UNL     1     -10.783   6.272 133.557  0.00  0.00    +0.000 HD
ENDBRANCH  21  33
ENDBRANCH  20  21
ENDBRANCH   1  20
TORSDOF 19
ENDMDL
MODEL 8
REMARK VINA RESULT:      -5.9      3.787      6.936
REMARK  Name = Salmeterol
REMARK  19 active torsions:
REMARK  status: ('A' for Active; 'I' for Inactive)
REMARK    1  A    between atoms: O_1  and  C_2
REMARK    2  A    between atoms: C_2  and  C_3
REMARK    3  A    between atoms: C_4  and  O_5
REMARK    4  A    between atoms: C_8  and  C_10
REMARK    5  A    between atoms: C_10  and  O_11
REMARK    6  A    between atoms: C_10  and  C_12
REMARK    7  A    between atoms: C_12  and  N_13
REMARK    8  A    between atoms: N_13  and  C_14
REMARK    9  A    between atoms: C_14  and  C_15
REMARK   10  A    between atoms: C_15  and  C_16
REMARK   11  A    between atoms: C_16  and  C_17
REMARK   12  A    between atoms: C_17  and  C_18
REMARK   13  A    between atoms: C_18  and  C_19
REMARK   14  A    between atoms: C_19  and  O_20
REMARK   15  A    between atoms: O_20  and  C_21
REMARK   16  A    between atoms: C_21  and  C_22
REMARK   17  A    between atoms: C_22  and  C_23
REMARK   18  A    between atoms: C_23  and  C_24
REMARK   19  A    between atoms: C_24  and  C_25
REMARK                            x       y       z     vdW  Elec       q    Type
REMARK                         _______ _______ _______ _____ _____    ______ ____
ROOT
ATOM      1  N   UNL     1      -6.477  -3.730 131.042  0.00  0.00    +0.000 NA
ATOM      2  H   UNL     1      -7.236  -4.327 131.379  0.00  0.00    +0.000 HD
ENDROOT
BRANCH   1   3
ATOM      3  C   UNL     1      -6.555  -3.537 129.603  0.00  0.00    +0.000 C 
BRANCH   3   4
ATOM      4  C   UNL     1      -7.970  -3.136 129.250  0.00  0.00    +0.000 C 
BRANCH   4   5
ATOM      5  C   UNL     1      -7.970  -2.401 127.922  0.00  0.00    +0.000 C 
BRANCH   5   6
ATOM      6  C   UNL     1      -6.552  -2.011 127.556  0.00  0.00    +0.000 C 
BRANCH   6   7
ATOM      7  C   UNL     1      -6.559  -0.827 126.610  0.00  0.00    +0.000 C 
BRANCH   7   8
ATOM      8  C   UNL     1      -7.964  -0.282 126.501  0.00  0.00    +0.000 C 
BRANCH   8   9
ATOM      9  O   UNL     1      -7.882   1.130 126.396  0.00  0.00    +0.000 OA
BRANCH   9  10
ATOM     10  C   UNL     1      -8.338   1.539 125.118  0.00  0.00    +0.000 C 
BRANCH  10  11
ATOM     11  C   UNL     1      -9.397   0.558 124.650  0.00  0.00    +0.000 C 
BRANCH  11  12
ATOM     12  C   UNL     1      -9.149   0.270 123.187  0.00  0.00    +0.000 C 
BRANCH  12  13
ATOM     13  C   UNL     1      -9.345  -1.194 122.813  0.00  0.00    +0.000 C 
BRANCH  13  14
ATOM     14  C   UNL     1      -8.156  -2.049 123.200  0.00  0.00    +0.000 A 
ATOM     15  C   UNL     1      -8.360  -3.186 123.993  0.00  0.00    +0.000 A 
ATOM     16  C   UNL     1      -7.265  -3.910 124.470  0.00  0.00    +0.000 A 
ATOM     17  C   UNL     1      -5.968  -3.547 124.119  0.00  0.00    +0.000 A 
ATOM     18  C   UNL     1      -5.753  -2.451 123.292  0.00  0.00    +0.000 A 
ATOM     19  C   UNL     1      -6.842  -1.713 122.840  0.00  0.00    +0.000 A 
ENDBRANCH  13  14
ENDBRANCH  12  13
ENDBRANCH  11  12
ENDBRANCH  10  11
ENDBRANCH   9  10
ENDBRANCH   8   9
ENDBRANCH   7   8
ENDBRANCH   6   7
ENDBRANCH   5   6
ENDBRANCH   4   5
ENDBRANCH   3   4
ENDBRANCH   1   3
BRANCH   1  20
ATOM     20  C   UNL     1      -6.574  -2.430 131.694  0.00  0.00    +0.000 C 
BRANCH  20  21
ATOM     21  C   UNL     1      -5.335  -1.545 131.460  0.00  0.00    +0.000 C 
BRANCH  21  26
ATOM     22  C   UNL     1      -7.235   1.428 129.877  0.00  0.00    +0.000 A 
ATOM     23  C   UNL     1      -6.210   1.978 129.108  0.00  0.00    +0.000 A 
ATOM     24  C   UNL     1      -4.943   1.394 129.079  0.00  0.00    +0.000 A 
ATOM     25  C   UNL     1      -4.666   0.257 129.838  0.00  0.00    +0.000 A 
ATOM     26  C   UNL     1      -5.654  -0.304 130.649  0.00  0.00    +0.000 A 
ATOM     27  C   UNL     1      -6.929   0.293 130.647  0.00  0.00    +0.000 A 
BRANCH  23  28
ATOM     28  O   UNL     1      -6.352   3.099 128.341  0.00  0.00    +0.000 OA
ATOM     29  H   UNL     1      -5.547   3.254 127.829  0.00  0.00    +0.000 HD
ENDBRANCH  23  28
BRANCH  22  30
ATOM     30  C   UNL     1      -8.661   1.901 129.899  0.00  0.00    +0.000 C 
BRANCH  30  31
ATOM     31  O   UNL     1      -8.998   2.360 128.597  0.00  0.00    +0.000 OA
ATOM     32  H   UNL     1      -8.170   2.587 128.143  0.00  0.00    +0.000 HD
ENDBRANCH  30  31
ENDBRANCH  22  30
ENDBRANCH  21  26
BRANCH  21  33
ATOM     33  O   UNL     1      -4.803  -1.153 132.733  0.00  0.00    +0.000 OA
ATOM     34  H   UNL     1      -5.525  -1.235 133.377  0.00  0.00    +0.000 HD
ENDBRANCH  21  33
ENDBRANCH  20  21
ENDBRANCH   1  20
TORSDOF 19
ENDMDL
MODEL 9
REMARK VINA RESULT:      -5.9      5.585      8.797
REMARK  Name = Salmeterol
REMARK  19 active torsions:
REMARK  status: ('A' for Active; 'I' for Inactive)
REMARK    1  A    between atoms: O_1  and  C_2
REMARK    2  A    between atoms: C_2  and  C_3
REMARK    3  A    between atoms: C_4  and  O_5
REMARK    4  A    between atoms: C_8  and  C_10
REMARK    5  A    between atoms: C_10  and  O_11
REMARK    6  A    between atoms: C_10  and  C_12
REMARK    7  A    between atoms: C_12  and  N_13
REMARK    8  A    between atoms: N_13  and  C_14
REMARK    9  A    between atoms: C_14  and  C_15
REMARK   10  A    between atoms: C_15  and  C_16
REMARK   11  A    between atoms: C_16  and  C_17
REMARK   12  A    between atoms: C_17  and  C_18
REMARK   13  A    between atoms: C_18  and  C_19
REMARK   14  A    between atoms: C_19  and  O_20
REMARK   15  A    between atoms: O_20  and  C_21
REMARK   16  A    between atoms: C_21  and  C_22
REMARK   17  A    between atoms: C_22  and  C_23
REMARK   18  A    between atoms: C_23  and  C_24
REMARK   19  A    between atoms: C_24  and  C_25
REMARK                            x       y       z     vdW  Elec       q    Type
REMARK                         _______ _______ _______ _____ _____    ______ ____
ROOT
ATOM      1  N   UNL     1      -7.643   2.450 133.642  0.00  0.00    +0.000 NA
ATOM      2  H   UNL     1      -8.582   2.331 133.257  0.00  0.00    +0.000 HD
ENDROOT
BRANCH   1   3
ATOM      3  C   UNL     1      -6.635   1.871 132.767  0.00  0.00    +0.000 C 
BRANCH   3   4
ATOM      4  C   UNL     1      -5.979   2.989 131.988  0.00  0.00    +0.000 C 
BRANCH   4   5
ATOM      5  C   UNL     1      -4.978   2.403 131.009  0.00  0.00    +0.000 C 
BRANCH   5   6
ATOM      6  C   UNL     1      -3.946   3.450 130.646  0.00  0.00    +0.000 C 
BRANCH   6   7
ATOM      7  C   UNL     1      -4.520   4.841 130.826  0.00  0.00    +0.000 C 
BRANCH   7   8
ATOM      8  C   UNL     1      -4.575   5.536 129.486  0.00  0.00    +0.000 C 
BRANCH   8   9
ATOM      9  O   UNL     1      -3.530   5.019 128.678  0.00  0.00    +0.000 OA
BRANCH   9  10
ATOM     10  C   UNL     1      -3.953   4.970 127.327  0.00  0.00    +0.000 C 
BRANCH  10  11
ATOM     11  C   UNL     1      -3.515   3.644 126.734  0.00  0.00    +0.000 C 
BRANCH  11  12
ATOM     12  C   UNL     1      -4.536   2.600 127.125  0.00  0.00    +0.000 C 
BRANCH  12  13
ATOM     13  C   UNL     1      -5.961   2.962 126.724  0.00  0.00    +0.000 C 
BRANCH  13  14
ATOM     14  C   UNL     1      -6.942   2.773 127.862  0.00  0.00    +0.000 A 
ATOM     15  C   UNL     1      -7.236   1.476 128.304  0.00  0.00    +0.000 A 
ATOM     16  C   UNL     1      -8.235   1.274 129.259  0.00  0.00    +0.000 A 
ATOM     17  C   UNL     1      -8.908   2.354 129.821  0.00  0.00    +0.000 A 
ATOM     18  C   UNL     1      -8.591   3.650 129.428  0.00  0.00    +0.000 A 
ATOM     19  C   UNL     1      -7.617   3.850 128.457  0.00  0.00    +0.000 A 
ENDBRANCH  13  14
ENDBRANCH  12  13
ENDBRANCH  11  12
ENDBRANCH  10  11
ENDBRANCH   9  10
ENDBRANCH   8   9
ENDBRANCH   7   8
ENDBRANCH   6   7
ENDBRANCH   5   6
ENDBRANCH   4   5
ENDBRANCH   3   4
ENDBRANCH   1   3
BRANCH   1  20
ATOM     20  C   UNL     1      -7.370   3.874 133.791  0.00  0.00    +0.000 C 
BRANCH  20  21
ATOM     21  C   UNL     1      -8.648   4.722 133.925  0.00  0.00    +0.000 C 
BRANCH  21  26
ATOM     22  C   UNL     1     -10.439   6.567 131.037  0.00  0.00    +0.000 A 
ATOM     23  C   UNL     1      -9.337   7.154 130.414  0.00  0.00    +0.000 A 
ATOM     24  C   UNL     1      -8.044   6.941 130.897  0.00  0.00    +0.000 A 
ATOM     25  C   UNL     1      -7.827   6.155 132.028  0.00  0.00    +0.000 A 
ATOM     26  C   UNL     1      -8.906   5.580 132.702  0.00  0.00    +0.000 A 
ATOM     27  C   UNL     1     -10.198   5.794 132.185  0.00  0.00    +0.000 A 
BRANCH  23  28
ATOM     28  O   UNL     1      -9.423   7.959 129.315  0.00  0.00    +0.000 OA
ATOM     29  H   UNL     1      -9.766   8.827 129.566  0.00  0.00    +0.000 HD
ENDBRANCH  23  28
BRANCH  22  30
ATOM     30  C   UNL     1     -11.857   6.632 130.544  0.00  0.00    +0.000 C 
BRANCH  30  31
ATOM     31  O   UNL     1     -12.142   7.976 130.184  0.00  0.00    +0.000 OA
ATOM     32  H   UNL     1     -11.876   8.542 130.927  0.00  0.00    +0.000 HD
ENDBRANCH  30  31
ENDBRANCH  22  30
ENDBRANCH  21  26
BRANCH  21  33
ATOM     33  O   UNL     1      -9.764   3.844 134.130  0.00  0.00    +0.000 OA
ATOM     34  H   UNL     1     -10.566   4.379 134.014  0.00  0.00    +0.000 HD
ENDBRANCH  21  33
ENDBRANCH  20  21
ENDBRANCH   1  20
TORSDOF 19
ENDMDL
