MODEL 1
REMARK VINA RESULT:      -7.4      0.000      0.000
REMARK  Name = Salsalate
REMARK  6 active torsions:
REMARK  status: ('A' for Active; 'I' for Inactive)
REMARK    1  A    between atoms: O_1  and  C_2
REMARK    2  A    between atoms: C_2  and  C_4
REMARK    3  A    between atoms: C_9  and  O_10
REMARK    4  A    between atoms: O_10  and  C_11
REMARK    5  A    between atoms: C_11  and  C_13
REMARK    6  A    between atoms: C_18  and  O_19
REMARK                            x       y       z     vdW  Elec       q    Type
REMARK                         _______ _______ _______ _____ _____    ______ ____
ROOT
ATOM      1  O   UNL     1     -10.735   5.515 129.491  0.00  0.00    +0.000 OA
ENDROOT
BRANCH   1   7
ATOM      2  C   UNL     1     -11.412   7.532 128.122  0.00  0.00    +0.000 A 
ATOM      3  C   UNL     1     -12.190   8.702 128.088  0.00  0.00    +0.000 A 
ATOM      4  C   UNL     1     -12.864   9.158 129.216  0.00  0.00    +0.000 A 
ATOM      5  C   UNL     1     -12.821   8.417 130.391  0.00  0.00    +0.000 A 
ATOM      6  C   UNL     1     -12.083   7.226 130.441  0.00  0.00    +0.000 A 
ATOM      7  C   UNL     1     -11.371   6.774 129.309  0.00  0.00    +0.000 A 
BRANCH   2   8
ATOM      8  C   UNL     1     -10.635   7.362 126.864  0.00  0.00    +0.000 C 
ATOM      9  O   UNL     1     -10.942   7.949 125.837  0.00  0.00    +0.000 OA
BRANCH   8  10
ATOM     10  O   UNL     1      -9.736   6.359 126.895  0.00  0.00    +0.000 OA
ATOM     11  H   UNL     1     -10.157   5.529 127.169  0.00  0.00    +0.000 HD
ENDBRANCH   8  10
ENDBRANCH   2   8
ENDBRANCH   1   7
BRANCH   1  12
ATOM     12  C   UNL     1      -9.505   5.474 130.116  0.00  0.00    +0.000 C 
ATOM     13  O   UNL     1      -8.509   6.034 129.721  0.00  0.00    +0.000 OA
BRANCH  12  14
ATOM     14  C   UNL     1      -9.382   4.593 131.294  0.00  0.00    +0.000 A 
ATOM     15  C   UNL     1      -9.231   3.228 130.970  0.00  0.00    +0.000 A 
ATOM     16  C   UNL     1      -9.092   2.267 131.957  0.00  0.00    +0.000 A 
ATOM     17  C   UNL     1      -9.058   2.671 133.284  0.00  0.00    +0.000 A 
ATOM     18  C   UNL     1      -9.267   4.016 133.626  0.00  0.00    +0.000 A 
ATOM     19  C   UNL     1      -9.458   4.978 132.629  0.00  0.00    +0.000 A 
BRANCH  19  20
ATOM     20  O   UNL     1      -9.745   6.269 132.963  0.00  0.00    +0.000 OA
ATOM     21  H   UNL     1      -9.754   6.830 132.169  0.00  0.00    +0.000 HD
ENDBRANCH  19  20
ENDBRANCH  12  14
ENDBRANCH   1  12
TORSDOF 6
ENDMDL
MODEL 2
REMARK VINA RESULT:      -7.1      2.318      6.388
REMARK  Name = Salsalate
REMARK  6 active torsions:
REMARK  status: ('A' for Active; 'I' for Inactive)
REMARK    1  A    between atoms: O_1  and  C_2
REMARK    2  A    between atoms: C_2  and  C_4
REMARK    3  A    between atoms: C_9  and  O_10
REMARK    4  A    between atoms: O_10  and  C_11
REMARK    5  A    between atoms: C_11  and  C_13
REMARK    6  A    between atoms: C_18  and  O_19
REMARK                            x       y       z     vdW  Elec       q    Type
REMARK                         _______ _______ _______ _____ _____    ______ ____
ROOT
ATOM      1  O   UNL     1      -9.374   5.501 131.093  0.00  0.00    +0.000 OA
ENDROOT
BRANCH   1   7
ATOM      2  C   UNL     1      -7.813   4.494 132.810  0.00  0.00    +0.000 A 
ATOM      3  C   UNL     1      -6.516   4.513 133.350  0.00  0.00    +0.000 A 
ATOM      4  C   UNL     1      -5.589   5.482 132.979  0.00  0.00    +0.000 A 
ATOM      5  C   UNL     1      -5.925   6.421 132.011  0.00  0.00    +0.000 A 
ATOM      6  C   UNL     1      -7.201   6.403 131.430  0.00  0.00    +0.000 A 
ATOM      7  C   UNL     1      -8.156   5.441 131.825  0.00  0.00    +0.000 A 
BRANCH   2   8
ATOM      8  C   UNL     1      -8.673   3.497 133.505  0.00  0.00    +0.000 C 
ATOM      9  O   UNL     1      -8.413   2.303 133.485  0.00  0.00    +0.000 OA
BRANCH   8  10
ATOM     10  O   UNL     1      -9.849   3.985 133.945  0.00  0.00    +0.000 OA
ATOM     11  H   UNL     1     -10.512   3.975 133.236  0.00  0.00    +0.000 HD
ENDBRANCH   8  10
ENDBRANCH   2   8
ENDBRANCH   1   7
BRANCH   1  12
ATOM     12  C   UNL     1     -10.348   6.393 131.492  0.00  0.00    +0.000 C 
ATOM     13  O   UNL     1     -10.741   6.527 132.627  0.00  0.00    +0.000 OA
BRANCH  12  14
ATOM     14  C   UNL     1     -11.027   7.161 130.429  0.00  0.00    +0.000 A 
ATOM     15  C   UNL     1     -10.160   7.620 129.416  0.00  0.00    +0.000 A 
ATOM     16  C   UNL     1     -10.635   8.348 128.338  0.00  0.00    +0.000 A 
ATOM     17  C   UNL     1     -11.999   8.586 128.242  0.00  0.00    +0.000 A 
ATOM     18  C   UNL     1     -12.867   8.188 129.270  0.00  0.00    +0.000 A 
ATOM     19  C   UNL     1     -12.376   7.498 130.383  0.00  0.00    +0.000 A 
BRANCH  19  20
ATOM     20  O   UNL     1     -13.205   7.185 131.421  0.00  0.00    +0.000 OA
ATOM     21  H   UNL     1     -14.132   7.327 131.167  0.00  0.00    +0.000 HD
ENDBRANCH  19  20
ENDBRANCH  12  14
ENDBRANCH   1  12
TORSDOF 6
ENDMDL
MODEL 3
REMARK VINA RESULT:      -6.5      7.144      9.116
REMARK  Name = Salsalate
REMARK  6 active torsions:
REMARK  status: ('A' for Active; 'I' for Inactive)
REMARK    1  A    between atoms: O_1  and  C_2
REMARK    2  A    between atoms: C_2  and  C_4
REMARK    3  A    between atoms: C_9  and  O_10
REMARK    4  A    between atoms: O_10  and  C_11
REMARK    5  A    between atoms: C_11  and  C_13
REMARK    6  A    between atoms: C_18  and  O_19
REMARK                            x       y       z     vdW  Elec       q    Type
REMARK                         _______ _______ _______ _____ _____    ______ ____
ROOT
ATOM      1  O   UNL     1      -8.808   3.164 123.344  0.00  0.00    +0.000 OA
ENDROOT
BRANCH   1   7
ATOM      2  C   UNL     1      -6.476   4.118 123.572  0.00  0.00    +0.000 A 
ATOM      3  C   UNL     1      -5.255   4.363 122.921  0.00  0.00    +0.000 A 
ATOM      4  C   UNL     1      -5.104   4.145 121.556  0.00  0.00    +0.000 A 
ATOM      5  C   UNL     1      -6.160   3.619 120.822  0.00  0.00    +0.000 A 
ATOM      6  C   UNL     1      -7.377   3.331 121.454  0.00  0.00    +0.000 A 
ATOM      7  C   UNL     1      -7.547   3.579 122.833  0.00  0.00    +0.000 A 
BRANCH   2   8
ATOM      8  C   UNL     1      -6.449   4.612 124.976  0.00  0.00    +0.000 C 
ATOM      9  O   UNL     1      -5.587   4.254 125.765  0.00  0.00    +0.000 OA
BRANCH   8  10
ATOM     10  O   UNL     1      -7.555   5.284 125.352  0.00  0.00    +0.000 OA
ATOM     11  H   UNL     1      -7.325   6.026 125.935  0.00  0.00    +0.000 HD
ENDBRANCH   8  10
ENDBRANCH   2   8
ENDBRANCH   1   7
BRANCH   1  12
ATOM     12  C   UNL     1      -8.844   2.169 124.299  0.00  0.00    +0.000 C 
ATOM     13  O   UNL     1      -8.963   2.354 125.488  0.00  0.00    +0.000 OA
BRANCH  12  14
ATOM     14  C   UNL     1      -8.612   0.787 123.834  0.00  0.00    +0.000 A 
ATOM     15  C   UNL     1      -7.347   0.272 124.187  0.00  0.00    +0.000 A 
ATOM     16  C   UNL     1      -6.971  -1.014 123.837  0.00  0.00    +0.000 A 
ATOM     17  C   UNL     1      -7.883  -1.817 123.167  0.00  0.00    +0.000 A 
ATOM     18  C   UNL     1      -9.121  -1.302 122.757  0.00  0.00    +0.000 A 
ATOM     19  C   UNL     1      -9.478   0.014 123.066  0.00  0.00    +0.000 A 
BRANCH  19  20
ATOM     20  O   UNL     1     -10.645   0.541 122.596  0.00  0.00    +0.000 OA
ATOM     21  H   UNL     1     -10.986   1.211 123.211  0.00  0.00    +0.000 HD
ENDBRANCH  19  20
ENDBRANCH  12  14
ENDBRANCH   1  12
TORSDOF 6
ENDMDL
MODEL 4
REMARK VINA RESULT:      -6.5      1.512      2.765
REMARK  Name = Salsalate
REMARK  6 active torsions:
REMARK  status: ('A' for Active; 'I' for Inactive)
REMARK    1  A    between atoms: O_1  and  C_2
REMARK    2  A    between atoms: C_2  and  C_4
REMARK    3  A    between atoms: C_9  and  O_10
REMARK    4  A    between atoms: O_10  and  C_11
REMARK    5  A    between atoms: C_11  and  C_13
REMARK    6  A    between atoms: C_18  and  O_19
REMARK                            x       y       z     vdW  Elec       q    Type
REMARK                         _______ _______ _______ _____ _____    ______ ____
ROOT
ATOM      1  O   UNL     1      -9.286   6.585 129.850  0.00  0.00    +0.000 OA
ENDROOT
BRANCH   1   7
ATOM      2  C   UNL     1     -11.633   7.494 130.104  0.00  0.00    +0.000 A 
ATOM      3  C   UNL     1     -12.687   8.174 129.471  0.00  0.00    +0.000 A 
ATOM      4  C   UNL     1     -12.648   8.472 128.113  0.00  0.00    +0.000 A 
ATOM      5  C   UNL     1     -11.521   8.144 127.369  0.00  0.00    +0.000 A 
ATOM      6  C   UNL     1     -10.439   7.498 127.983  0.00  0.00    +0.000 A 
ATOM      7  C   UNL     1     -10.486   7.165 129.355  0.00  0.00    +0.000 A 
BRANCH   2   8
ATOM      8  C   UNL     1     -11.992   7.118 131.498  0.00  0.00    +0.000 C 
ATOM      9  O   UNL     1     -11.158   6.684 132.280  0.00  0.00    +0.000 OA
BRANCH   8  10
ATOM     10  O   UNL     1     -13.316   7.081 131.743  0.00  0.00    +0.000 OA
ATOM     11  H   UNL     1     -13.529   6.372 132.371  0.00  0.00    +0.000 HD
ENDBRANCH   8  10
ENDBRANCH   2   8
ENDBRANCH   1   7
BRANCH   1  12
ATOM     12  C   UNL     1      -9.077   5.232 129.668  0.00  0.00    +0.000 C 
ATOM     13  O   UNL     1      -8.930   4.692 128.597  0.00  0.00    +0.000 OA
BRANCH  12  14
ATOM     14  C   UNL     1      -9.144   4.378 130.871  0.00  0.00    +0.000 A 
ATOM     15  C   UNL     1      -9.797   3.146 130.657  0.00  0.00    +0.000 A 
ATOM     16  C   UNL     1      -9.939   2.221 131.677  0.00  0.00    +0.000 A 
ATOM     17  C   UNL     1      -9.384   2.505 132.918  0.00  0.00    +0.000 A 
ATOM     18  C   UNL     1      -8.784   3.749 133.164  0.00  0.00    +0.000 A 
ATOM     19  C   UNL     1      -8.688   4.702 132.145  0.00  0.00    +0.000 A 
BRANCH  19  20
ATOM     20  O   UNL     1      -8.182   5.941 132.406  0.00  0.00    +0.000 OA
ATOM     21  H   UNL     1      -8.724   6.625 131.979  0.00  0.00    +0.000 HD
ENDBRANCH  19  20
ENDBRANCH  12  14
ENDBRANCH   1  12
TORSDOF 6
ENDMDL
MODEL 5
REMARK VINA RESULT:      -6.4      7.757      8.898
REMARK  Name = Salsalate
REMARK  6 active torsions:
REMARK  status: ('A' for Active; 'I' for Inactive)
REMARK    1  A    between atoms: O_1  and  C_2
REMARK    2  A    between atoms: C_2  and  C_4
REMARK    3  A    between atoms: C_9  and  O_10
REMARK    4  A    between atoms: O_10  and  C_11
REMARK    5  A    between atoms: C_11  and  C_13
REMARK    6  A    between atoms: C_18  and  O_19
REMARK                            x       y       z     vdW  Elec       q    Type
REMARK                         _______ _______ _______ _____ _____    ______ ____
ROOT
ATOM      1  O   UNL     1      -8.107   1.322 125.652  0.00  0.00    +0.000 OA
ENDROOT
BRANCH   1   7
ATOM      2  C   UNL     1      -8.916   1.964 123.342  0.00  0.00    +0.000 A 
ATOM      3  C   UNL     1      -8.655   2.731 122.195  0.00  0.00    +0.000 A 
ATOM      4  C   UNL     1      -7.455   3.416 122.037  0.00  0.00    +0.000 A 
ATOM      5  C   UNL     1      -6.511   3.394 123.057  0.00  0.00    +0.000 A 
ATOM      6  C   UNL     1      -6.762   2.667 124.228  0.00  0.00    +0.000 A 
ATOM      7  C   UNL     1      -7.965   1.944 124.381  0.00  0.00    +0.000 A 
BRANCH   2   8
ATOM      8  C   UNL     1     -10.168   1.172 123.191  0.00  0.00    +0.000 C 
ATOM      9  O   UNL     1     -10.440   0.598 122.147  0.00  0.00    +0.000 OA
BRANCH   8  10
ATOM     10  O   UNL     1     -11.054   1.332 124.193  0.00  0.00    +0.000 OA
ATOM     11  H   UNL     1     -11.274   0.477 124.596  0.00  0.00    +0.000 HD
ENDBRANCH   8  10
ENDBRANCH   2   8
ENDBRANCH   1   7
BRANCH   1  12
ATOM     12  C   UNL     1      -7.270   0.275 125.979  0.00  0.00    +0.000 C 
ATOM     13  O   UNL     1      -6.282   0.368 126.670  0.00  0.00    +0.000 OA
BRANCH  12  14
ATOM     14  C   UNL     1      -7.551  -1.029 125.346  0.00  0.00    +0.000 A 
ATOM     15  C   UNL     1      -6.420  -1.629 124.753  0.00  0.00    +0.000 A 
ATOM     16  C   UNL     1      -6.506  -2.860 124.125  0.00  0.00    +0.000 A 
ATOM     17  C   UNL     1      -7.724  -3.526 124.124  0.00  0.00    +0.000 A 
ATOM     18  C   UNL     1      -8.870  -2.918 124.657  0.00  0.00    +0.000 A 
ATOM     19  C   UNL     1      -8.791  -1.651 125.245  0.00  0.00    +0.000 A 
BRANCH  19  20
ATOM     20  O   UNL     1      -9.919  -1.025 125.686  0.00  0.00    +0.000 OA
ATOM     21  H   UNL     1     -10.711  -1.488 125.367  0.00  0.00    +0.000 HD
ENDBRANCH  19  20
ENDBRANCH  12  14
ENDBRANCH   1  12
TORSDOF 6
ENDMDL
MODEL 6
REMARK VINA RESULT:      -6.3      1.518      5.806
REMARK  Name = Salsalate
REMARK  6 active torsions:
REMARK  status: ('A' for Active; 'I' for Inactive)
REMARK    1  A    between atoms: O_1  and  C_2
REMARK    2  A    between atoms: C_2  and  C_4
REMARK    3  A    between atoms: C_9  and  O_10
REMARK    4  A    between atoms: O_10  and  C_11
REMARK    5  A    between atoms: C_11  and  C_13
REMARK    6  A    between atoms: C_18  and  O_19
REMARK                            x       y       z     vdW  Elec       q    Type
REMARK                         _______ _______ _______ _____ _____    ______ ____
ROOT
ATOM      1  O   UNL     1     -10.591   4.562 129.902  0.00  0.00    +0.000 OA
ENDROOT
BRANCH   1   7
ATOM      2  C   UNL     1      -8.282   3.529 129.894  0.00  0.00    +0.000 A 
ATOM      3  C   UNL     1      -7.452   2.542 130.452  0.00  0.00    +0.000 A 
ATOM      4  C   UNL     1      -7.954   1.575 131.316  0.00  0.00    +0.000 A 
ATOM      5  C   UNL     1      -9.293   1.611 131.687  0.00  0.00    +0.000 A 
ATOM      6  C   UNL     1     -10.135   2.608 131.175  0.00  0.00    +0.000 A 
ATOM      7  C   UNL     1      -9.638   3.574 130.273  0.00  0.00    +0.000 A 
BRANCH   2   8
ATOM      8  C   UNL     1      -7.563   4.317 128.856  0.00  0.00    +0.000 C 
ATOM      9  O   UNL     1      -6.493   4.860 129.090  0.00  0.00    +0.000 OA
BRANCH   8  10
ATOM     10  O   UNL     1      -8.285   4.565 127.745  0.00  0.00    +0.000 OA
ATOM     11  H   UNL     1      -8.218   5.501 127.494  0.00  0.00    +0.000 HD
ENDBRANCH   8  10
ENDBRANCH   2   8
ENDBRANCH   1   7
BRANCH   1  12
ATOM     12  C   UNL     1     -10.515   5.812 130.484  0.00  0.00    +0.000 C 
ATOM     13  O   UNL     1     -10.040   6.042 131.572  0.00  0.00    +0.000 OA
BRANCH  12  14
ATOM     14  C   UNL     1     -11.157   6.927 129.760  0.00  0.00    +0.000 A 
ATOM     15  C   UNL     1     -12.164   7.580 130.501  0.00  0.00    +0.000 A 
ATOM     16  C   UNL     1     -12.862   8.655 129.975  0.00  0.00    +0.000 A 
ATOM     17  C   UNL     1     -12.523   9.116 128.710  0.00  0.00    +0.000 A 
ATOM     18  C   UNL     1     -11.566   8.441 127.938  0.00  0.00    +0.000 A 
ATOM     19  C   UNL     1     -10.900   7.324 128.452  0.00  0.00    +0.000 A 
BRANCH  19  20
ATOM     20  O   UNL     1     -10.032   6.619 127.671  0.00  0.00    +0.000 OA
ATOM     21  H   UNL     1      -9.508   6.009 128.215  0.00  0.00    +0.000 HD
ENDBRANCH  19  20
ENDBRANCH  12  14
ENDBRANCH   1  12
TORSDOF 6
ENDMDL
MODEL 7
REMARK VINA RESULT:      -6.3      7.919      9.216
REMARK  Name = Salsalate
REMARK  6 active torsions:
REMARK  status: ('A' for Active; 'I' for Inactive)
REMARK    1  A    between atoms: O_1  and  C_2
REMARK    2  A    between atoms: C_2  and  C_4
REMARK    3  A    between atoms: C_9  and  O_10
REMARK    4  A    between atoms: O_10  and  C_11
REMARK    5  A    between atoms: C_11  and  C_13
REMARK    6  A    between atoms: C_18  and  O_19
REMARK                            x       y       z     vdW  Elec       q    Type
REMARK                         _______ _______ _______ _____ _____    ______ ____
ROOT
ATOM      1  O   UNL     1      -6.937  -0.872 123.695  0.00  0.00    +0.000 OA
ENDROOT
BRANCH   1   7
ATOM      2  C   UNL     1      -8.927   0.689 123.649  0.00  0.00    +0.000 A 
ATOM      3  C   UNL     1      -9.426   1.942 124.041  0.00  0.00    +0.000 A 
ATOM      4  C   UNL     1      -8.604   2.900 124.627  0.00  0.00    +0.000 A 
ATOM      5  C   UNL     1      -7.273   2.598 124.887  0.00  0.00    +0.000 A 
ATOM      6  C   UNL     1      -6.758   1.342 124.539  0.00  0.00    +0.000 A 
ATOM      7  C   UNL     1      -7.579   0.377 123.915  0.00  0.00    +0.000 A 
BRANCH   2   8
ATOM      8  C   UNL     1      -9.939  -0.078 122.872  0.00  0.00    +0.000 C 
ATOM      9  O   UNL     1     -10.982   0.437 122.497  0.00  0.00    +0.000 OA
BRANCH   8  10
ATOM     10  O   UNL     1      -9.716  -1.405 122.822  0.00  0.00    +0.000 OA
ATOM     11  H   UNL     1     -10.211  -1.809 122.091  0.00  0.00    +0.000 HD
ENDBRANCH   8  10
ENDBRANCH   2   8
ENDBRANCH   1   7
BRANCH   1  12
ATOM     12  C   UNL     1      -6.274  -1.475 124.745  0.00  0.00    +0.000 C 
ATOM     13  O   UNL     1      -5.072  -1.557 124.850  0.00  0.00    +0.000 OA
BRANCH  12  14
ATOM     14  C   UNL     1      -7.105  -2.159 125.755  0.00  0.00    +0.000 A 
ATOM     15  C   UNL     1      -6.743  -1.862 127.086  0.00  0.00    +0.000 A 
ATOM     16  C   UNL     1      -7.426  -2.412 128.157  0.00  0.00    +0.000 A 
ATOM     17  C   UNL     1      -8.515  -3.234 127.904  0.00  0.00    +0.000 A 
ATOM     18  C   UNL     1      -8.852  -3.587 126.588  0.00  0.00    +0.000 A 
ATOM     19  C   UNL     1      -8.127  -3.071 125.509  0.00  0.00    +0.000 A 
BRANCH  19  20
ATOM     20  O   UNL     1      -8.401  -3.479 124.237  0.00  0.00    +0.000 OA
ATOM     21  H   UNL     1      -7.868  -4.259 124.010  0.00  0.00    +0.000 HD
ENDBRANCH  19  20
ENDBRANCH  12  14
ENDBRANCH   1  12
TORSDOF 6
ENDMDL
MODEL 8
REMARK VINA RESULT:      -6.3      8.262      9.764
REMARK  Name = Salsalate
REMARK  6 active torsions:
REMARK  status: ('A' for Active; 'I' for Inactive)
REMARK    1  A    between atoms: O_1  and  C_2
REMARK    2  A    between atoms: C_2  and  C_4
REMARK    3  A    between atoms: C_9  and  O_10
REMARK    4  A    between atoms: O_10  and  C_11
REMARK    5  A    between atoms: C_11  and  C_13
REMARK    6  A    between atoms: C_18  and  O_19
REMARK                            x       y       z     vdW  Elec       q    Type
REMARK                         _______ _______ _______ _____ _____    ______ ____
ROOT
ATOM      1  O   UNL     1      -9.634  -1.283 124.918  0.00  0.00    +0.000 OA
ENDROOT
BRANCH   1   7
ATOM      2  C   UNL     1      -9.299   1.172 124.409  0.00  0.00    +0.000 A 
ATOM      3  C   UNL     1      -8.808   2.399 124.888  0.00  0.00    +0.000 A 
ATOM      4  C   UNL     1      -8.089   2.479 126.076  0.00  0.00    +0.000 A 
ATOM      5  C   UNL     1      -7.897   1.336 126.843  0.00  0.00    +0.000 A 
ATOM      6  C   UNL     1      -8.408   0.106 126.407  0.00  0.00    +0.000 A 
ATOM      7  C   UNL     1      -9.111   0.012 125.186  0.00  0.00    +0.000 A 
BRANCH   2   8
ATOM      8  C   UNL     1      -9.853   1.311 123.035  0.00  0.00    +0.000 C 
ATOM      9  O   UNL     1      -9.419   2.140 122.249  0.00  0.00    +0.000 OA
BRANCH   8  10
ATOM     10  O   UNL     1     -10.991   0.622 122.821  0.00  0.00    +0.000 OA
ATOM     11  H   UNL     1     -10.901   0.042 122.047  0.00  0.00    +0.000 HD
ENDBRANCH   8  10
ENDBRANCH   2   8
ENDBRANCH   1   7
BRANCH   1  12
ATOM     12  C   UNL     1      -9.261  -1.924 123.754  0.00  0.00    +0.000 C 
ATOM     13  O   UNL     1     -10.008  -2.196 122.844  0.00  0.00    +0.000 OA
BRANCH  12  14
ATOM     14  C   UNL     1      -7.866  -2.401 123.671  0.00  0.00    +0.000 A 
ATOM     15  C   UNL     1      -7.108  -1.769 122.663  0.00  0.00    +0.000 A 
ATOM     16  C   UNL     1      -5.777  -2.092 122.456  0.00  0.00    +0.000 A 
ATOM     17  C   UNL     1      -5.178  -3.024 123.291  0.00  0.00    +0.000 A 
ATOM     18  C   UNL     1      -5.932  -3.704 124.259  0.00  0.00    +0.000 A 
ATOM     19  C   UNL     1      -7.289  -3.413 124.431  0.00  0.00    +0.000 A 
BRANCH  19  20
ATOM     20  O   UNL     1      -8.042  -4.133 125.313  0.00  0.00    +0.000 OA
ATOM     21  H   UNL     1      -8.254  -5.006 124.943  0.00  0.00    +0.000 HD
ENDBRANCH  19  20
ENDBRANCH  12  14
ENDBRANCH   1  12
TORSDOF 6
ENDMDL
MODEL 9
REMARK VINA RESULT:      -6.1      7.338      9.764
REMARK  Name = Salsalate
REMARK  6 active torsions:
REMARK  status: ('A' for Active; 'I' for Inactive)
REMARK    1  A    between atoms: O_1  and  C_2
REMARK    2  A    between atoms: C_2  and  C_4
REMARK    3  A    between atoms: C_9  and  O_10
REMARK    4  A    between atoms: O_10  and  C_11
REMARK    5  A    between atoms: C_11  and  C_13
REMARK    6  A    between atoms: C_18  and  O_19
REMARK                            x       y       z     vdW  Elec       q    Type
REMARK                         _______ _______ _______ _____ _____    ______ ____
ROOT
ATOM      1  O   UNL     1      -8.392  -0.688 126.472  0.00  0.00    +0.000 OA
ENDROOT
BRANCH   1   7
ATOM      2  C   UNL     1      -8.053  -2.393 124.635  0.00  0.00    +0.000 A 
ATOM      3  C   UNL     1      -7.134  -2.964 123.738  0.00  0.00    +0.000 A 
ATOM      4  C   UNL     1      -5.778  -2.662 123.799  0.00  0.00    +0.000 A 
ATOM      5  C   UNL     1      -5.320  -1.733 124.725  0.00  0.00    +0.000 A 
ATOM      6  C   UNL     1      -6.222  -1.121 125.607  0.00  0.00    +0.000 A 
ATOM      7  C   UNL     1      -7.595  -1.447 125.571  0.00  0.00    +0.000 A 
BRANCH   2   8
ATOM      8  C   UNL     1      -9.398  -3.018 124.502  0.00  0.00    +0.000 C 
ATOM      9  O   UNL     1      -9.849  -3.343 123.413  0.00  0.00    +0.000 OA
BRANCH   8  10
ATOM     10  O   UNL     1     -10.143  -2.983 125.624  0.00  0.00    +0.000 OA
ATOM     11  H   UNL     1     -10.907  -2.396 125.510  0.00  0.00    +0.000 HD
ENDBRANCH   8  10
ENDBRANCH   2   8
ENDBRANCH   1   7
BRANCH   1  12
ATOM     12  C   UNL     1      -9.191   0.318 125.968  0.00  0.00    +0.000 C 
ATOM     13  O   UNL     1     -10.296   0.159 125.505  0.00  0.00    +0.000 OA
BRANCH  12  14
ATOM     14  C   UNL     1      -8.600   1.670 125.899  0.00  0.00    +0.000 A 
ATOM     15  C   UNL     1      -7.843   2.018 127.037  0.00  0.00    +0.000 A 
ATOM     16  C   UNL     1      -7.211   3.247 127.131  0.00  0.00    +0.000 A 
ATOM     17  C   UNL     1      -7.295   4.125 126.059  0.00  0.00    +0.000 A 
ATOM     18  C   UNL     1      -8.092   3.818 124.946  0.00  0.00    +0.000 A 
ATOM     19  C   UNL     1      -8.771   2.598 124.877  0.00  0.00    +0.000 A 
BRANCH  19  20
ATOM     20  O   UNL     1      -9.612   2.335 123.835  0.00  0.00    +0.000 OA
ATOM     21  H   UNL     1      -9.751   1.378 123.746  0.00  0.00    +0.000 HD
ENDBRANCH  19  20
ENDBRANCH  12  14
ENDBRANCH   1  12
TORSDOF 6
ENDMDL
