MODEL 1
REMARK VINA RESULT:      -7.8      0.000      0.000
REMARK  Name = Samidorphan
REMARK  5 active torsions:
REMARK  status: ('A' for Active; 'I' for Inactive)
REMARK    1  A    between atoms: C_2  and  C_4
REMARK    2  A    between atoms: N_10  and  C_11
REMARK    3  A    between atoms: C_11  and  C_12
REMARK    4  A    between atoms: C_23  and  O_24
REMARK    5  A    between atoms: C_26  and  O_27
REMARK                            x       y       z     vdW  Elec       q    Type
REMARK                         _______ _______ _______ _____ _____    ______ ____
ROOT
ATOM      1  C   UNL     1      -8.420   1.283 123.938  0.00  0.00    +0.000 A 
ATOM      2  C   UNL     1      -7.484   2.101 124.539  0.00  0.00    +0.000 A 
ATOM      3  C   UNL     1      -6.389   1.545 125.143  0.00  0.00    +0.000 A 
ATOM      4  C   UNL     1      -6.353   0.170 125.288  0.00  0.00    +0.000 A 
ATOM      5  C   UNL     1      -5.121  -0.346 125.895  0.00  0.00    +0.000 C 
ATOM      6  C   UNL     1      -5.464  -1.551 126.615  0.00  0.00    +0.000 C 
ATOM      7  N   UNL     1      -6.453  -1.283 127.967  0.00  0.00    +0.000 NA
ATOM      8  C   UNL     1      -7.740  -1.635 127.481  0.00  0.00    +0.000 C 
ATOM      9  C   UNL     1      -7.363  -2.899 126.855  0.00  0.00    +0.000 C 
ATOM     10  C   UNL     1      -7.314  -2.513 125.425  0.00  0.00    +0.000 C 
ATOM     11  C   UNL     1      -8.108  -3.759 125.016  0.00  0.00    +0.000 C 
ATOM     12  C   UNL     1      -9.246  -2.875 124.907  0.00  0.00    +0.000 C 
ATOM     13  O   UNL     1      -9.805  -2.022 125.665  0.00  0.00    +0.000 OA
ATOM     14  C   UNL     1      -9.131  -2.845 123.498  0.00  0.00    +0.000 C 
ATOM     15  C   UNL     1      -7.151  -2.545 123.388  0.00  0.00    +0.000 C 
ATOM     16  C   UNL     1      -5.974  -2.572 124.961  0.00  0.00    +0.000 C 
ATOM     17  C   UNL     1      -7.403  -0.736 124.862  0.00  0.00    +0.000 A 
ATOM     18  C   UNL     1      -8.306  -0.097 123.980  0.00  0.00    +0.000 A 
ENDROOT
BRANCH   1  20
ATOM     19  N   UNL     1     -10.766   1.646 123.766  0.00  0.00    +0.000 N 
ATOM     20  C   UNL     1      -9.562   1.817 123.166  0.00  0.00    +0.000 C 
ATOM     21  O   UNL     1      -9.448   2.429 122.113  0.00  0.00    +0.000 OA
ATOM     22  H   UNL     1     -11.546   2.101 123.318  0.00  0.00    +0.000 HD
ATOM     23  H   UNL     1     -10.838   1.283 124.703  0.00  0.00    +0.000 HD
ENDBRANCH   1  20
BRANCH  16  24
ATOM     24  O   UNL     1      -5.120  -3.683 124.729  0.00  0.00    +0.000 OA
ATOM     25  H   UNL     1      -5.473  -4.190 123.958  0.00  0.00    +0.000 HD
ENDBRANCH  16  24
BRANCH  18  26
ATOM     26  O   UNL     1      -9.016  -0.562 122.915  0.00  0.00    +0.000 OA
ATOM     27  H   UNL     1      -8.511  -0.805 122.142  0.00  0.00    +0.000 HD
ENDBRANCH  18  26
BRANCH   7  28
ATOM     28  C   UNL     1      -6.764  -0.075 128.833  0.00  0.00    +0.000 C 
BRANCH  28  29
ATOM     29  C   UNL     1      -8.061   0.651 128.643  0.00  0.00    +0.000 C 
ATOM     30  C   UNL     1      -8.568   1.729 129.601  0.00  0.00    +0.000 C 
ATOM     31  C   UNL     1      -8.217   2.100 128.191  0.00  0.00    +0.000 C 
ENDBRANCH  28  29
ENDBRANCH   7  28
TORSDOF 5
ENDMDL
MODEL 2
REMARK VINA RESULT:      -7.3      1.436      1.622
REMARK  Name = Samidorphan
REMARK  5 active torsions:
REMARK  status: ('A' for Active; 'I' for Inactive)
REMARK    1  A    between atoms: C_2  and  C_4
REMARK    2  A    between atoms: N_10  and  C_11
REMARK    3  A    between atoms: C_11  and  C_12
REMARK    4  A    between atoms: C_23  and  O_24
REMARK    5  A    between atoms: C_26  and  O_27
REMARK                            x       y       z     vdW  Elec       q    Type
REMARK                         _______ _______ _______ _____ _____    ______ ____
ROOT
ATOM      1  C   UNL     1      -7.104   2.009 124.889  0.00  0.00    +0.000 A 
ATOM      2  C   UNL     1      -6.083   2.164 125.805  0.00  0.00    +0.000 A 
ATOM      3  C   UNL     1      -5.364   1.071 126.209  0.00  0.00    +0.000 A 
ATOM      4  C   UNL     1      -5.808  -0.179 125.820  0.00  0.00    +0.000 A 
ATOM      5  C   UNL     1      -4.951  -1.290 126.248  0.00  0.00    +0.000 C 
ATOM      6  C   UNL     1      -5.798  -2.445 126.435  0.00  0.00    +0.000 C 
ATOM      7  N   UNL     1      -6.881  -2.299 127.732  0.00  0.00    +0.000 NA
ATOM      8  C   UNL     1      -8.097  -1.958 127.081  0.00  0.00    +0.000 C 
ATOM      9  C   UNL     1      -8.043  -2.982 126.042  0.00  0.00    +0.000 C 
ATOM     10  C   UNL     1      -7.602  -2.185 124.872  0.00  0.00    +0.000 C 
ATOM     11  C   UNL     1      -8.667  -2.829 123.977  0.00  0.00    +0.000 C 
ATOM     12  C   UNL     1      -9.412  -1.602 124.153  0.00  0.00    +0.000 C 
ATOM     13  O   UNL     1      -9.793  -0.911 125.148  0.00  0.00    +0.000 OA
ATOM     14  C   UNL     1      -9.029  -1.146 122.871  0.00  0.00    +0.000 C 
ATOM     15  C   UNL     1      -7.077  -1.591 122.988  0.00  0.00    +0.000 C 
ATOM     16  C   UNL     1      -6.293  -2.583 124.492  0.00  0.00    +0.000 C 
ATOM     17  C   UNL     1      -6.997  -0.427 125.025  0.00  0.00    +0.000 A 
ATOM     18  C   UNL     1      -7.457   0.759 124.407  0.00  0.00    +0.000 A 
ENDROOT
BRANCH   1  20
ATOM     19  N   UNL     1      -7.218   3.754 123.274  0.00  0.00    +0.000 N 
ATOM     20  C   UNL     1      -7.841   3.156 124.320  0.00  0.00    +0.000 C 
ATOM     21  O   UNL     1      -8.953   3.507 124.693  0.00  0.00    +0.000 OA
ATOM     22  H   UNL     1      -7.750   4.463 122.795  0.00  0.00    +0.000 HD
ATOM     23  H   UNL     1      -6.381   3.364 122.871  0.00  0.00    +0.000 HD
ENDBRANCH   1  20
BRANCH  16  24
ATOM     24  O   UNL     1      -5.822  -3.784 123.899  0.00  0.00    +0.000 OA
ATOM     25  H   UNL     1      -6.596  -4.271 123.527  0.00  0.00    +0.000 HD
ENDBRANCH  16  24
BRANCH  18  26
ATOM     26  O   UNL     1      -8.066   0.980 123.210  0.00  0.00    +0.000 OA
ATOM     27  H   UNL     1      -7.497   1.221 122.482  0.00  0.00    +0.000 HD
ENDBRANCH  18  26
BRANCH   7  28
ATOM     28  C   UNL     1      -6.937  -1.429 128.976  0.00  0.00    +0.000 C 
BRANCH  28  29
ATOM     29  C   UNL     1      -7.807  -0.208 128.981  0.00  0.00    +0.000 C 
ATOM     30  C   UNL     1      -8.185   0.548 130.254  0.00  0.00    +0.000 C 
ATOM     31  C   UNL     1      -7.336   1.224 129.218  0.00  0.00    +0.000 C 
ENDBRANCH  28  29
ENDBRANCH   7  28
TORSDOF 5
ENDMDL
MODEL 3
REMARK VINA RESULT:      -7.1      3.080      5.482
REMARK  Name = Samidorphan
REMARK  5 active torsions:
REMARK  status: ('A' for Active; 'I' for Inactive)
REMARK    1  A    between atoms: C_2  and  C_4
REMARK    2  A    between atoms: N_10  and  C_11
REMARK    3  A    between atoms: C_11  and  C_12
REMARK    4  A    between atoms: C_23  and  O_24
REMARK    5  A    between atoms: C_26  and  O_27
REMARK                            x       y       z     vdW  Elec       q    Type
REMARK                         _______ _______ _______ _____ _____    ______ ____
ROOT
ATOM      1  C   UNL     1      -8.507  -2.966 126.354  0.00  0.00    +0.000 A 
ATOM      2  C   UNL     1      -8.844  -3.907 127.306  0.00  0.00    +0.000 A 
ATOM      3  C   UNL     1      -8.681  -3.615 128.633  0.00  0.00    +0.000 A 
ATOM      4  C   UNL     1      -8.011  -2.452 128.966  0.00  0.00    +0.000 A 
ATOM      5  C   UNL     1      -7.929  -2.189 130.406  0.00  0.00    +0.000 C 
ATOM      6  C   UNL     1      -6.706  -1.457 130.645  0.00  0.00    +0.000 C 
ATOM      7  N   UNL     1      -5.300  -2.362 130.358  0.00  0.00    +0.000 NA
ATOM      8  C   UNL     1      -4.899  -1.909 129.073  0.00  0.00    +0.000 C 
ATOM      9  C   UNL     1      -5.033  -0.478 129.331  0.00  0.00    +0.000 C 
ATOM     10  C   UNL     1      -6.316  -0.179 128.650  0.00  0.00    +0.000 C 
ATOM     11  C   UNL     1      -5.722   1.067 127.984  0.00  0.00    +0.000 C 
ATOM     12  C   UNL     1      -5.622   0.258 126.790  0.00  0.00    +0.000 C 
ATOM     13  O   UNL     1      -5.126  -0.876 126.505  0.00  0.00    +0.000 OA
ATOM     14  C   UNL     1      -6.771   0.869 126.238  0.00  0.00    +0.000 C 
ATOM     15  C   UNL     1      -7.944   0.773 127.862  0.00  0.00    +0.000 C 
ATOM     16  C   UNL     1      -7.298   0.164 129.616  0.00  0.00    +0.000 C 
ATOM     17  C   UNL     1      -7.448  -1.517 128.010  0.00  0.00    +0.000 A 
ATOM     18  C   UNL     1      -7.953  -1.747 126.708  0.00  0.00    +0.000 A 
ENDROOT
BRANCH   1  20
ATOM     19  N   UNL     1      -7.710  -3.656 124.220  0.00  0.00    +0.000 N 
ATOM     20  C   UNL     1      -8.767  -3.165 124.913  0.00  0.00    +0.000 C 
ATOM     21  O   UNL     1      -9.856  -2.983 124.383  0.00  0.00    +0.000 OA
ATOM     22  H   UNL     1      -7.894  -3.910 123.263  0.00  0.00    +0.000 HD
ATOM     23  H   UNL     1      -6.868  -3.952 124.689  0.00  0.00    +0.000 HD
ENDBRANCH   1  20
BRANCH  16  24
ATOM     24  O   UNL     1      -7.427   1.311 130.443  0.00  0.00    +0.000 OA
ATOM     25  H   UNL     1      -7.042   2.084 129.964  0.00  0.00    +0.000 HD
ENDBRANCH  16  24
BRANCH  18  26
ATOM     26  O   UNL     1      -8.230  -0.898 125.680  0.00  0.00    +0.000 OA
ATOM     27  H   UNL     1      -8.736  -0.119 125.898  0.00  0.00    +0.000 HD
ENDBRANCH  18  26
BRANCH   7  28
ATOM     28  C   UNL     1      -4.990  -3.847 130.278  0.00  0.00    +0.000 C 
BRANCH  28  29
ATOM     29  C   UNL     1      -5.516  -4.766 131.338  0.00  0.00    +0.000 C 
ATOM     30  C   UNL     1      -4.706  -5.182 132.566  0.00  0.00    +0.000 C 
ATOM     31  C   UNL     1      -5.945  -4.356 132.744  0.00  0.00    +0.000 C 
ENDBRANCH  28  29
ENDBRANCH   7  28
TORSDOF 5
ENDMDL
MODEL 4
REMARK VINA RESULT:      -7.0      1.913      4.767
REMARK  Name = Samidorphan
REMARK  5 active torsions:
REMARK  status: ('A' for Active; 'I' for Inactive)
REMARK    1  A    between atoms: C_2  and  C_4
REMARK    2  A    between atoms: N_10  and  C_11
REMARK    3  A    between atoms: C_11  and  C_12
REMARK    4  A    between atoms: C_23  and  O_24
REMARK    5  A    between atoms: C_26  and  O_27
REMARK                            x       y       z     vdW  Elec       q    Type
REMARK                         _______ _______ _______ _____ _____    ______ ____
ROOT
ATOM      1  C   UNL     1      -7.598  -1.555 128.265  0.00  0.00    +0.000 A 
ATOM      2  C   UNL     1      -7.889  -0.265 128.661  0.00  0.00    +0.000 A 
ATOM      3  C   UNL     1      -8.425   0.614 127.760  0.00  0.00    +0.000 A 
ATOM      4  C   UNL     1      -8.486   0.230 126.433  0.00  0.00    +0.000 A 
ATOM      5  C   UNL     1      -9.123   1.208 125.544  0.00  0.00    +0.000 C 
ATOM      6  C   UNL     1      -8.519   1.068 124.239  0.00  0.00    +0.000 C 
ATOM      7  N   UNL     1      -6.889   1.535 124.186  0.00  0.00    +0.000 NA
ATOM      8  C   UNL     1      -6.210   0.288 124.239  0.00  0.00    +0.000 C 
ATOM      9  C   UNL     1      -7.003  -0.398 123.222  0.00  0.00    +0.000 C 
ATOM     10  C   UNL     1      -7.886  -1.241 124.063  0.00  0.00    +0.000 C 
ATOM     11  C   UNL     1      -7.627  -2.468 123.181  0.00  0.00    +0.000 C 
ATOM     12  C   UNL     1      -6.723  -2.901 124.223  0.00  0.00    +0.000 C 
ATOM     13  O   UNL     1      -5.743  -2.382 124.844  0.00  0.00    +0.000 OA
ATOM     14  C   UNL     1      -7.677  -3.821 124.715  0.00  0.00    +0.000 C 
ATOM     15  C   UNL     1      -9.270  -2.602 124.704  0.00  0.00    +0.000 C 
ATOM     16  C   UNL     1      -9.227  -0.789 123.946  0.00  0.00    +0.000 C 
ATOM     17  C   UNL     1      -8.005  -1.037 125.913  0.00  0.00    +0.000 A 
ATOM     18  C   UNL     1      -7.784  -1.968 126.956  0.00  0.00    +0.000 A 
ENDROOT
BRANCH   1  20
ATOM     19  N   UNL     1      -5.791  -2.804 129.183  0.00  0.00    +0.000 N 
ATOM     20  C   UNL     1      -7.130  -2.590 129.211  0.00  0.00    +0.000 C 
ATOM     21  O   UNL     1      -7.858  -3.162 130.011  0.00  0.00    +0.000 OA
ATOM     22  H   UNL     1      -5.433  -3.419 129.896  0.00  0.00    +0.000 HD
ATOM     23  H   UNL     1      -5.179  -2.221 128.636  0.00  0.00    +0.000 HD
ENDBRANCH   1  20
BRANCH  16  24
ATOM     24  O   UNL     1     -10.137  -0.854 122.858  0.00  0.00    +0.000 OA
ATOM     25  H   UNL     1     -10.724  -0.060 122.896  0.00  0.00    +0.000 HD
ENDBRANCH  16  24
BRANCH  18  26
ATOM     26  O   UNL     1      -7.923  -3.321 127.007  0.00  0.00    +0.000 OA
ATOM     27  H   UNL     1      -7.999  -3.772 126.169  0.00  0.00    +0.000 HD
ENDBRANCH  18  26
BRANCH   7  28
ATOM     28  C   UNL     1      -6.006   2.410 125.058  0.00  0.00    +0.000 C 
BRANCH  28  29
ATOM     29  C   UNL     1      -5.083   1.768 126.048  0.00  0.00    +0.000 C 
ATOM     30  C   UNL     1      -3.880   2.484 126.663  0.00  0.00    +0.000 C 
ATOM     31  C   UNL     1      -5.024   2.072 127.542  0.00  0.00    +0.000 C 
ENDBRANCH  28  29
ENDBRANCH   7  28
TORSDOF 5
ENDMDL
MODEL 5
REMARK VINA RESULT:      -6.9      6.627      8.963
REMARK  Name = Samidorphan
REMARK  5 active torsions:
REMARK  status: ('A' for Active; 'I' for Inactive)
REMARK    1  A    between atoms: C_2  and  C_4
REMARK    2  A    between atoms: N_10  and  C_11
REMARK    3  A    between atoms: C_11  and  C_12
REMARK    4  A    between atoms: C_23  and  O_24
REMARK    5  A    between atoms: C_26  and  O_27
REMARK                            x       y       z     vdW  Elec       q    Type
REMARK                         _______ _______ _______ _____ _____    ______ ____
ROOT
ATOM      1  C   UNL     1      -5.200   4.896 130.750  0.00  0.00    +0.000 A 
ATOM      2  C   UNL     1      -5.444   6.254 130.702  0.00  0.00    +0.000 A 
ATOM      3  C   UNL     1      -6.613   6.750 131.210  0.00  0.00    +0.000 A 
ATOM      4  C   UNL     1      -7.591   5.849 131.590  0.00  0.00    +0.000 A 
ATOM      5  C   UNL     1      -8.789   6.461 132.175  0.00  0.00    +0.000 C 
ATOM      6  C   UNL     1      -9.911   5.606 131.862  0.00  0.00    +0.000 C 
ATOM      7  N   UNL     1     -10.295   5.556 130.211  0.00  0.00    +0.000 NA
ATOM      8  C   UNL     1      -9.705   4.332 129.795  0.00  0.00    +0.000 C 
ATOM      9  C   UNL     1     -10.216   3.502 130.882  0.00  0.00    +0.000 C 
ATOM     10  C   UNL     1      -9.015   3.381 131.744  0.00  0.00    +0.000 C 
ATOM     11  C   UNL     1      -9.225   1.871 131.900  0.00  0.00    +0.000 C 
ATOM     12  C   UNL     1      -8.170   1.725 130.923  0.00  0.00    +0.000 C 
ATOM     13  O   UNL     1      -7.942   2.188 129.763  0.00  0.00    +0.000 OA
ATOM     14  C   UNL     1      -7.234   1.403 131.933  0.00  0.00    +0.000 C 
ATOM     15  C   UNL     1      -7.709   2.860 133.227  0.00  0.00    +0.000 C 
ATOM     16  C   UNL     1      -9.237   4.068 132.966  0.00  0.00    +0.000 C 
ATOM     17  C   UNL     1      -7.480   4.406 131.475  0.00  0.00    +0.000 A 
ATOM     18  C   UNL     1      -6.140   4.011 131.253  0.00  0.00    +0.000 A 
ENDROOT
BRANCH   1  20
ATOM     19  N   UNL     1      -2.882   4.559 131.175  0.00  0.00    +0.000 N 
ATOM     20  C   UNL     1      -3.912   4.304 130.330  0.00  0.00    +0.000 C 
ATOM     21  O   UNL     1      -3.779   3.582 129.352  0.00  0.00    +0.000 OA
ATOM     22  H   UNL     1      -2.022   4.074 130.974  0.00  0.00    +0.000 HD
ATOM     23  H   UNL     1      -3.030   5.020 132.058  0.00  0.00    +0.000 HD
ENDBRANCH   1  20
BRANCH  16  24
ATOM     24  O   UNL     1     -10.096   3.769 134.057  0.00  0.00    +0.000 OA
ATOM     25  H   UNL     1     -10.894   3.305 133.706  0.00  0.00    +0.000 HD
ENDBRANCH  16  24
BRANCH  18  26
ATOM     26  O   UNL     1      -5.443   2.910 131.646  0.00  0.00    +0.000 OA
ATOM     27  H   UNL     1      -5.689   2.083 131.238  0.00  0.00    +0.000 HD
ENDBRANCH  18  26
BRANCH   7  28
ATOM     28  C   UNL     1     -10.008   6.461 129.026  0.00  0.00    +0.000 C 
BRANCH  28  29
ATOM     29  C   UNL     1     -10.500   7.877 129.046  0.00  0.00    +0.000 C 
ATOM     30  C   UNL     1     -11.523   8.425 128.051  0.00  0.00    +0.000 C 
ATOM     31  C   UNL     1     -11.881   8.337 129.505  0.00  0.00    +0.000 C 
ENDBRANCH  28  29
ENDBRANCH   7  28
TORSDOF 5
ENDMDL
MODEL 6
REMARK VINA RESULT:      -6.8      6.722     10.235
REMARK  Name = Samidorphan
REMARK  5 active torsions:
REMARK  status: ('A' for Active; 'I' for Inactive)
REMARK    1  A    between atoms: C_2  and  C_4
REMARK    2  A    between atoms: N_10  and  C_11
REMARK    3  A    between atoms: C_11  and  C_12
REMARK    4  A    between atoms: C_23  and  O_24
REMARK    5  A    between atoms: C_26  and  O_27
REMARK                            x       y       z     vdW  Elec       q    Type
REMARK                         _______ _______ _______ _____ _____    ______ ____
ROOT
ATOM      1  C   UNL     1      -4.587   6.137 132.510  0.00  0.00    +0.000 A 
ATOM      2  C   UNL     1      -4.597   6.869 131.339  0.00  0.00    +0.000 A 
ATOM      3  C   UNL     1      -5.791   7.191 130.753  0.00  0.00    +0.000 A 
ATOM      4  C   UNL     1      -6.941   6.613 131.258  0.00  0.00    +0.000 A 
ATOM      5  C   UNL     1      -8.180   7.054 130.609  0.00  0.00    +0.000 C 
ATOM      6  C   UNL     1      -9.120   5.958 130.678  0.00  0.00    +0.000 C 
ATOM      7  N   UNL     1      -8.676   4.614 129.744  0.00  0.00    +0.000 NA
ATOM      8  C   UNL     1      -8.127   3.734 130.713  0.00  0.00    +0.000 C 
ATOM      9  C   UNL     1      -9.197   3.853 131.699  0.00  0.00    +0.000 C 
ATOM     10  C   UNL     1      -8.578   4.766 132.690  0.00  0.00    +0.000 C 
ATOM     11  C   UNL     1      -9.034   3.881 133.856  0.00  0.00    +0.000 C 
ATOM     12  C   UNL     1      -7.671   3.401 133.893  0.00  0.00    +0.000 C 
ATOM     13  O   UNL     1      -6.860   2.915 133.045  0.00  0.00    +0.000 OA
ATOM     14  C   UNL     1      -7.380   4.217 135.011  0.00  0.00    +0.000 C 
ATOM     15  C   UNL     1      -8.215   5.913 134.343  0.00  0.00    +0.000 C 
ATOM     16  C   UNL     1      -9.262   6.010 132.682  0.00  0.00    +0.000 C 
ATOM     17  C   UNL     1      -6.980   5.670 132.361  0.00  0.00    +0.000 A 
ATOM     18  C   UNL     1      -5.760   5.670 133.079  0.00  0.00    +0.000 A 
ENDROOT
BRANCH   1  20
ATOM     19  N   UNL     1      -2.850   6.923 133.935  0.00  0.00    +0.000 N 
ATOM     20  C   UNL     1      -3.345   5.855 133.260  0.00  0.00    +0.000 C 
ATOM     21  O   UNL     1      -2.833   4.747 133.342  0.00  0.00    +0.000 OA
ATOM     22  H   UNL     1      -2.072   6.730 134.546  0.00  0.00    +0.000 HD
ATOM     23  H   UNL     1      -3.361   7.789 133.993  0.00  0.00    +0.000 HD
ENDBRANCH   1  20
BRANCH  16  24
ATOM     24  O   UNL     1     -10.567   6.356 133.122  0.00  0.00    +0.000 OA
ATOM     25  H   UNL     1     -11.214   6.061 132.436  0.00  0.00    +0.000 HD
ENDBRANCH  16  24
BRANCH  18  26
ATOM     26  O   UNL     1      -5.486   5.484 134.399  0.00  0.00    +0.000 OA
ATOM     27  H   UNL     1      -5.890   6.099 135.008  0.00  0.00    +0.000 HD
ENDBRANCH  18  26
BRANCH   7  28
ATOM     28  C   UNL     1      -7.744   4.403 128.564  0.00  0.00    +0.000 C 
BRANCH  28  29
ATOM     29  C   UNL     1      -6.367   3.862 128.802  0.00  0.00    +0.000 C 
ATOM     30  C   UNL     1      -5.492   3.274 127.695  0.00  0.00    +0.000 C 
ATOM     31  C   UNL     1      -5.059   4.532 128.389  0.00  0.00    +0.000 C 
ENDBRANCH  28  29
ENDBRANCH   7  28
TORSDOF 5
ENDMDL
MODEL 7
REMARK VINA RESULT:      -6.8      2.190      2.987
REMARK  Name = Samidorphan
REMARK  5 active torsions:
REMARK  status: ('A' for Active; 'I' for Inactive)
REMARK    1  A    between atoms: C_2  and  C_4
REMARK    2  A    between atoms: N_10  and  C_11
REMARK    3  A    between atoms: C_11  and  C_12
REMARK    4  A    between atoms: C_23  and  O_24
REMARK    5  A    between atoms: C_26  and  O_27
REMARK                            x       y       z     vdW  Elec       q    Type
REMARK                         _______ _______ _______ _____ _____    ______ ____
ROOT
ATOM      1  C   UNL     1      -6.777   3.345 125.896  0.00  0.00    +0.000 A 
ATOM      2  C   UNL     1      -5.739   3.002 126.739  0.00  0.00    +0.000 A 
ATOM      3  C   UNL     1      -5.198   1.747 126.671  0.00  0.00    +0.000 A 
ATOM      4  C   UNL     1      -5.834   0.806 125.882  0.00  0.00    +0.000 A 
ATOM      5  C   UNL     1      -5.159  -0.495 125.820  0.00  0.00    +0.000 C 
ATOM      6  C   UNL     1      -6.176  -1.503 125.626  0.00  0.00    +0.000 C 
ATOM      7  N   UNL     1      -7.215  -1.693 126.953  0.00  0.00    +0.000 NA
ATOM      8  C   UNL     1      -8.366  -0.966 126.548  0.00  0.00    +0.000 C 
ATOM      9  C   UNL     1      -8.479  -1.529 125.206  0.00  0.00    +0.000 C 
ATOM     10  C   UNL     1      -7.925  -0.427 124.382  0.00  0.00    +0.000 C 
ATOM     11  C   UNL     1      -9.083  -0.534 123.383  0.00  0.00    +0.000 C 
ATOM     12  C   UNL     1      -9.626   0.633 124.041  0.00  0.00    +0.000 C 
ATOM     13  O   UNL     1      -9.889   0.954 125.241  0.00  0.00    +0.000 OA
ATOM     14  C   UNL     1      -9.184   1.471 122.992  0.00  0.00    +0.000 C 
ATOM     15  C   UNL     1      -7.324   0.741 122.816  0.00  0.00    +0.000 C 
ATOM     16  C   UNL     1      -6.696  -0.839 123.802  0.00  0.00    +0.000 C 
ATOM     17  C   UNL     1      -7.052   1.043 125.127  0.00  0.00    +0.000 A 
ATOM     18  C   UNL     1      -7.325   2.427 125.015  0.00  0.00    +0.000 A 
ENDROOT
BRANCH   1  20
ATOM     19  N   UNL     1      -6.620   5.563 125.047  0.00  0.00    +0.000 N 
ATOM     20  C   UNL     1      -7.329   4.714 125.832  0.00  0.00    +0.000 C 
ATOM     21  O   UNL     1      -8.374   5.055 126.370  0.00  0.00    +0.000 OA
ATOM     22  H   UNL     1      -7.036   6.468 124.894  0.00  0.00    +0.000 HD
ATOM     23  H   UNL     1      -5.852   5.237 124.483  0.00  0.00    +0.000 HD
ENDBRANCH   1  20
BRANCH  16  24
ATOM     24  O   UNL     1      -6.423  -1.790 122.783  0.00  0.00    +0.000 OA
ATOM     25  H   UNL     1      -7.034  -2.556 122.901  0.00  0.00    +0.000 HD
ENDBRANCH  16  24
BRANCH  18  26
ATOM     26  O   UNL     1      -7.898   3.160 124.021  0.00  0.00    +0.000 OA
ATOM     27  H   UNL     1      -7.585   4.056 123.920  0.00  0.00    +0.000 HD
ENDBRANCH  18  26
BRANCH   7  28
ATOM     28  C   UNL     1      -7.127  -1.347 128.429  0.00  0.00    +0.000 C 
BRANCH  28  29
ATOM     29  C   UNL     1      -7.748  -0.076 128.924  0.00  0.00    +0.000 C 
ATOM     30  C   UNL     1      -8.110   0.167 130.389  0.00  0.00    +0.000 C 
ATOM     31  C   UNL     1      -7.045   1.003 129.743  0.00  0.00    +0.000 C 
ENDBRANCH  28  29
ENDBRANCH   7  28
TORSDOF 5
ENDMDL
MODEL 8
REMARK VINA RESULT:      -6.7      2.448      4.964
REMARK  Name = Samidorphan
REMARK  5 active torsions:
REMARK  status: ('A' for Active; 'I' for Inactive)
REMARK    1  A    between atoms: C_2  and  C_4
REMARK    2  A    between atoms: N_10  and  C_11
REMARK    3  A    between atoms: C_11  and  C_12
REMARK    4  A    between atoms: C_23  and  O_24
REMARK    5  A    between atoms: C_26  and  O_27
REMARK                            x       y       z     vdW  Elec       q    Type
REMARK                         _______ _______ _______ _____ _____    ______ ____
ROOT
ATOM      1  C   UNL     1      -7.609   2.041 123.367  0.00  0.00    +0.000 A 
ATOM      2  C   UNL     1      -8.344   0.913 123.059  0.00  0.00    +0.000 A 
ATOM      3  C   UNL     1      -8.774   0.092 124.065  0.00  0.00    +0.000 A 
ATOM      4  C   UNL     1      -8.301   0.324 125.343  0.00  0.00    +0.000 A 
ATOM      5  C   UNL     1      -8.854  -0.567 126.369  0.00  0.00    +0.000 C 
ATOM      6  C   UNL     1      -7.847  -0.727 127.393  0.00  0.00    +0.000 C 
ATOM      7  N   UNL     1      -6.473  -1.575 126.876  0.00  0.00    +0.000 NA
ATOM      8  C   UNL     1      -5.542  -0.531 126.629  0.00  0.00    +0.000 C 
ATOM      9  C   UNL     1      -5.754   0.204 127.873  0.00  0.00    +0.000 C 
ATOM     10  C   UNL     1      -6.603   1.326 127.406  0.00  0.00    +0.000 C 
ATOM     11  C   UNL     1      -5.758   2.345 128.179  0.00  0.00    +0.000 C 
ATOM     12  C   UNL     1      -5.157   2.664 126.903  0.00  0.00    +0.000 C 
ATOM     13  O   UNL     1      -4.604   1.999 125.973  0.00  0.00    +0.000 OA
ATOM     14  C   UNL     1      -5.939   3.837 126.791  0.00  0.00    +0.000 C 
ATOM     15  C   UNL     1      -7.706   3.044 127.311  0.00  0.00    +0.000 C 
ATOM     16  C   UNL     1      -7.904   1.200 127.960  0.00  0.00    +0.000 C 
ATOM     17  C   UNL     1      -7.361   1.370 125.702  0.00  0.00    +0.000 A 
ATOM     18  C   UNL     1      -7.248   2.333 124.671  0.00  0.00    +0.000 A 
ENDROOT
BRANCH   1  20
ATOM     19  N   UNL     1      -8.258   3.644 121.731  0.00  0.00    +0.000 N 
ATOM     20  C   UNL     1      -7.214   3.035 122.346  0.00  0.00    +0.000 C 
ATOM     21  O   UNL     1      -6.055   3.351 122.114  0.00  0.00    +0.000 OA
ATOM     22  H   UNL     1      -8.018   4.405 121.116  0.00  0.00    +0.000 HD
ATOM     23  H   UNL     1      -9.207   3.495 122.036  0.00  0.00    +0.000 HD
ENDBRANCH   1  20
BRANCH  16  24
ATOM     24  O   UNL     1      -8.364   1.357 129.295  0.00  0.00    +0.000 OA
ATOM     25  H   UNL     1      -7.630   1.739 129.833  0.00  0.00    +0.000 HD
ENDBRANCH  16  24
BRANCH  18  26
ATOM     26  O   UNL     1      -7.032   3.677 124.707  0.00  0.00    +0.000 OA
ATOM     27  H   UNL     1      -6.489   4.002 125.422  0.00  0.00    +0.000 HD
ENDBRANCH  18  26
BRANCH   7  28
ATOM     28  C   UNL     1      -6.183  -2.531 125.733  0.00  0.00    +0.000 C 
BRANCH  28  29
ATOM     29  C   UNL     1      -5.504  -2.018 124.499  0.00  0.00    +0.000 C 
ATOM     30  C   UNL     1      -4.816  -2.925 123.479  0.00  0.00    +0.000 C 
ATOM     31  C   UNL     1      -6.030  -2.144 123.072  0.00  0.00    +0.000 C 
ENDBRANCH  28  29
ENDBRANCH   7  28
TORSDOF 5
ENDMDL
MODEL 9
REMARK VINA RESULT:      -6.6      2.259      4.930
REMARK  Name = Samidorphan
REMARK  5 active torsions:
REMARK  status: ('A' for Active; 'I' for Inactive)
REMARK    1  A    between atoms: C_2  and  C_4
REMARK    2  A    between atoms: N_10  and  C_11
REMARK    3  A    between atoms: C_11  and  C_12
REMARK    4  A    between atoms: C_23  and  O_24
REMARK    5  A    between atoms: C_26  and  O_27
REMARK                            x       y       z     vdW  Elec       q    Type
REMARK                         _______ _______ _______ _____ _____    ______ ____
ROOT
ATOM      1  C   UNL     1      -6.656   0.837 128.235  0.00  0.00    +0.000 A 
ATOM      2  C   UNL     1      -7.535   1.896 128.119  0.00  0.00    +0.000 A 
ATOM      3  C   UNL     1      -8.563   1.826 127.218  0.00  0.00    +0.000 A 
ATOM      4  C   UNL     1      -8.576   0.770 126.326  0.00  0.00    +0.000 A 
ATOM      5  C   UNL     1      -9.739   0.741 125.434  0.00  0.00    +0.000 C 
ATOM      6  C   UNL     1      -9.321   0.127 124.194  0.00  0.00    +0.000 C 
ATOM      7  N   UNL     1      -8.208   1.054 123.312  0.00  0.00    +0.000 NA
ATOM      8  C   UNL     1      -6.971   0.428 123.624  0.00  0.00    +0.000 C 
ATOM      9  C   UNL     1      -7.400  -0.950 123.400  0.00  0.00    +0.000 C 
ATOM     10  C   UNL     1      -7.589  -1.424 124.792  0.00  0.00    +0.000 C 
ATOM     11  C   UNL     1      -6.831  -2.724 124.498  0.00  0.00    +0.000 C 
ATOM     12  C   UNL     1      -5.714  -2.108 125.178  0.00  0.00    +0.000 C 
ATOM     13  O   UNL     1      -5.089  -1.006 125.077  0.00  0.00    +0.000 OA
ATOM     14  C   UNL     1      -5.965  -2.863 126.346  0.00  0.00    +0.000 C 
ATOM     15  C   UNL     1      -7.949  -2.580 126.439  0.00  0.00    +0.000 C 
ATOM     16  C   UNL     1      -8.968  -1.667 125.028  0.00  0.00    +0.000 C 
ATOM     17  C   UNL     1      -7.566  -0.271 126.258  0.00  0.00    +0.000 A 
ATOM     18  C   UNL     1      -6.757  -0.277 127.418  0.00  0.00    +0.000 A 
ENDROOT
BRANCH   1  20
ATOM     19  N   UNL     1      -4.356   1.076 128.799  0.00  0.00    +0.000 N 
ATOM     20  C   UNL     1      -5.598   0.793 129.265  0.00  0.00    +0.000 C 
ATOM     21  O   UNL     1      -5.810   0.596 130.454  0.00  0.00    +0.000 OA
ATOM     22  H   UNL     1      -3.637   1.166 129.499  0.00  0.00    +0.000 HD
ATOM     23  H   UNL     1      -4.211   1.392 127.853  0.00  0.00    +0.000 HD
ENDBRANCH   1  20
BRANCH  16  24
ATOM     24  O   UNL     1      -9.833  -2.675 124.527  0.00  0.00    +0.000 OA
ATOM     25  H   UNL     1     -10.741  -2.294 124.448  0.00  0.00    +0.000 HD
ENDBRANCH  16  24
BRANCH  18  26
ATOM     26  O   UNL     1      -6.151  -1.291 128.095  0.00  0.00    +0.000 OA
ATOM     27  H   UNL     1      -5.483  -1.039 128.729  0.00  0.00    +0.000 HD
ENDBRANCH  18  26
BRANCH   7  28
ATOM     28  C   UNL     1      -7.822   2.523 123.301  0.00  0.00    +0.000 C 
BRANCH  28  29
ATOM     29  C   UNL     1      -6.606   2.970 124.054  0.00  0.00    +0.000 C 
ATOM     30  C   UNL     1      -5.813   4.227 123.700  0.00  0.00    +0.000 C 
ATOM     31  C   UNL     1      -6.534   4.155 125.013  0.00  0.00    +0.000 C 
ENDBRANCH  28  29
ENDBRANCH   7  28
TORSDOF 5
ENDMDL
