MODEL 1
REMARK VINA RESULT:      -6.4      0.000      0.000
REMARK  Name = Sapropterin
REMARK  5 active torsions:
REMARK  status: ('A' for Active; 'I' for Inactive)
REMARK    1  A    between atoms: C_2  and  C_14
REMARK    2  A    between atoms: C_14  and  O_15
REMARK    3  A    between atoms: C_14  and  C_16
REMARK    4  A    between atoms: C_16  and  C_17
REMARK    5  A    between atoms: C_16  and  O_18
REMARK                            x       y       z     vdW  Elec       q    Type
REMARK                         _______ _______ _______ _____ _____    ______ ____
ROOT
ATOM      1  C   UNL     1     -11.599   7.938 129.611  0.00  0.00    +0.000 C 
ATOM      2  C   UNL     1     -12.512   6.865 130.259  0.00  0.00    +0.000 C 
ATOM      3  N   UNL     1     -11.974   6.343 131.494  0.00  0.00    +0.000 N 
ATOM      4  C   UNL     1     -10.615   6.246 131.707  0.00  0.00    +0.000 A 
ATOM      5  C   UNL     1      -9.779   6.810 130.793  0.00  0.00    +0.000 A 
ATOM      6  N   UNL     1     -10.225   7.425 129.623  0.00  0.00    +0.000 N 
ATOM      7  C   UNL     1      -8.335   6.797 131.120  0.00  0.00    +0.000 A 
ATOM      8  O   UNL     1      -7.494   7.340 130.396  0.00  0.00    +0.000 OA
ATOM      9  N   UNL     1      -8.009   6.185 132.287  0.00  0.00    +0.000 N 
ATOM     10  C   UNL     1      -8.932   5.614 133.101  0.00  0.00    +0.000 A 
ATOM     11  N   UNL     1      -8.489   5.027 134.224  0.00  0.00    +0.000 N 
ATOM     12  N   UNL     1     -10.200   5.613 132.838  0.00  0.00    +0.000 NA
ATOM     13  H   UNL     1     -12.520   5.676 132.025  0.00  0.00    +0.000 HD
ATOM     14  H   UNL     1      -9.513   7.871 129.045  0.00  0.00    +0.000 HD
ATOM     15  H   UNL     1      -7.033   6.173 132.528  0.00  0.00    +0.000 HD
ATOM     16  H   UNL     1      -7.521   5.015 134.499  0.00  0.00    +0.000 HD
ATOM     17  H   UNL     1      -9.178   4.578 134.814  0.00  0.00    +0.000 HD
ENDROOT
BRANCH   1  18
ATOM     18  C   UNL     1     -12.029   8.302 128.176  0.00  0.00    +0.000 C 
BRANCH  18  19
ATOM     19  O   UNL     1     -13.465   8.461 128.136  0.00  0.00    +0.000 OA
ATOM     20  H   UNL     1     -13.722   9.162 128.761  0.00  0.00    +0.000 HD
ENDBRANCH  18  19
BRANCH  18  21
ATOM     21  C   UNL     1     -11.556   7.241 127.148  0.00  0.00    +0.000 C 
ATOM     22  C   UNL     1     -10.750   7.827 125.985  0.00  0.00    +0.000 C 
BRANCH  21  23
ATOM     23  O   UNL     1     -12.674   6.580 126.551  0.00  0.00    +0.000 OA
ATOM     24  H   UNL     1     -13.122   7.229 125.979  0.00  0.00    +0.000 HD
ENDBRANCH  21  23
ENDBRANCH  18  21
ENDBRANCH   1  18
TORSDOF 4
ENDMDL
MODEL 2
REMARK VINA RESULT:      -6.4      1.452      1.738
REMARK  Name = Sapropterin
REMARK  5 active torsions:
REMARK  status: ('A' for Active; 'I' for Inactive)
REMARK    1  A    between atoms: C_2  and  C_14
REMARK    2  A    between atoms: C_14  and  O_15
REMARK    3  A    between atoms: C_14  and  C_16
REMARK    4  A    between atoms: C_16  and  C_17
REMARK    5  A    between atoms: C_16  and  O_18
REMARK                            x       y       z     vdW  Elec       q    Type
REMARK                         _______ _______ _______ _____ _____    ______ ____
ROOT
ATOM      1  C   UNL     1     -11.013   7.541 130.136  0.00  0.00    +0.000 C 
ATOM      2  C   UNL     1     -11.823   6.405 130.814  0.00  0.00    +0.000 C 
ATOM      3  N   UNL     1     -11.196   5.911 132.018  0.00  0.00    +0.000 N 
ATOM      4  C   UNL     1      -9.825   5.903 132.170  0.00  0.00    +0.000 A 
ATOM      5  C   UNL     1      -9.071   6.528 131.225  0.00  0.00    +0.000 A 
ATOM      6  N   UNL     1      -9.609   7.120 130.082  0.00  0.00    +0.000 N 
ATOM      7  C   UNL     1      -7.615   6.609 131.487  0.00  0.00    +0.000 A 
ATOM      8  O   UNL     1      -6.846   7.211 130.731  0.00  0.00    +0.000 OA
ATOM      9  N   UNL     1      -7.197   6.012 132.632  0.00  0.00    +0.000 N 
ATOM     10  C   UNL     1      -8.043   5.375 133.480  0.00  0.00    +0.000 A 
ATOM     11  N   UNL     1      -7.512   4.812 134.576  0.00  0.00    +0.000 N 
ATOM     12  N   UNL     1      -9.319   5.291 133.274  0.00  0.00    +0.000 NA
ATOM     13  H   UNL     1     -11.672   5.205 132.567  0.00  0.00    +0.000 HD
ATOM     14  H   UNL     1      -8.955   7.616 129.477  0.00  0.00    +0.000 HD
ATOM     15  H   UNL     1      -6.213   6.064 132.828  0.00  0.00    +0.000 HD
ATOM     16  H   UNL     1      -6.533   4.862 134.808  0.00  0.00    +0.000 HD
ATOM     17  H   UNL     1      -8.142   4.313 135.193  0.00  0.00    +0.000 HD
ENDROOT
BRANCH   1  18
ATOM     18  C   UNL     1     -11.531   7.885 128.726  0.00  0.00    +0.000 C 
BRANCH  18  19
ATOM     19  O   UNL     1     -10.708   8.928 128.158  0.00  0.00    +0.000 OA
ATOM     20  H   UNL     1     -11.255   9.721 128.019  0.00  0.00    +0.000 HD
ENDBRANCH  18  19
BRANCH  18  21
ATOM     21  C   UNL     1     -13.025   8.304 128.750  0.00  0.00    +0.000 C 
ATOM     22  C   UNL     1     -13.886   7.571 127.716  0.00  0.00    +0.000 C 
BRANCH  21  23
ATOM     23  O   UNL     1     -13.166   9.695 128.456  0.00  0.00    +0.000 OA
ATOM     24  H   UNL     1     -12.281  10.035 128.230  0.00  0.00    +0.000 HD
ENDBRANCH  21  23
ENDBRANCH  18  21
ENDBRANCH   1  18
TORSDOF 4
ENDMDL
MODEL 3
REMARK VINA RESULT:      -6.3      2.733      6.082
REMARK  Name = Sapropterin
REMARK  5 active torsions:
REMARK  status: ('A' for Active; 'I' for Inactive)
REMARK    1  A    between atoms: C_2  and  C_14
REMARK    2  A    between atoms: C_14  and  O_15
REMARK    3  A    between atoms: C_14  and  C_16
REMARK    4  A    between atoms: C_16  and  C_17
REMARK    5  A    between atoms: C_16  and  O_18
REMARK                            x       y       z     vdW  Elec       q    Type
REMARK                         _______ _______ _______ _____ _____    ______ ____
ROOT
ATOM      1  C   UNL     1      -9.301   5.358 132.756  0.00  0.00    +0.000 C 
ATOM      2  C   UNL     1      -8.292   5.268 131.581  0.00  0.00    +0.000 C 
ATOM      3  N   UNL     1      -8.508   6.286 130.579  0.00  0.00    +0.000 N 
ATOM      4  C   UNL     1      -9.766   6.783 130.311  0.00  0.00    +0.000 A 
ATOM      5  C   UNL     1     -10.789   6.416 131.130  0.00  0.00    +0.000 A 
ATOM      6  N   UNL     1     -10.642   5.516 132.186  0.00  0.00    +0.000 N 
ATOM      7  C   UNL     1     -12.097   7.069 130.889  0.00  0.00    +0.000 A 
ATOM      8  O   UNL     1     -13.076   6.863 131.613  0.00  0.00    +0.000 OA
ATOM      9  N   UNL     1     -12.129   7.937 129.845  0.00  0.00    +0.000 N 
ATOM     10  C   UNL     1     -11.048   8.190 129.066  0.00  0.00    +0.000 A 
ATOM     11  N   UNL     1     -11.203   9.059 128.056  0.00  0.00    +0.000 N 
ATOM     12  N   UNL     1      -9.894   7.634 129.256  0.00  0.00    +0.000 NA
ATOM     13  H   UNL     1      -7.868   6.348 129.796  0.00  0.00    +0.000 HD
ATOM     14  H   UNL     1     -11.463   5.366 132.772  0.00  0.00    +0.000 HD
ATOM     15  H   UNL     1     -13.008   8.394 129.673  0.00  0.00    +0.000 HD
ATOM     16  H   UNL     1     -12.066   9.545 127.868  0.00  0.00    +0.000 HD
ATOM     17  H   UNL     1     -10.402   9.225 127.459  0.00  0.00    +0.000 HD
ENDROOT
BRANCH   1  18
ATOM     18  C   UNL     1      -9.247   4.128 133.685  0.00  0.00    +0.000 C 
BRANCH  18  19
ATOM     19  O   UNL     1      -8.519   4.470 134.885  0.00  0.00    +0.000 OA
ATOM     20  H   UNL     1      -9.140   4.839 135.536  0.00  0.00    +0.000 HD
ENDBRANCH  18  19
BRANCH  18  21
ATOM     21  C   UNL     1      -8.614   2.901 132.977  0.00  0.00    +0.000 C 
ATOM     22  C   UNL     1      -9.644   1.900 132.443  0.00  0.00    +0.000 C 
BRANCH  21  23
ATOM     23  O   UNL     1      -7.789   2.164 133.881  0.00  0.00    +0.000 OA
ATOM     24  H   UNL     1      -6.868   2.441 133.725  0.00  0.00    +0.000 HD
ENDBRANCH  21  23
ENDBRANCH  18  21
ENDBRANCH   1  18
TORSDOF 4
ENDMDL
MODEL 4
REMARK VINA RESULT:      -6.2      2.641      5.644
REMARK  Name = Sapropterin
REMARK  5 active torsions:
REMARK  status: ('A' for Active; 'I' for Inactive)
REMARK    1  A    between atoms: C_2  and  C_14
REMARK    2  A    between atoms: C_14  and  O_15
REMARK    3  A    between atoms: C_14  and  C_16
REMARK    4  A    between atoms: C_16  and  C_17
REMARK    5  A    between atoms: C_16  and  O_18
REMARK                            x       y       z     vdW  Elec       q    Type
REMARK                         _______ _______ _______ _____ _____    ______ ____
ROOT
ATOM      1  C   UNL     1     -10.138   5.022 131.097  0.00  0.00    +0.000 C 
ATOM      2  C   UNL     1     -10.694   5.967 132.194  0.00  0.00    +0.000 C 
ATOM      3  N   UNL     1     -11.666   6.906 131.684  0.00  0.00    +0.000 N 
ATOM      4  C   UNL     1     -11.601   7.387 130.393  0.00  0.00    +0.000 A 
ATOM      5  C   UNL     1     -10.693   6.829 129.546  0.00  0.00    +0.000 A 
ATOM      6  N   UNL     1      -9.786   5.843 129.934  0.00  0.00    +0.000 N 
ATOM      7  C   UNL     1     -10.739   7.282 128.136  0.00  0.00    +0.000 A 
ATOM      8  O   UNL     1     -10.008   6.795 127.267  0.00  0.00    +0.000 OA
ATOM      9  N   UNL     1     -11.665   8.235 127.862  0.00  0.00    +0.000 N 
ATOM     10  C   UNL     1     -12.491   8.751 128.806  0.00  0.00    +0.000 A 
ATOM     11  N   UNL     1     -13.359   9.698 128.419  0.00  0.00    +0.000 N 
ATOM     12  N   UNL     1     -12.472   8.372 130.044  0.00  0.00    +0.000 NA
ATOM     13  H   UNL     1     -12.131   7.532 132.331  0.00  0.00    +0.000 HD
ATOM     14  H   UNL     1      -9.198   5.452 129.198  0.00  0.00    +0.000 HD
ATOM     15  H   UNL     1     -11.714   8.548 126.908  0.00  0.00    +0.000 HD
ATOM     16  H   UNL     1     -13.443  10.020 127.468  0.00  0.00    +0.000 HD
ATOM     17  H   UNL     1     -13.955  10.101 129.132  0.00  0.00    +0.000 HD
ENDROOT
BRANCH   1  18
ATOM     18  C   UNL     1      -8.920   4.205 131.573  0.00  0.00    +0.000 C 
BRANCH  18  19
ATOM     19  O   UNL     1      -8.599   3.207 130.580  0.00  0.00    +0.000 OA
ATOM     20  H   UNL     1      -7.774   3.463 130.131  0.00  0.00    +0.000 HD
ENDBRANCH  18  19
BRANCH  18  21
ATOM     21  C   UNL     1      -9.171   3.554 132.959  0.00  0.00    +0.000 C 
ATOM     22  C   UNL     1      -7.894   3.074 133.655  0.00  0.00    +0.000 C 
BRANCH  21  23
ATOM     23  O   UNL     1     -10.002   2.398 132.832  0.00  0.00    +0.000 OA
ATOM     24  H   UNL     1     -10.207   2.088 133.733  0.00  0.00    +0.000 HD
ENDBRANCH  21  23
ENDBRANCH  18  21
ENDBRANCH   1  18
TORSDOF 4
ENDMDL
MODEL 5
REMARK VINA RESULT:      -6.2      2.634      6.178
REMARK  Name = Sapropterin
REMARK  5 active torsions:
REMARK  status: ('A' for Active; 'I' for Inactive)
REMARK    1  A    between atoms: C_2  and  C_14
REMARK    2  A    between atoms: C_14  and  O_15
REMARK    3  A    between atoms: C_14  and  C_16
REMARK    4  A    between atoms: C_16  and  C_17
REMARK    5  A    between atoms: C_16  and  O_18
REMARK                            x       y       z     vdW  Elec       q    Type
REMARK                         _______ _______ _______ _____ _____    ______ ____
ROOT
ATOM      1  C   UNL     1      -9.269   5.499 131.963  0.00  0.00    +0.000 C 
ATOM      2  C   UNL     1      -8.865   4.805 130.636  0.00  0.00    +0.000 C 
ATOM      3  N   UNL     1      -9.483   5.407 129.478  0.00  0.00    +0.000 N 
ATOM      4  C   UNL     1     -10.730   5.992 129.545  0.00  0.00    +0.000 A 
ATOM      5  C   UNL     1     -11.305   6.142 130.770  0.00  0.00    +0.000 A 
ATOM      6  N   UNL     1     -10.724   5.679 131.951  0.00  0.00    +0.000 N 
ATOM      7  C   UNL     1     -12.584   6.887 130.815  0.00  0.00    +0.000 A 
ATOM      8  O   UNL     1     -13.158   7.141 131.879  0.00  0.00    +0.000 OA
ATOM      9  N   UNL     1     -13.055   7.305 129.612  0.00  0.00    +0.000 N 
ATOM     10  C   UNL     1     -12.413   7.055 128.443  0.00  0.00    +0.000 A 
ATOM     11  N   UNL     1     -12.981   7.508 127.316  0.00  0.00    +0.000 N 
ATOM     12  N   UNL     1     -11.293   6.407 128.378  0.00  0.00    +0.000 NA
ATOM     13  H   UNL     1      -9.242   5.063 128.557  0.00  0.00    +0.000 HD
ATOM     14  H   UNL     1     -11.214   5.905 132.817  0.00  0.00    +0.000 HD
ATOM     15  H   UNL     1     -13.919   7.818 129.626  0.00  0.00    +0.000 HD
ATOM     16  H   UNL     1     -13.836   8.040 127.299  0.00  0.00    +0.000 HD
ATOM     17  H   UNL     1     -12.513   7.296 126.443  0.00  0.00    +0.000 HD
ENDROOT
BRANCH   1  18
ATOM     18  C   UNL     1      -8.831   4.706 133.211  0.00  0.00    +0.000 C 
BRANCH  18  19
ATOM     19  O   UNL     1     -10.003   4.228 133.907  0.00  0.00    +0.000 OA
ATOM     20  H   UNL     1      -9.720   3.704 134.677  0.00  0.00    +0.000 HD
ENDBRANCH  18  19
BRANCH  18  21
ATOM     21  C   UNL     1      -7.933   5.558 134.147  0.00  0.00    +0.000 C 
ATOM     22  C   UNL     1      -7.201   4.737 135.213  0.00  0.00    +0.000 C 
BRANCH  21  23
ATOM     23  O   UNL     1      -8.715   6.516 134.864  0.00  0.00    +0.000 OA
ATOM     24  H   UNL     1      -9.604   6.521 134.466  0.00  0.00    +0.000 HD
ENDBRANCH  21  23
ENDBRANCH  18  21
ENDBRANCH   1  18
TORSDOF 4
ENDMDL
MODEL 6
REMARK VINA RESULT:      -6.0      2.192      2.546
REMARK  Name = Sapropterin
REMARK  5 active torsions:
REMARK  status: ('A' for Active; 'I' for Inactive)
REMARK    1  A    between atoms: C_2  and  C_14
REMARK    2  A    between atoms: C_14  and  O_15
REMARK    3  A    between atoms: C_14  and  C_16
REMARK    4  A    between atoms: C_16  and  C_17
REMARK    5  A    between atoms: C_16  and  O_18
REMARK                            x       y       z     vdW  Elec       q    Type
REMARK                         _______ _______ _______ _____ _____    ______ ____
ROOT
ATOM      1  C   UNL     1     -11.374   6.721 130.229  0.00  0.00    +0.000 C 
ATOM      2  C   UNL     1     -11.761   6.785 131.730  0.00  0.00    +0.000 C 
ATOM      3  N   UNL     1     -10.813   6.107 132.583  0.00  0.00    +0.000 N 
ATOM      4  C   UNL     1     -10.104   5.007 132.146  0.00  0.00    +0.000 A 
ATOM      5  C   UNL     1     -10.192   4.667 130.831  0.00  0.00    +0.000 A 
ATOM      6  N   UNL     1     -11.008   5.336 129.919  0.00  0.00    +0.000 N 
ATOM      7  C   UNL     1      -9.320   3.560 130.375  0.00  0.00    +0.000 A 
ATOM      8  O   UNL     1      -9.267   3.213 129.190  0.00  0.00    +0.000 OA
ATOM      9  N   UNL     1      -8.557   2.986 131.339  0.00  0.00    +0.000 N 
ATOM     10  C   UNL     1      -8.588   3.383 132.636  0.00  0.00    +0.000 A 
ATOM     11  N   UNL     1      -7.797   2.733 133.503  0.00  0.00    +0.000 N 
ATOM     12  N   UNL     1      -9.341   4.348 133.060  0.00  0.00    +0.000 NA
ATOM     13  H   UNL     1     -10.945   6.137 133.586  0.00  0.00    +0.000 HD
ATOM     14  H   UNL     1     -10.943   5.035 128.946  0.00  0.00    +0.000 HD
ATOM     15  H   UNL     1      -7.954   2.237 131.045  0.00  0.00    +0.000 HD
ATOM     16  H   UNL     1      -7.171   1.991 133.234  0.00  0.00    +0.000 HD
ATOM     17  H   UNL     1      -7.844   3.014 134.474  0.00  0.00    +0.000 HD
ENDROOT
BRANCH   1  18
ATOM     18  C   UNL     1     -12.505   7.205 129.299  0.00  0.00    +0.000 C 
BRANCH  18  19
ATOM     19  O   UNL     1     -12.993   6.088 128.523  0.00  0.00    +0.000 OA
ATOM     20  H   UNL     1     -13.206   6.398 127.625  0.00  0.00    +0.000 HD
ENDBRANCH  18  19
BRANCH  18  21
ATOM     21  C   UNL     1     -12.034   8.362 128.378  0.00  0.00    +0.000 C 
ATOM     22  C   UNL     1     -10.511   8.478 128.265  0.00  0.00    +0.000 C 
BRANCH  21  23
ATOM     23  O   UNL     1     -12.484   9.623 128.878  0.00  0.00    +0.000 OA
ATOM     24  H   UNL     1     -12.889   9.461 129.750  0.00  0.00    +0.000 HD
ENDBRANCH  21  23
ENDBRANCH  18  21
ENDBRANCH   1  18
TORSDOF 4
ENDMDL
MODEL 7
REMARK VINA RESULT:      -5.9      9.484     10.997
REMARK  Name = Sapropterin
REMARK  5 active torsions:
REMARK  status: ('A' for Active; 'I' for Inactive)
REMARK    1  A    between atoms: C_2  and  C_14
REMARK    2  A    between atoms: C_14  and  O_15
REMARK    3  A    between atoms: C_14  and  C_16
REMARK    4  A    between atoms: C_16  and  C_17
REMARK    5  A    between atoms: C_16  and  O_18
REMARK                            x       y       z     vdW  Elec       q    Type
REMARK                         _______ _______ _______ _____ _____    ______ ____
ROOT
ATOM      1  C   UNL     1      -7.847  -0.773 125.452  0.00  0.00    +0.000 C 
ATOM      2  C   UNL     1      -6.464  -0.169 125.094  0.00  0.00    +0.000 C 
ATOM      3  N   UNL     1      -6.567   1.079 124.375  0.00  0.00    +0.000 N 
ATOM      4  C   UNL     1      -7.623   1.342 123.527  0.00  0.00    +0.000 A 
ATOM      5  C   UNL     1      -8.664   0.465 123.507  0.00  0.00    +0.000 A 
ATOM      6  N   UNL     1      -8.687  -0.715 124.252  0.00  0.00    +0.000 N 
ATOM      7  C   UNL     1      -9.834   0.845 122.682  0.00  0.00    +0.000 A 
ATOM      8  O   UNL     1     -10.859   0.158 122.644  0.00  0.00    +0.000 OA
ATOM      9  N   UNL     1      -9.713   2.017 122.008  0.00  0.00    +0.000 N 
ATOM     10  C   UNL     1      -8.600   2.791 122.071  0.00  0.00    +0.000 A 
ATOM     11  N   UNL     1      -8.592   3.923 121.352  0.00  0.00    +0.000 N 
ATOM     12  N   UNL     1      -7.565   2.481 122.785  0.00  0.00    +0.000 NA
ATOM     13  H   UNL     1      -5.720   1.584 124.141  0.00  0.00    +0.000 HD
ATOM     14  H   UNL     1      -9.547  -1.262 124.208  0.00  0.00    +0.000 HD
ATOM     15  H   UNL     1     -10.501   2.294 121.449  0.00  0.00    +0.000 HD
ATOM     16  H   UNL     1      -9.372   4.235 120.796  0.00  0.00    +0.000 HD
ATOM     17  H   UNL     1      -7.749   4.484 121.380  0.00  0.00    +0.000 HD
ENDROOT
BRANCH   1  18
ATOM     18  C   UNL     1      -7.751  -2.219 125.978  0.00  0.00    +0.000 C 
BRANCH  18  19
ATOM     19  O   UNL     1      -7.363  -3.094 124.895  0.00  0.00    +0.000 OA
ATOM     20  H   UNL     1      -7.695  -3.990 125.080  0.00  0.00    +0.000 HD
ENDBRANCH  18  19
BRANCH  18  21
ATOM     21  C   UNL     1      -9.083  -2.685 126.622  0.00  0.00    +0.000 C 
ATOM     22  C   UNL     1      -8.940  -3.936 127.495  0.00  0.00    +0.000 C 
BRANCH  21  23
ATOM     23  O   UNL     1     -10.042  -3.021 125.618  0.00  0.00    +0.000 OA
ATOM     24  H   UNL     1      -9.753  -3.858 125.210  0.00  0.00    +0.000 HD
ENDBRANCH  21  23
ENDBRANCH  18  21
ENDBRANCH   1  18
TORSDOF 4
ENDMDL
MODEL 8
REMARK VINA RESULT:      -5.8      8.997     10.038
REMARK  Name = Sapropterin
REMARK  5 active torsions:
REMARK  status: ('A' for Active; 'I' for Inactive)
REMARK    1  A    between atoms: C_2  and  C_14
REMARK    2  A    between atoms: C_14  and  O_15
REMARK    3  A    between atoms: C_14  and  C_16
REMARK    4  A    between atoms: C_16  and  C_17
REMARK    5  A    between atoms: C_16  and  O_18
REMARK                            x       y       z     vdW  Elec       q    Type
REMARK                         _______ _______ _______ _____ _____    ______ ____
ROOT
ATOM      1  C   UNL     1      -6.837   2.119 124.354  0.00  0.00    +0.000 C 
ATOM      2  C   UNL     1      -8.295   2.301 124.848  0.00  0.00    +0.000 C 
ATOM      3  N   UNL     1      -8.937   1.049 125.175  0.00  0.00    +0.000 N 
ATOM      4  C   UNL     1      -8.623  -0.120 124.513  0.00  0.00    +0.000 A 
ATOM      5  C   UNL     1      -7.568  -0.107 123.652  0.00  0.00    +0.000 A 
ATOM      6  N   UNL     1      -6.831   1.041 123.360  0.00  0.00    +0.000 N 
ATOM      7  C   UNL     1      -7.183  -1.408 123.059  0.00  0.00    +0.000 A 
ATOM      8  O   UNL     1      -6.201  -1.525 122.318  0.00  0.00    +0.000 OA
ATOM      9  N   UNL     1      -7.958  -2.463 123.418  0.00  0.00    +0.000 N 
ATOM     10  C   UNL     1      -9.019  -2.344 124.255  0.00  0.00    +0.000 A 
ATOM     11  N   UNL     1      -9.718  -3.456 124.530  0.00  0.00    +0.000 N 
ATOM     12  N   UNL     1      -9.376  -1.219 124.788  0.00  0.00    +0.000 NA
ATOM     13  H   UNL     1      -9.874   1.062 125.559  0.00  0.00    +0.000 HD
ATOM     14  H   UNL     1      -6.022   0.918 122.751  0.00  0.00    +0.000 HD
ATOM     15  H   UNL     1      -7.705  -3.355 123.030  0.00  0.00    +0.000 HD
ATOM     16  H   UNL     1      -9.479  -4.366 124.169  0.00  0.00    +0.000 HD
ATOM     17  H   UNL     1     -10.525  -3.359 125.132  0.00  0.00    +0.000 HD
ENDROOT
BRANCH   1  18
ATOM     18  C   UNL     1      -6.242   3.410 123.757  0.00  0.00    +0.000 C 
BRANCH  18  19
ATOM     19  O   UNL     1      -6.998   4.546 124.231  0.00  0.00    +0.000 OA
ATOM     20  H   UNL     1      -7.671   4.776 123.567  0.00  0.00    +0.000 HD
ENDBRANCH  18  19
BRANCH  18  21
ATOM     21  C   UNL     1      -6.214   3.366 122.206  0.00  0.00    +0.000 C 
ATOM     22  C   UNL     1      -5.213   4.343 121.580  0.00  0.00    +0.000 C 
BRANCH  21  23
ATOM     23  O   UNL     1      -7.489   3.719 121.666  0.00  0.00    +0.000 OA
ATOM     24  H   UNL     1      -8.017   2.902 121.613  0.00  0.00    +0.000 HD
ENDBRANCH  21  23
ENDBRANCH  18  21
ENDBRANCH   1  18
TORSDOF 4
ENDMDL
MODEL 9
REMARK VINA RESULT:      -5.7      8.256      9.322
REMARK  Name = Sapropterin
REMARK  5 active torsions:
REMARK  status: ('A' for Active; 'I' for Inactive)
REMARK    1  A    between atoms: C_2  and  C_14
REMARK    2  A    between atoms: C_14  and  O_15
REMARK    3  A    between atoms: C_14  and  C_16
REMARK    4  A    between atoms: C_16  and  C_17
REMARK    5  A    between atoms: C_16  and  O_18
REMARK                            x       y       z     vdW  Elec       q    Type
REMARK                         _______ _______ _______ _____ _____    ______ ____
ROOT
ATOM      1  C   UNL     1      -8.694   2.603 124.963  0.00  0.00    +0.000 C 
ATOM      2  C   UNL     1      -8.686   2.459 123.419  0.00  0.00    +0.000 C 
ATOM      3  N   UNL     1      -9.196   1.183 122.973  0.00  0.00    +0.000 N 
ATOM      4  C   UNL     1      -9.044   0.039 123.727  0.00  0.00    +0.000 A 
ATOM      5  C   UNL     1      -8.548   0.162 124.989  0.00  0.00    +0.000 A 
ATOM      6  N   UNL     1      -8.128   1.376 125.532  0.00  0.00    +0.000 N 
ATOM      7  C   UNL     1      -8.519  -1.069 125.812  0.00  0.00    +0.000 A 
ATOM      8  O   UNL     1      -8.153  -1.060 126.991  0.00  0.00    +0.000 OA
ATOM      9  N   UNL     1      -8.961  -2.193 125.192  0.00  0.00    +0.000 N 
ATOM     10  C   UNL     1      -9.394  -2.202 123.906  0.00  0.00    +0.000 A 
ATOM     11  N   UNL     1      -9.796  -3.376 123.397  0.00  0.00    +0.000 N 
ATOM     12  N   UNL     1      -9.429  -1.140 123.166  0.00  0.00    +0.000 NA
ATOM     13  H   UNL     1      -9.283   1.009 121.979  0.00  0.00    +0.000 HD
ATOM     14  H   UNL     1      -7.835   1.359 126.509  0.00  0.00    +0.000 HD
ATOM     15  H   UNL     1      -8.955  -3.036 125.739  0.00  0.00    +0.000 HD
ATOM     16  H   UNL     1      -9.818  -4.233 123.925  0.00  0.00    +0.000 HD
ATOM     17  H   UNL     1     -10.092  -3.384 122.429  0.00  0.00    +0.000 HD
ENDROOT
BRANCH   1  18
ATOM     18  C   UNL     1      -7.913   3.839 125.453  0.00  0.00    +0.000 C 
BRANCH  18  19
ATOM     19  O   UNL     1      -8.789   4.988 125.447  0.00  0.00    +0.000 OA
ATOM     20  H   UNL     1      -9.704   4.687 125.590  0.00  0.00    +0.000 HD
ENDBRANCH  18  19
BRANCH  18  21
ATOM     21  C   UNL     1      -6.649   4.097 124.591  0.00  0.00    +0.000 C 
ATOM     22  C   UNL     1      -5.382   3.434 125.143  0.00  0.00    +0.000 C 
BRANCH  21  23
ATOM     23  O   UNL     1      -6.357   5.495 124.525  0.00  0.00    +0.000 OA
ATOM     24  H   UNL     1      -5.722   5.692 125.237  0.00  0.00    +0.000 HD
ENDBRANCH  21  23
ENDBRANCH  18  21
ENDBRANCH   1  18
TORSDOF 4
ENDMDL
