MODEL 1
REMARK VINA RESULT:     -10.0      0.000      0.000
REMARK  Name = Saquinavir
REMARK  17 active torsions:
REMARK  status: ('A' for Active; 'I' for Inactive)
REMARK    1  A    between atoms: N_10  and  C_11
REMARK    2  A    between atoms: C_11  and  C_12
REMARK    3  A    between atoms: C_12  and  O_13
REMARK    4  A    between atoms: C_12  and  C_14
REMARK    5  A    between atoms: C_14  and  C_15
REMARK    6  A    between atoms: C_14  and  N_22
REMARK    7  A    between atoms: C_15  and  C_16
REMARK    8  A    between atoms: C_23  and  C_25
REMARK    9  A    between atoms: C_25  and  C_26
REMARK   10  A    between atoms: C_25  and  N_30
REMARK   11  A    between atoms: C_26  and  C_27
REMARK   12  A    between atoms: C_31  and  C_33
REMARK   13  A    between atoms: C_43  and  C_45
REMARK   14  A    between atoms: N_47  and  C_48
REMARK   15  A    between atoms: C_48  and  C_49
REMARK   16  A    between atoms: C_48  and  C_50
REMARK   17  A    between atoms: C_48  and  C_51
REMARK                            x       y       z     vdW  Elec       q    Type
REMARK                         _______ _______ _______ _____ _____    ______ ____
ROOT
ATOM      1  C   UNL     1      -6.589   3.502 126.373  0.00  0.00    +0.000 C 
ENDROOT
BRANCH   1   2
ATOM      2  N   UNL     1      -6.912   3.356 127.753  0.00  0.00    +0.000 N 
ATOM      3  C   UNL     1      -7.760   4.308 128.270  0.00  0.00    +0.000 C 
ATOM      4  O   UNL     1      -8.382   5.106 127.581  0.00  0.00    +0.000 OA
ATOM      5  H   UNL     1      -6.166   3.011 128.358  0.00  0.00    +0.000 HD
BRANCH   3   6
ATOM      6  C   UNL     1      -7.993   4.163 129.765  0.00  0.00    +0.000 C 
BRANCH   6   7
ATOM      7  N   UNL     1      -6.931   4.944 130.490  0.00  0.00    +0.000 N 
ATOM      8  C   UNL     1      -5.646   4.401 130.709  0.00  0.00    +0.000 C 
ATOM      9  O   UNL     1      -5.462   3.204 130.481  0.00  0.00    +0.000 OA
ATOM     10  H   UNL     1      -7.179   5.886 130.766  0.00  0.00    +0.000 HD
BRANCH   8  11
ATOM     11  C   UNL     1      -4.451   5.231 131.217  0.00  0.00    +0.000 A 
ATOM     12  N   UNL     1      -3.341   4.549 131.547  0.00  0.00    +0.000 NA
ATOM     13  C   UNL     1      -2.336   5.283 132.081  0.00  0.00    +0.000 A 
ATOM     14  C   UNL     1      -1.867   6.456 131.545  0.00  0.00    +0.000 A 
ATOM     15  C   UNL     1      -0.720   7.107 132.121  0.00  0.00    +0.000 A 
ATOM     16  C   UNL     1      -0.541   6.983 133.496  0.00  0.00    +0.000 A 
ATOM     17  C   UNL     1      -1.408   6.139 134.171  0.00  0.00    +0.000 A 
ATOM     18  C   UNL     1      -2.244   5.279 133.447  0.00  0.00    +0.000 A 
ATOM     19  C   UNL     1      -2.972   7.105 130.956  0.00  0.00    +0.000 A 
ATOM     20  C   UNL     1      -4.327   6.615 131.217  0.00  0.00    +0.000 A 
ENDBRANCH   8  11
ENDBRANCH   6   7
BRANCH   6  21
ATOM     21  C   UNL     1      -9.454   4.660 129.930  0.00  0.00    +0.000 C 
BRANCH  21  22
ATOM     22  C   UNL     1      -9.595   6.030 130.565  0.00  0.00    +0.000 C 
ATOM     23  N   UNL     1      -9.732   7.097 129.727  0.00  0.00    +0.000 N 
ATOM     24  O   UNL     1      -9.527   6.197 131.781  0.00  0.00    +0.000 OA
ATOM     25  H   UNL     1     -10.148   6.966 128.802  0.00  0.00    +0.000 HD
ATOM     26  H   UNL     1      -9.877   8.008 130.137  0.00  0.00    +0.000 HD
ENDBRANCH  21  22
ENDBRANCH   6  21
ENDBRANCH   3   6
ENDBRANCH   1   2
BRANCH   1  27
ATOM     27  C   UNL     1      -7.590   3.118 125.283  0.00  0.00    +0.000 C 
BRANCH  27  28
ATOM     28  O   UNL     1      -8.122   4.281 124.640  0.00  0.00    +0.000 OA
ATOM     29  H   UNL     1      -7.625   5.052 124.980  0.00  0.00    +0.000 HD
ENDBRANCH  27  28
BRANCH  27  30
ATOM     30  C   UNL     1      -7.077   2.140 124.157  0.00  0.00    +0.000 C 
BRANCH  30  38
ATOM     31  C   UNL     1      -8.788  -1.679 123.313  0.00  0.00    +0.000 C 
ATOM     32  C   UNL     1      -9.093  -3.164 123.583  0.00  0.00    +0.000 C 
ATOM     33  C   UNL     1      -8.226  -3.769 124.698  0.00  0.00    +0.000 C 
ATOM     34  C   UNL     1      -6.768  -3.681 124.299  0.00  0.00    +0.000 C 
ATOM     35  C   UNL     1      -6.447  -2.257 123.934  0.00  0.00    +0.000 C 
ATOM     36  C   UNL     1      -7.331  -1.502 122.983  0.00  0.00    +0.000 C 
ATOM     37  C   UNL     1      -6.971  -0.019 123.044  0.00  0.00    +0.000 C 
ATOM     38  N   UNL     1      -7.160   0.648 124.359  0.00  0.00    +0.000 NA
ATOM     39  C   UNL     1      -8.433   0.288 125.081  0.00  0.00    +0.000 C 
ATOM     40  C   UNL     1      -9.262  -0.864 124.515  0.00  0.00    +0.000 C 
BRANCH  39  41
ATOM     41  C   UNL     1      -8.265  -0.127 126.670  0.00  0.00    +0.000 C 
ATOM     42  O   UNL     1      -8.467   0.775 127.557  0.00  0.00    +0.000 OA
ATOM     43  N   UNL     1      -8.092  -1.459 127.002  0.00  0.00    +0.000 N 
ATOM     44  H   UNL     1      -7.694  -1.788 126.128  0.00  0.00    +0.000 HD
BRANCH  43  45
ATOM     45  C   UNL     1      -7.788  -2.379 128.460  0.00  0.00    +0.000 C 
ATOM     46  C   UNL     1      -8.671  -3.666 128.275  0.00  0.00    +0.000 C 
ATOM     47  C   UNL     1      -6.311  -2.609 128.343  0.00  0.00    +0.000 C 
ATOM     48  C   UNL     1      -7.837  -1.790 130.277  0.00  0.00    +0.000 C 
ENDBRANCH  43  45
ENDBRANCH  39  41
ENDBRANCH  30  38
ENDBRANCH  27  30
ENDBRANCH   1  27
BRANCH   1  49
ATOM     49  C   UNL     1      -5.318   2.815 126.177  0.00  0.00    +0.000 C 
BRANCH  49  50
ATOM     50  C   UNL     1      -4.380   3.766 126.769  0.00  0.00    +0.000 A 
ATOM     51  C   UNL     1      -4.504   5.242 127.063  0.00  0.00    +0.000 A 
ATOM     52  C   UNL     1      -3.561   5.999 127.636  0.00  0.00    +0.000 A 
ATOM     53  C   UNL     1      -2.577   5.165 127.929  0.00  0.00    +0.000 A 
ATOM     54  C   UNL     1      -2.799   3.703 128.067  0.00  0.00    +0.000 A 
ATOM     55  C   UNL     1      -3.371   2.985 127.156  0.00  0.00    +0.000 A 
ENDBRANCH  49  50
ENDBRANCH   1  49
TORSDOF 14
ENDMDL
MODEL 2
REMARK VINA RESULT:      -9.5      2.673      7.717
REMARK  Name = Saquinavir
REMARK  17 active torsions:
REMARK  status: ('A' for Active; 'I' for Inactive)
REMARK    1  A    between atoms: N_10  and  C_11
REMARK    2  A    between atoms: C_11  and  C_12
REMARK    3  A    between atoms: C_12  and  O_13
REMARK    4  A    between atoms: C_12  and  C_14
REMARK    5  A    between atoms: C_14  and  C_15
REMARK    6  A    between atoms: C_14  and  N_22
REMARK    7  A    between atoms: C_15  and  C_16
REMARK    8  A    between atoms: C_23  and  C_25
REMARK    9  A    between atoms: C_25  and  C_26
REMARK   10  A    between atoms: C_25  and  N_30
REMARK   11  A    between atoms: C_26  and  C_27
REMARK   12  A    between atoms: C_31  and  C_33
REMARK   13  A    between atoms: C_43  and  C_45
REMARK   14  A    between atoms: N_47  and  C_48
REMARK   15  A    between atoms: C_48  and  C_49
REMARK   16  A    between atoms: C_48  and  C_50
REMARK   17  A    between atoms: C_48  and  C_51
REMARK                            x       y       z     vdW  Elec       q    Type
REMARK                         _______ _______ _______ _____ _____    ______ ____
ROOT
ATOM      1  C   UNL     1      -7.864   2.042 123.821  0.00  0.00    +0.000 C 
ENDROOT
BRANCH   1   2
ATOM      2  N   UNL     1      -8.070   0.660 124.106  0.00  0.00    +0.000 N 
ATOM      3  C   UNL     1      -6.949  -0.044 124.480  0.00  0.00    +0.000 C 
ATOM      4  O   UNL     1      -5.883   0.485 124.769  0.00  0.00    +0.000 OA
ATOM      5  H   UNL     1      -8.758   0.178 123.529  0.00  0.00    +0.000 HD
BRANCH   3   6
ATOM      6  C   UNL     1      -7.205  -1.529 124.677  0.00  0.00    +0.000 C 
BRANCH   6   7
ATOM      7  N   UNL     1      -7.472  -1.777 126.136  0.00  0.00    +0.000 N 
ATOM      8  C   UNL     1      -6.425  -2.110 127.025  0.00  0.00    +0.000 C 
ATOM      9  O   UNL     1      -5.322  -2.396 126.558  0.00  0.00    +0.000 OA
ATOM     10  H   UNL     1      -8.428  -1.646 126.444  0.00  0.00    +0.000 HD
BRANCH   8  11
ATOM     11  C   UNL     1      -6.590  -2.130 128.557  0.00  0.00    +0.000 A 
ATOM     12  N   UNL     1      -6.727  -0.939 129.163  0.00  0.00    +0.000 NA
ATOM     13  C   UNL     1      -6.773  -0.968 130.516  0.00  0.00    +0.000 A 
ATOM     14  C   UNL     1      -7.574  -1.813 131.243  0.00  0.00    +0.000 A 
ATOM     15  C   UNL     1      -7.639  -1.694 132.676  0.00  0.00    +0.000 A 
ATOM     16  C   UNL     1      -6.485  -1.277 133.333  0.00  0.00    +0.000 A 
ATOM     17  C   UNL     1      -5.414  -0.890 132.543  0.00  0.00    +0.000 A 
ATOM     18  C   UNL     1      -5.599  -0.698 131.168  0.00  0.00    +0.000 A 
ATOM     19  C   UNL     1      -7.666  -3.016 130.513  0.00  0.00    +0.000 A 
ATOM     20  C   UNL     1      -6.780  -3.241 129.368  0.00  0.00    +0.000 A 
ENDBRANCH   8  11
ENDBRANCH   6   7
BRANCH   6  21
ATOM     21  C   UNL     1      -8.379  -1.803 123.700  0.00  0.00    +0.000 C 
BRANCH  21  22
ATOM     22  C   UNL     1      -9.454  -2.729 124.237  0.00  0.00    +0.000 C 
ATOM     23  N   UNL     1      -9.962  -3.661 123.381  0.00  0.00    +0.000 N 
ATOM     24  O   UNL     1      -9.906  -2.616 125.375  0.00  0.00    +0.000 OA
ATOM     25  H   UNL     1      -9.386  -4.011 122.612  0.00  0.00    +0.000 HD
ATOM     26  H   UNL     1     -10.641  -4.317 123.740  0.00  0.00    +0.000 HD
ENDBRANCH  21  22
ENDBRANCH   6  21
ENDBRANCH   3   6
ENDBRANCH   1   2
BRANCH   1  27
ATOM     27  C   UNL     1      -8.150   3.115 124.870  0.00  0.00    +0.000 C 
BRANCH  27  28
ATOM     28  O   UNL     1      -9.530   3.497 124.854  0.00  0.00    +0.000 OA
ATOM     29  H   UNL     1      -9.589   4.382 125.267  0.00  0.00    +0.000 HD
ENDBRANCH  27  28
BRANCH  27  30
ATOM     30  C   UNL     1      -7.766   2.774 126.361  0.00  0.00    +0.000 C 
BRANCH  30  38
ATOM     31  C   UNL     1      -3.535   3.130 126.813  0.00  0.00    +0.000 C 
ATOM     32  C   UNL     1      -2.236   3.555 127.523  0.00  0.00    +0.000 C 
ATOM     33  C   UNL     1      -2.470   4.549 128.672  0.00  0.00    +0.000 C 
ATOM     34  C   UNL     1      -3.106   5.807 128.122  0.00  0.00    +0.000 C 
ATOM     35  C   UNL     1      -4.333   5.430 127.337  0.00  0.00    +0.000 C 
ATOM     36  C   UNL     1      -4.266   4.343 126.303  0.00  0.00    +0.000 C 
ATOM     37  C   UNL     1      -5.687   3.950 125.904  0.00  0.00    +0.000 C 
ATOM     38  N   UNL     1      -6.544   3.401 126.987  0.00  0.00    +0.000 NA
ATOM     39  C   UNL     1      -5.864   2.418 127.904  0.00  0.00    +0.000 C 
ATOM     40  C   UNL     1      -4.349   2.266 127.774  0.00  0.00    +0.000 C 
BRANCH  39  41
ATOM     41  C   UNL     1      -6.069   2.683 129.520  0.00  0.00    +0.000 C 
ATOM     42  O   UNL     1      -5.065   3.102 130.198  0.00  0.00    +0.000 OA
ATOM     43  N   UNL     1      -7.344   2.622 130.055  0.00  0.00    +0.000 N 
ATOM     44  H   UNL     1      -7.773   2.011 129.368  0.00  0.00    +0.000 HD
BRANCH  43  45
ATOM     45  C   UNL     1      -8.063   2.728 131.647  0.00  0.00    +0.000 C 
ATOM     46  C   UNL     1      -8.672   4.177 131.682  0.00  0.00    +0.000 C 
ATOM     47  C   UNL     1      -9.074   1.624 131.572  0.00  0.00    +0.000 C 
ATOM     48  C   UNL     1      -7.292   2.287 133.339  0.00  0.00    +0.000 C 
ENDBRANCH  43  45
ENDBRANCH  39  41
ENDBRANCH  30  38
ENDBRANCH  27  30
ENDBRANCH   1  27
BRANCH   1  49
ATOM     49  C   UNL     1      -8.588   2.314 122.585  0.00  0.00    +0.000 C 
BRANCH  49  50
ATOM     50  C   UNL     1      -7.592   3.065 121.824  0.00  0.00    +0.000 A 
ATOM     51  C   UNL     1      -6.083   3.013 121.828  0.00  0.00    +0.000 A 
ATOM     52  C   UNL     1      -5.281   3.753 121.053  0.00  0.00    +0.000 A 
ATOM     53  C   UNL     1      -6.095   4.449 120.277  0.00  0.00    +0.000 A 
ATOM     54  C   UNL     1      -7.493   4.022 120.018  0.00  0.00    +0.000 A 
ATOM     55  C   UNL     1      -8.337   3.755 120.961  0.00  0.00    +0.000 A 
ENDBRANCH  49  50
ENDBRANCH   1  49
TORSDOF 14
ENDMDL
MODEL 3
REMARK VINA RESULT:      -9.4      3.188      7.589
REMARK  Name = Saquinavir
REMARK  17 active torsions:
REMARK  status: ('A' for Active; 'I' for Inactive)
REMARK    1  A    between atoms: N_10  and  C_11
REMARK    2  A    between atoms: C_11  and  C_12
REMARK    3  A    between atoms: C_12  and  O_13
REMARK    4  A    between atoms: C_12  and  C_14
REMARK    5  A    between atoms: C_14  and  C_15
REMARK    6  A    between atoms: C_14  and  N_22
REMARK    7  A    between atoms: C_15  and  C_16
REMARK    8  A    between atoms: C_23  and  C_25
REMARK    9  A    between atoms: C_25  and  C_26
REMARK   10  A    between atoms: C_25  and  N_30
REMARK   11  A    between atoms: C_26  and  C_27
REMARK   12  A    between atoms: C_31  and  C_33
REMARK   13  A    between atoms: C_43  and  C_45
REMARK   14  A    between atoms: N_47  and  C_48
REMARK   15  A    between atoms: C_48  and  C_49
REMARK   16  A    between atoms: C_48  and  C_50
REMARK   17  A    between atoms: C_48  and  C_51
REMARK                            x       y       z     vdW  Elec       q    Type
REMARK                         _______ _______ _______ _____ _____    ______ ____
ROOT
ATOM      1  C   UNL     1      -4.880   2.296 133.260  0.00  0.00    +0.000 C 
ENDROOT
BRANCH   1   2
ATOM      2  N   UNL     1      -4.964   2.658 131.884  0.00  0.00    +0.000 N 
ATOM      3  C   UNL     1      -4.652   3.965 131.593  0.00  0.00    +0.000 C 
ATOM      4  O   UNL     1      -4.129   4.731 132.393  0.00  0.00    +0.000 OA
ATOM      5  H   UNL     1      -5.713   2.221 131.347  0.00  0.00    +0.000 HD
BRANCH   3   6
ATOM      6  C   UNL     1      -4.852   4.323 130.129  0.00  0.00    +0.000 C 
BRANCH   6   7
ATOM      7  N   UNL     1      -6.041   5.238 130.021  0.00  0.00    +0.000 N 
ATOM      8  C   UNL     1      -7.359   4.732 130.061  0.00  0.00    +0.000 C 
ATOM      9  O   UNL     1      -7.528   3.515 129.980  0.00  0.00    +0.000 OA
ATOM     10  H   UNL     1      -5.839   6.229 129.966  0.00  0.00    +0.000 HD
BRANCH   8  11
ATOM     11  C   UNL     1      -8.606   5.627 130.205  0.00  0.00    +0.000 A 
ATOM     12  N   UNL     1      -9.547   5.506 129.254  0.00  0.00    +0.000 NA
ATOM     13  C   UNL     1     -10.589   6.366 129.343  0.00  0.00    +0.000 A 
ATOM     14  C   UNL     1     -11.298   6.604 130.494  0.00  0.00    +0.000 A 
ATOM     15  C   UNL     1     -12.461   7.451 130.465  0.00  0.00    +0.000 A 
ATOM     16  C   UNL     1     -12.459   8.504 129.555  0.00  0.00    +0.000 A 
ATOM     17  C   UNL     1     -11.397   8.569 128.668  0.00  0.00    +0.000 A 
ATOM     18  C   UNL     1     -10.522   7.481 128.551  0.00  0.00    +0.000 A 
ATOM     19  C   UNL     1     -10.385   6.495 131.564  0.00  0.00    +0.000 A 
ATOM     20  C   UNL     1      -8.948   6.424 131.290  0.00  0.00    +0.000 A 
ENDBRANCH   8  11
ENDBRANCH   6   7
BRANCH   6  21
ATOM     21  C   UNL     1      -3.476   4.924 129.736  0.00  0.00    +0.000 C 
BRANCH  21  22
ATOM     22  C   UNL     1      -3.381   5.418 128.305  0.00  0.00    +0.000 C 
ATOM     23  N   UNL     1      -2.302   5.017 127.575  0.00  0.00    +0.000 N 
ATOM     24  O   UNL     1      -4.200   6.202 127.828  0.00  0.00    +0.000 OA
ATOM     25  H   UNL     1      -1.843   4.130 127.793  0.00  0.00    +0.000 HD
ATOM     26  H   UNL     1      -2.252   5.297 126.606  0.00  0.00    +0.000 HD
ENDBRANCH  21  22
ENDBRANCH   6  21
ENDBRANCH   3   6
ENDBRANCH   1   2
BRANCH   1  27
ATOM     27  C   UNL     1      -3.626   1.630 133.826  0.00  0.00    +0.000 C 
BRANCH  27  28
ATOM     28  O   UNL     1      -3.757   1.394 135.232  0.00  0.00    +0.000 OA
ATOM     29  H   UNL     1      -3.144   0.666 135.460  0.00  0.00    +0.000 HD
ENDBRANCH  27  28
BRANCH  27  30
ATOM     30  C   UNL     1      -3.172   0.277 133.154  0.00  0.00    +0.000 C 
BRANCH  30  38
ATOM     31  C   UNL     1      -4.512  -3.482 131.638  0.00  0.00    +0.000 C 
ATOM     32  C   UNL     1      -5.369  -4.408 130.754  0.00  0.00    +0.000 C 
ATOM     33  C   UNL     1      -6.555  -3.688 130.092  0.00  0.00    +0.000 C 
ATOM     34  C   UNL     1      -7.465  -3.133 131.167  0.00  0.00    +0.000 C 
ATOM     35  C   UNL     1      -6.649  -2.295 132.113  0.00  0.00    +0.000 C 
ATOM     36  C   UNL     1      -5.370  -2.831 132.690  0.00  0.00    +0.000 C 
ATOM     37  C   UNL     1      -4.599  -1.683 133.337  0.00  0.00    +0.000 C 
ATOM     38  N   UNL     1      -4.181  -0.581 132.432  0.00  0.00    +0.000 NA
ATOM     39  C   UNL     1      -3.635  -1.020 131.098  0.00  0.00    +0.000 C 
ATOM     40  C   UNL     1      -3.776  -2.497 130.732  0.00  0.00    +0.000 C 
BRANCH  39  41
ATOM     41  C   UNL     1      -4.260  -0.254 129.778  0.00  0.00    +0.000 C 
ATOM     42  O   UNL     1      -4.035   1.000 129.642  0.00  0.00    +0.000 OA
ATOM     43  N   UNL     1      -4.845  -1.009 128.776  0.00  0.00    +0.000 N 
ATOM     44  H   UNL     1      -5.107  -1.821 129.325  0.00  0.00    +0.000 HD
BRANCH  43  45
ATOM     45  C   UNL     1      -5.700  -0.697 127.281  0.00  0.00    +0.000 C 
ATOM     46  C   UNL     1      -5.633  -2.072 126.523  0.00  0.00    +0.000 C 
ATOM     47  C   UNL     1      -7.057  -0.335 127.804  0.00  0.00    +0.000 C 
ATOM     48  C   UNL     1      -5.477   0.752 126.055  0.00  0.00    +0.000 C 
ENDBRANCH  43  45
ENDBRANCH  39  41
ENDBRANCH  30  38
ENDBRANCH  27  30
ENDBRANCH   1  27
BRANCH   1  49
ATOM     49  C   UNL     1      -6.066   1.497 133.544  0.00  0.00    +0.000 C 
BRANCH  49  50
ATOM     50  C   UNL     1      -7.034   2.532 133.901  0.00  0.00    +0.000 A 
ATOM     51  C   UNL     1      -6.874   3.837 134.644  0.00  0.00    +0.000 A 
ATOM     52  C   UNL     1      -7.856   4.714 134.887  0.00  0.00    +0.000 A 
ATOM     53  C   UNL     1      -8.923   4.215 134.286  0.00  0.00    +0.000 A 
ATOM     54  C   UNL     1      -8.817   3.231 133.179  0.00  0.00    +0.000 A 
ATOM     55  C   UNL     1      -8.139   2.133 133.272  0.00  0.00    +0.000 A 
ENDBRANCH  49  50
ENDBRANCH   1  49
TORSDOF 14
ENDMDL
MODEL 4
REMARK VINA RESULT:      -9.4      2.485      6.533
REMARK  Name = Saquinavir
REMARK  17 active torsions:
REMARK  status: ('A' for Active; 'I' for Inactive)
REMARK    1  A    between atoms: N_10  and  C_11
REMARK    2  A    between atoms: C_11  and  C_12
REMARK    3  A    between atoms: C_12  and  O_13
REMARK    4  A    between atoms: C_12  and  C_14
REMARK    5  A    between atoms: C_14  and  C_15
REMARK    6  A    between atoms: C_14  and  N_22
REMARK    7  A    between atoms: C_15  and  C_16
REMARK    8  A    between atoms: C_23  and  C_25
REMARK    9  A    between atoms: C_25  and  C_26
REMARK   10  A    between atoms: C_25  and  N_30
REMARK   11  A    between atoms: C_26  and  C_27
REMARK   12  A    between atoms: C_31  and  C_33
REMARK   13  A    between atoms: C_43  and  C_45
REMARK   14  A    between atoms: N_47  and  C_48
REMARK   15  A    between atoms: C_48  and  C_49
REMARK   16  A    between atoms: C_48  and  C_50
REMARK   17  A    between atoms: C_48  and  C_51
REMARK                            x       y       z     vdW  Elec       q    Type
REMARK                         _______ _______ _______ _____ _____    ______ ____
ROOT
ATOM      1  C   UNL     1      -6.981   0.633 130.112  0.00  0.00    +0.000 C 
ENDROOT
BRANCH   1   2
ATOM      2  N   UNL     1      -6.723   1.854 129.424  0.00  0.00    +0.000 N 
ATOM      3  C   UNL     1      -5.634   2.568 129.866  0.00  0.00    +0.000 C 
ATOM      4  O   UNL     1      -4.800   2.119 130.642  0.00  0.00    +0.000 OA
ATOM      5  H   UNL     1      -7.541   2.382 129.118  0.00  0.00    +0.000 HD
BRANCH   3   6
ATOM      6  C   UNL     1      -5.462   3.905 129.165  0.00  0.00    +0.000 C 
BRANCH   6   7
ATOM      7  N   UNL     1      -6.488   4.863 129.706  0.00  0.00    +0.000 N 
ATOM      8  C   UNL     1      -7.765   4.979 129.113  0.00  0.00    +0.000 C 
ATOM      9  O   UNL     1      -7.962   4.439 128.023  0.00  0.00    +0.000 OA
ATOM     10  H   UNL     1      -6.225   5.376 130.539  0.00  0.00    +0.000 HD
BRANCH   8  11
ATOM     11  C   UNL     1      -8.933   5.747 129.761  0.00  0.00    +0.000 A 
ATOM     12  N   UNL     1     -10.137   5.612 129.181  0.00  0.00    +0.000 NA
ATOM     13  C   UNL     1     -11.131   6.368 129.704  0.00  0.00    +0.000 A 
ATOM     14  C   UNL     1     -11.409   6.458 131.046  0.00  0.00    +0.000 A 
ATOM     15  C   UNL     1     -12.556   7.199 131.499  0.00  0.00    +0.000 A 
ATOM     16  C   UNL     1     -12.933   8.311 130.751  0.00  0.00    +0.000 A 
ATOM     17  C   UNL     1     -12.250   8.534 129.566  0.00  0.00    +0.000 A 
ATOM     18  C   UNL     1     -11.410   7.540 129.051  0.00  0.00    +0.000 A 
ATOM     19  C   UNL     1     -10.177   6.353 131.724  0.00  0.00    +0.000 A 
ATOM     20  C   UNL     1      -8.923   6.430 130.971  0.00  0.00    +0.000 A 
ENDBRANCH   8  11
ENDBRANCH   6   7
BRANCH   6  21
ATOM     21  C   UNL     1      -3.975   4.248 129.448  0.00  0.00    +0.000 C 
BRANCH  21  22
ATOM     22  C   UNL     1      -3.051   4.118 128.252  0.00  0.00    +0.000 C 
ATOM     23  N   UNL     1      -2.853   5.231 127.490  0.00  0.00    +0.000 N 
ATOM     24  O   UNL     1      -2.544   3.044 127.931  0.00  0.00    +0.000 OA
ATOM     25  H   UNL     1      -2.941   6.158 127.913  0.00  0.00    +0.000 HD
ATOM     26  H   UNL     1      -2.200   5.171 126.722  0.00  0.00    +0.000 HD
ENDBRANCH  21  22
ENDBRANCH   6  21
ENDBRANCH   3   6
ENDBRANCH   1   2
BRANCH   1  27
ATOM     27  C   UNL     1      -6.514  -0.707 129.546  0.00  0.00    +0.000 C 
BRANCH  27  28
ATOM     28  O   UNL     1      -6.075  -1.584 130.589  0.00  0.00    +0.000 OA
ATOM     29  H   UNL     1      -5.370  -1.116 131.080  0.00  0.00    +0.000 HD
ENDBRANCH  27  28
BRANCH  27  30
ATOM     30  C   UNL     1      -7.545  -1.502 128.654  0.00  0.00    +0.000 C 
BRANCH  30  38
ATOM     31  C   UNL     1      -6.000  -2.871 124.917  0.00  0.00    +0.000 C 
ATOM     32  C   UNL     1      -5.678  -2.765 123.415  0.00  0.00    +0.000 C 
ATOM     33  C   UNL     1      -6.396  -1.597 122.721  0.00  0.00    +0.000 C 
ATOM     34  C   UNL     1      -7.893  -1.791 122.841  0.00  0.00    +0.000 C 
ATOM     35  C   UNL     1      -8.245  -1.994 124.289  0.00  0.00    +0.000 C 
ATOM     36  C   UNL     1      -7.487  -2.990 125.120  0.00  0.00    +0.000 C 
ATOM     37  C   UNL     1      -7.820  -2.762 126.593  0.00  0.00    +0.000 C 
ATOM     38  N   UNL     1      -7.451  -1.434 127.151  0.00  0.00    +0.000 NA
ATOM     39  C   UNL     1      -6.098  -0.918 126.733  0.00  0.00    +0.000 C 
ATOM     40  C   UNL     1      -5.363  -1.681 125.632  0.00  0.00    +0.000 C 
BRANCH  39  41
ATOM     41  C   UNL     1      -6.059   0.639 126.191  0.00  0.00    +0.000 C 
ATOM     42  O   UNL     1      -5.130   1.409 126.623  0.00  0.00    +0.000 OA
ATOM     43  N   UNL     1      -6.905   1.014 125.162  0.00  0.00    +0.000 N 
ATOM     44  H   UNL     1      -7.632   0.319 125.296  0.00  0.00    +0.000 HD
BRANCH  43  45
ATOM     45  C   UNL     1      -7.307   2.495 124.319  0.00  0.00    +0.000 C 
ATOM     46  C   UNL     1      -6.980   2.166 122.817  0.00  0.00    +0.000 C 
ATOM     47  C   UNL     1      -8.768   2.608 124.632  0.00  0.00    +0.000 C 
ATOM     48  C   UNL     1      -6.791   4.287 124.738  0.00  0.00    +0.000 C 
ENDBRANCH  43  45
ENDBRANCH  39  41
ENDBRANCH  30  38
ENDBRANCH  27  30
ENDBRANCH   1  27
BRANCH   1  49
ATOM     49  C   UNL     1      -8.414   0.613 130.382  0.00  0.00    +0.000 C 
BRANCH  49  50
ATOM     50  C   UNL     1      -8.495   1.440 131.584  0.00  0.00    +0.000 A 
ATOM     51  C   UNL     1      -7.499   1.697 132.690  0.00  0.00    +0.000 A 
ATOM     52  C   UNL     1      -7.697   2.507 133.737  0.00  0.00    +0.000 A 
ATOM     53  C   UNL     1      -8.887   3.048 133.536  0.00  0.00    +0.000 A 
ATOM     54  C   UNL     1      -9.505   3.114 132.187  0.00  0.00    +0.000 A 
ATOM     55  C   UNL     1      -9.654   2.079 131.426  0.00  0.00    +0.000 A 
ENDBRANCH  49  50
ENDBRANCH   1  49
TORSDOF 14
ENDMDL
MODEL 5
REMARK VINA RESULT:      -9.3      2.472      8.578
REMARK  Name = Saquinavir
REMARK  17 active torsions:
REMARK  status: ('A' for Active; 'I' for Inactive)
REMARK    1  A    between atoms: N_10  and  C_11
REMARK    2  A    between atoms: C_11  and  C_12
REMARK    3  A    between atoms: C_12  and  O_13
REMARK    4  A    between atoms: C_12  and  C_14
REMARK    5  A    between atoms: C_14  and  C_15
REMARK    6  A    between atoms: C_14  and  N_22
REMARK    7  A    between atoms: C_15  and  C_16
REMARK    8  A    between atoms: C_23  and  C_25
REMARK    9  A    between atoms: C_25  and  C_26
REMARK   10  A    between atoms: C_25  and  N_30
REMARK   11  A    between atoms: C_26  and  C_27
REMARK   12  A    between atoms: C_31  and  C_33
REMARK   13  A    between atoms: C_43  and  C_45
REMARK   14  A    between atoms: N_47  and  C_48
REMARK   15  A    between atoms: C_48  and  C_49
REMARK   16  A    between atoms: C_48  and  C_50
REMARK   17  A    between atoms: C_48  and  C_51
REMARK                            x       y       z     vdW  Elec       q    Type
REMARK                         _______ _______ _______ _____ _____    ______ ____
ROOT
ATOM      1  C   UNL     1      -6.913   2.543 123.175  0.00  0.00    +0.000 C 
ENDROOT
BRANCH   1   2
ATOM      2  N   UNL     1      -6.785   1.129 123.305  0.00  0.00    +0.000 N 
ATOM      3  C   UNL     1      -7.702   0.522 124.131  0.00  0.00    +0.000 C 
ATOM      4  O   UNL     1      -8.699   1.085 124.566  0.00  0.00    +0.000 OA
ATOM      5  H   UNL     1      -5.834   0.760 123.304  0.00  0.00    +0.000 HD
BRANCH   3   6
ATOM      6  C   UNL     1      -7.461  -0.967 124.311  0.00  0.00    +0.000 C 
BRANCH   6   7
ATOM      7  N   UNL     1      -7.641  -1.307 125.766  0.00  0.00    +0.000 N 
ATOM      8  C   UNL     1      -6.616  -1.941 126.501  0.00  0.00    +0.000 C 
ATOM      9  O   UNL     1      -5.648  -2.400 125.892  0.00  0.00    +0.000 OA
ATOM     10  H   UNL     1      -8.514  -1.013 126.188  0.00  0.00    +0.000 HD
BRANCH   8  11
ATOM     11  C   UNL     1      -6.640  -2.088 128.035  0.00  0.00    +0.000 A 
ATOM     12  N   UNL     1      -7.850  -2.180 128.611  0.00  0.00    +0.000 NA
ATOM     13  C   UNL     1      -7.858  -2.211 129.965  0.00  0.00    +0.000 A 
ATOM     14  C   UNL     1      -7.058  -3.029 130.723  0.00  0.00    +0.000 A 
ATOM     15  C   UNL     1      -7.216  -3.073 132.152  0.00  0.00    +0.000 A 
ATOM     16  C   UNL     1      -7.614  -1.898 132.786  0.00  0.00    +0.000 A 
ATOM     17  C   UNL     1      -7.946  -0.826 131.974  0.00  0.00    +0.000 A 
ATOM     18  C   UNL     1      -8.107  -1.022 130.596  0.00  0.00    +0.000 A 
ATOM     19  C   UNL     1      -5.840  -3.167 130.025  0.00  0.00    +0.000 A 
ATOM     20  C   UNL     1      -5.557  -2.303 128.877  0.00  0.00    +0.000 A 
ENDBRANCH   8  11
ENDBRANCH   6   7
BRANCH   6  21
ATOM     21  C   UNL     1      -8.475  -1.598 123.320  0.00  0.00    +0.000 C 
BRANCH  21  22
ATOM     22  C   UNL     1      -8.799  -3.057 123.580  0.00  0.00    +0.000 C 
ATOM     23  N   UNL     1     -10.068  -3.474 123.308  0.00  0.00    +0.000 N 
ATOM     24  O   UNL     1      -7.981  -3.830 124.075  0.00  0.00    +0.000 OA
ATOM     25  H   UNL     1     -10.618  -2.995 122.592  0.00  0.00    +0.000 HD
ATOM     26  H   UNL     1     -10.283  -4.454 123.428  0.00  0.00    +0.000 HD
ENDBRANCH  21  22
ENDBRANCH   6  21
ENDBRANCH   3   6
ENDBRANCH   1   2
BRANCH   1  27
ATOM     27  C   UNL     1      -6.735   3.466 124.380  0.00  0.00    +0.000 C 
BRANCH  27  28
ATOM     28  O   UNL     1      -7.998   3.812 124.955  0.00  0.00    +0.000 OA
ATOM     29  H   UNL     1      -8.692   3.430 124.380  0.00  0.00    +0.000 HD
ENDBRANCH  27  28
BRANCH  27  30
ATOM     30  C   UNL     1      -5.805   2.947 125.543  0.00  0.00    +0.000 C 
BRANCH  30  38
ATOM     31  C   UNL     1      -3.415   3.880 128.956  0.00  0.00    +0.000 C 
ATOM     32  C   UNL     1      -3.007   4.701 130.193  0.00  0.00    +0.000 C 
ATOM     33  C   UNL     1      -3.698   6.071 130.269  0.00  0.00    +0.000 C 
ATOM     34  C   UNL     1      -3.322   6.888 129.051  0.00  0.00    +0.000 C 
ATOM     35  C   UNL     1      -3.618   6.085 127.814  0.00  0.00    +0.000 C 
ATOM     36  C   UNL     1      -3.140   4.665 127.701  0.00  0.00    +0.000 C 
ATOM     37  C   UNL     1      -3.842   3.999 126.520  0.00  0.00    +0.000 C 
ATOM     38  N   UNL     1      -5.323   3.902 126.606  0.00  0.00    +0.000 NA
ATOM     39  C   UNL     1      -5.860   3.497 127.955  0.00  0.00    +0.000 C 
ATOM     40  C   UNL     1      -4.873   3.453 129.121  0.00  0.00    +0.000 C 
BRANCH  39  41
ATOM     41  C   UNL     1      -7.088   4.426 128.548  0.00  0.00    +0.000 C 
ATOM     42  O   UNL     1      -8.139   4.572 127.830  0.00  0.00    +0.000 OA
ATOM     43  N   UNL     1      -7.026   4.865 129.859  0.00  0.00    +0.000 N 
ATOM     44  H   UNL     1      -6.020   4.840 129.985  0.00  0.00    +0.000 HD
BRANCH  43  45
ATOM     45  C   UNL     1      -7.976   5.903 130.901  0.00  0.00    +0.000 C 
ATOM     46  C   UNL     1      -8.300   4.989 132.137  0.00  0.00    +0.000 C 
ATOM     47  C   UNL     1      -6.993   7.002 131.173  0.00  0.00    +0.000 C 
ATOM     48  C   UNL     1      -9.487   6.984 130.454  0.00  0.00    +0.000 C 
ENDBRANCH  43  45
ENDBRANCH  39  41
ENDBRANCH  30  38
ENDBRANCH  27  30
ENDBRANCH   1  27
BRANCH   1  49
ATOM     49  C   UNL     1      -8.197   2.777 122.525  0.00  0.00    +0.000 C 
BRANCH  49  50
ATOM     50  C   UNL     1      -7.787   3.496 121.321  0.00  0.00    +0.000 A 
ATOM     51  C   UNL     1      -6.422   3.763 120.732  0.00  0.00    +0.000 A 
ATOM     52  C   UNL     1      -6.187   4.427 119.594  0.00  0.00    +0.000 A 
ATOM     53  C   UNL     1      -7.383   4.714 119.107  0.00  0.00    +0.000 A 
ATOM     54  C   UNL     1      -8.597   3.952 119.498  0.00  0.00    +0.000 A 
ATOM     55  C   UNL     1      -8.950   3.769 120.729  0.00  0.00    +0.000 A 
ENDBRANCH  49  50
ENDBRANCH   1  49
TORSDOF 14
ENDMDL
MODEL 6
REMARK VINA RESULT:      -9.3      2.505      5.521
REMARK  Name = Saquinavir
REMARK  17 active torsions:
REMARK  status: ('A' for Active; 'I' for Inactive)
REMARK    1  A    between atoms: N_10  and  C_11
REMARK    2  A    between atoms: C_11  and  C_12
REMARK    3  A    between atoms: C_12  and  O_13
REMARK    4  A    between atoms: C_12  and  C_14
REMARK    5  A    between atoms: C_14  and  C_15
REMARK    6  A    between atoms: C_14  and  N_22
REMARK    7  A    between atoms: C_15  and  C_16
REMARK    8  A    between atoms: C_23  and  C_25
REMARK    9  A    between atoms: C_25  and  C_26
REMARK   10  A    between atoms: C_25  and  N_30
REMARK   11  A    between atoms: C_26  and  C_27
REMARK   12  A    between atoms: C_31  and  C_33
REMARK   13  A    between atoms: C_43  and  C_45
REMARK   14  A    between atoms: N_47  and  C_48
REMARK   15  A    between atoms: C_48  and  C_49
REMARK   16  A    between atoms: C_48  and  C_50
REMARK   17  A    between atoms: C_48  and  C_51
REMARK                            x       y       z     vdW  Elec       q    Type
REMARK                         _______ _______ _______ _____ _____    ______ ____
ROOT
ATOM      1  C   UNL     1      -5.115   3.520 127.941  0.00  0.00    +0.000 C 
ENDROOT
BRANCH   1   2
ATOM      2  N   UNL     1      -6.262   3.561 128.787  0.00  0.00    +0.000 N 
ATOM      3  C   UNL     1      -6.546   2.398 129.463  0.00  0.00    +0.000 C 
ATOM      4  O   UNL     1      -5.774   1.449 129.530  0.00  0.00    +0.000 OA
ATOM      5  H   UNL     1      -7.050   4.116 128.452  0.00  0.00    +0.000 HD
BRANCH   3   6
ATOM      6  C   UNL     1      -7.830   2.466 130.272  0.00  0.00    +0.000 C 
BRANCH   6   7
ATOM      7  N   UNL     1      -8.741   3.480 129.636  0.00  0.00    +0.000 N 
ATOM      8  C   UNL     1      -9.514   4.363 130.421  0.00  0.00    +0.000 C 
ATOM      9  O   UNL     1      -9.593   4.162 131.634  0.00  0.00    +0.000 OA
ATOM     10  H   UNL     1      -8.728   3.519 128.624  0.00  0.00    +0.000 HD
BRANCH   8  11
ATOM     11  C   UNL     1     -10.266   5.576 129.840  0.00  0.00    +0.000 A 
ATOM     12  N   UNL     1     -11.497   5.809 130.324  0.00  0.00    +0.000 NA
ATOM     13  C   UNL     1     -12.181   6.819 129.734  0.00  0.00    +0.000 A 
ATOM     14  C   UNL     1     -11.665   8.070 129.504  0.00  0.00    +0.000 A 
ATOM     15  C   UNL     1     -12.503   9.112 128.974  0.00  0.00    +0.000 A 
ATOM     16  C   UNL     1     -13.517   8.731 128.100  0.00  0.00    +0.000 A 
ATOM     17  C   UNL     1     -13.713   7.372 127.916  0.00  0.00    +0.000 A 
ATOM     18  C   UNL     1     -13.081   6.458 128.767  0.00  0.00    +0.000 A 
ATOM     19  C   UNL     1     -10.292   7.899 129.230  0.00  0.00    +0.000 A 
ATOM     20  C   UNL     1      -9.758   6.555 128.995  0.00  0.00    +0.000 A 
ENDBRANCH   8  11
ENDBRANCH   6   7
BRANCH   6  21
ATOM     21  C   UNL     1      -8.317   0.992 130.260  0.00  0.00    +0.000 C 
BRANCH  21  22
ATOM     22  C   UNL     1      -8.890   0.498 131.575  0.00  0.00    +0.000 C 
ATOM     23  N   UNL     1      -9.767   1.316 132.223  0.00  0.00    +0.000 N 
ATOM     24  O   UNL     1      -8.539  -0.566 132.082  0.00  0.00    +0.000 OA
ATOM     25  H   UNL     1     -10.332   1.979 131.688  0.00  0.00    +0.000 HD
ATOM     26  H   UNL     1     -10.194   0.978 133.073  0.00  0.00    +0.000 HD
ENDBRANCH  21  22
ENDBRANCH   6  21
ENDBRANCH   3   6
ENDBRANCH   1   2
BRANCH   1  27
ATOM     27  C   UNL     1      -5.118   2.709 126.646  0.00  0.00    +0.000 C 
BRANCH  27  28
ATOM     28  O   UNL     1      -4.228   1.592 126.735  0.00  0.00    +0.000 OA
ATOM     29  H   UNL     1      -3.935   1.384 125.824  0.00  0.00    +0.000 HD
ENDBRANCH  27  28
BRANCH  27  30
ATOM     30  C   UNL     1      -6.514   2.169 126.147  0.00  0.00    +0.000 C 
BRANCH  30  38
ATOM     31  C   UNL     1      -8.820  -1.159 124.794  0.00  0.00    +0.000 C 
ATOM     32  C   UNL     1      -9.064  -2.638 124.438  0.00  0.00    +0.000 C 
ATOM     33  C   UNL     1      -7.770  -3.462 124.345  0.00  0.00    +0.000 C 
ATOM     34  C   UNL     1      -6.887  -2.884 123.260  0.00  0.00    +0.000 C 
ATOM     35  C   UNL     1      -6.697  -1.414 123.517  0.00  0.00    +0.000 C 
ATOM     36  C   UNL     1      -7.882  -0.535 123.796  0.00  0.00    +0.000 C 
ATOM     37  C   UNL     1      -7.389   0.807 124.333  0.00  0.00    +0.000 C 
ATOM     38  N   UNL     1      -6.631   0.764 125.611  0.00  0.00    +0.000 NA
ATOM     39  C   UNL     1      -7.202  -0.151 126.662  0.00  0.00    +0.000 C 
ATOM     40  C   UNL     1      -8.334  -1.087 126.241  0.00  0.00    +0.000 C 
BRANCH  39  41
ATOM     41  C   UNL     1      -6.128  -1.175 127.383  0.00  0.00    +0.000 C 
ATOM     42  O   UNL     1      -5.079  -1.513 126.729  0.00  0.00    +0.000 OA
ATOM     43  N   UNL     1      -6.294  -1.492 128.721  0.00  0.00    +0.000 N 
ATOM     44  H   UNL     1      -7.293  -1.329 128.797  0.00  0.00    +0.000 HD
BRANCH  43  45
ATOM     45  C   UNL     1      -5.526  -2.551 129.883  0.00  0.00    +0.000 C 
ATOM     46  C   UNL     1      -5.372  -1.648 131.161  0.00  0.00    +0.000 C 
ATOM     47  C   UNL     1      -6.557  -3.633 130.000  0.00  0.00    +0.000 C 
ATOM     48  C   UNL     1      -3.984  -3.656 129.658  0.00  0.00    +0.000 C 
ENDBRANCH  43  45
ENDBRANCH  39  41
ENDBRANCH  30  38
ENDBRANCH  27  30
ENDBRANCH   1  27
BRANCH   1  49
ATOM     49  C   UNL     1      -3.996   3.137 128.793  0.00  0.00    +0.000 C 
BRANCH  49  50
ATOM     50  C   UNL     1      -3.263   4.397 128.895  0.00  0.00    +0.000 A 
ATOM     51  C   UNL     1      -2.932   5.447 127.861  0.00  0.00    +0.000 A 
ATOM     52  C   UNL     1      -2.262   6.581 128.098  0.00  0.00    +0.000 A 
ATOM     53  C   UNL     1      -2.038   6.586 129.401  0.00  0.00    +0.000 A 
ATOM     54  C   UNL     1      -2.858   5.783 130.345  0.00  0.00    +0.000 A 
ATOM     55  C   UNL     1      -3.052   4.512 130.206  0.00  0.00    +0.000 A 
ENDBRANCH  49  50
ENDBRANCH   1  49
TORSDOF 14
ENDMDL
MODEL 7
REMARK VINA RESULT:      -9.3      2.125      6.973
REMARK  Name = Saquinavir
REMARK  17 active torsions:
REMARK  status: ('A' for Active; 'I' for Inactive)
REMARK    1  A    between atoms: N_10  and  C_11
REMARK    2  A    between atoms: C_11  and  C_12
REMARK    3  A    between atoms: C_12  and  O_13
REMARK    4  A    between atoms: C_12  and  C_14
REMARK    5  A    between atoms: C_14  and  C_15
REMARK    6  A    between atoms: C_14  and  N_22
REMARK    7  A    between atoms: C_15  and  C_16
REMARK    8  A    between atoms: C_23  and  C_25
REMARK    9  A    between atoms: C_25  and  C_26
REMARK   10  A    between atoms: C_25  and  N_30
REMARK   11  A    between atoms: C_26  and  C_27
REMARK   12  A    between atoms: C_31  and  C_33
REMARK   13  A    between atoms: C_43  and  C_45
REMARK   14  A    between atoms: N_47  and  C_48
REMARK   15  A    between atoms: C_48  and  C_49
REMARK   16  A    between atoms: C_48  and  C_50
REMARK   17  A    between atoms: C_48  and  C_51
REMARK                            x       y       z     vdW  Elec       q    Type
REMARK                         _______ _______ _______ _____ _____    ______ ____
ROOT
ATOM      1  C   UNL     1      -6.601  -0.913 126.849  0.00  0.00    +0.000 C 
ENDROOT
BRANCH   1   2
ATOM      2  N   UNL     1      -6.217   0.399 126.442  0.00  0.00    +0.000 N 
ATOM      3  C   UNL     1      -7.247   1.292 126.261  0.00  0.00    +0.000 C 
ATOM      4  O   UNL     1      -8.398   1.079 126.622  0.00  0.00    +0.000 OA
ATOM      5  H   UNL     1      -5.424   0.459 125.804  0.00  0.00    +0.000 HD
BRANCH   3   6
ATOM      6  C   UNL     1      -6.792   2.643 125.735  0.00  0.00    +0.000 C 
BRANCH   6   7
ATOM      7  N   UNL     1      -5.702   3.161 126.633  0.00  0.00    +0.000 N 
ATOM      8  C   UNL     1      -5.481   4.548 126.788  0.00  0.00    +0.000 C 
ATOM      9  O   UNL     1      -6.054   5.327 126.025  0.00  0.00    +0.000 OA
ATOM     10  H   UNL     1      -5.177   2.464 127.146  0.00  0.00    +0.000 HD
BRANCH   8  11
ATOM     11  C   UNL     1      -4.559   5.142 127.870  0.00  0.00    +0.000 A 
ATOM     12  N   UNL     1      -5.124   5.416 129.058  0.00  0.00    +0.000 NA
ATOM     13  C   UNL     1      -4.325   6.027 129.964  0.00  0.00    +0.000 A 
ATOM     14  C   UNL     1      -3.057   5.607 130.281  0.00  0.00    +0.000 A 
ATOM     15  C   UNL     1      -2.324   6.253 131.338  0.00  0.00    +0.000 A 
ATOM     16  C   UNL     1      -2.555   7.611 131.536  0.00  0.00    +0.000 A 
ATOM     17  C   UNL     1      -3.560   8.196 130.783  0.00  0.00    +0.000 A 
ATOM     18  C   UNL     1      -4.446   7.387 130.060  0.00  0.00    +0.000 A 
ATOM     19  C   UNL     1      -2.498   5.073 129.101  0.00  0.00    +0.000 A 
ATOM     20  C   UNL     1      -3.177   5.274 127.819  0.00  0.00    +0.000 A 
ENDBRANCH   8  11
ENDBRANCH   6   7
BRANCH   6  21
ATOM     21  C   UNL     1      -6.389   2.318 124.271  0.00  0.00    +0.000 C 
BRANCH  21  22
ATOM     22  C   UNL     1      -6.675   3.421 123.270  0.00  0.00    +0.000 C 
ATOM     23  N   UNL     1      -7.949   3.521 122.796  0.00  0.00    +0.000 N 
ATOM     24  O   UNL     1      -5.791   4.162 122.844  0.00  0.00    +0.000 OA
ATOM     25  H   UNL     1      -8.731   3.198 123.371  0.00  0.00    +0.000 HD
ATOM     26  H   UNL     1      -8.165   4.282 122.169  0.00  0.00    +0.000 HD
ENDBRANCH  21  22
ENDBRANCH   6  21
ENDBRANCH   3   6
ENDBRANCH   1   2
BRANCH   1  27
ATOM     27  C   UNL     1      -6.495  -1.349 128.309  0.00  0.00    +0.000 C 
BRANCH  27  28
ATOM     28  O   UNL     1      -5.876  -2.635 128.420  0.00  0.00    +0.000 OA
ATOM     29  H   UNL     1      -6.304  -3.097 129.168  0.00  0.00    +0.000 HD
ENDBRANCH  27  28
BRANCH  27  30
ATOM     30  C   UNL     1      -5.742  -0.370 129.291  0.00  0.00    +0.000 C 
BRANCH  30  38
ATOM     31  C   UNL     1      -8.718   2.613 129.978  0.00  0.00    +0.000 C 
ATOM     32  C   UNL     1      -9.436   3.711 130.785  0.00  0.00    +0.000 C 
ATOM     33  C   UNL     1      -9.015   3.752 132.263  0.00  0.00    +0.000 C 
ATOM     34  C   UNL     1      -9.353   2.429 132.915  0.00  0.00    +0.000 C 
ATOM     35  C   UNL     1      -8.748   1.316 132.104  0.00  0.00    +0.000 C 
ATOM     36  C   UNL     1      -8.947   1.269 130.616  0.00  0.00    +0.000 C 
ATOM     37  C   UNL     1      -7.978   0.251 130.018  0.00  0.00    +0.000 C 
ATOM     38  N   UNL     1      -6.531   0.534 130.206  0.00  0.00    +0.000 NA
ATOM     39  C   UNL     1      -6.128   1.971 129.996  0.00  0.00    +0.000 C 
ATOM     40  C   UNL     1      -7.246   3.001 129.843  0.00  0.00    +0.000 C 
BRANCH  39  41
ATOM     41  C   UNL     1      -5.180   2.630 131.174  0.00  0.00    +0.000 C 
ATOM     42  O   UNL     1      -3.920   2.393 131.143  0.00  0.00    +0.000 OA
ATOM     43  N   UNL     1      -5.732   3.556 132.043  0.00  0.00    +0.000 N 
ATOM     44  H   UNL     1      -6.703   3.268 131.980  0.00  0.00    +0.000 HD
BRANCH  43  45
ATOM     45  C   UNL     1      -5.211   4.443 133.458  0.00  0.00    +0.000 C 
ATOM     46  C   UNL     1      -5.781   5.888 133.219  0.00  0.00    +0.000 C 
ATOM     47  C   UNL     1      -5.898   3.669 134.543  0.00  0.00    +0.000 C 
ATOM     48  C   UNL     1      -3.469   4.534 134.238  0.00  0.00    +0.000 C 
ENDBRANCH  43  45
ENDBRANCH  39  41
ENDBRANCH  30  38
ENDBRANCH  27  30
ENDBRANCH   1  27
BRANCH   1  49
ATOM     49  C   UNL     1      -5.886  -1.835 125.976  0.00  0.00    +0.000 C 
BRANCH  49  50
ATOM     50  C   UNL     1      -6.958  -2.295 125.097  0.00  0.00    +0.000 A 
ATOM     51  C   UNL     1      -8.362  -2.769 125.394  0.00  0.00    +0.000 A 
ATOM     52  C   UNL     1      -9.261  -3.146 124.479  0.00  0.00    +0.000 A 
ATOM     53  C   UNL     1      -8.673  -2.945 123.311  0.00  0.00    +0.000 A 
ATOM     54  C   UNL     1      -7.534  -2.005 123.154  0.00  0.00    +0.000 A 
ATOM     55  C   UNL     1      -6.465  -2.062 123.881  0.00  0.00    +0.000 A 
ENDBRANCH  49  50
ENDBRANCH   1  49
TORSDOF 14
ENDMDL
MODEL 8
REMARK VINA RESULT:      -9.3      2.756      7.049
REMARK  Name = Saquinavir
REMARK  17 active torsions:
REMARK  status: ('A' for Active; 'I' for Inactive)
REMARK    1  A    between atoms: N_10  and  C_11
REMARK    2  A    between atoms: C_11  and  C_12
REMARK    3  A    between atoms: C_12  and  O_13
REMARK    4  A    between atoms: C_12  and  C_14
REMARK    5  A    between atoms: C_14  and  C_15
REMARK    6  A    between atoms: C_14  and  N_22
REMARK    7  A    between atoms: C_15  and  C_16
REMARK    8  A    between atoms: C_23  and  C_25
REMARK    9  A    between atoms: C_25  and  C_26
REMARK   10  A    between atoms: C_25  and  N_30
REMARK   11  A    between atoms: C_26  and  C_27
REMARK   12  A    between atoms: C_31  and  C_33
REMARK   13  A    between atoms: C_43  and  C_45
REMARK   14  A    between atoms: N_47  and  C_48
REMARK   15  A    between atoms: C_48  and  C_49
REMARK   16  A    between atoms: C_48  and  C_50
REMARK   17  A    between atoms: C_48  and  C_51
REMARK                            x       y       z     vdW  Elec       q    Type
REMARK                         _______ _______ _______ _____ _____    ______ ____
ROOT
ATOM      1  C   UNL     1      -6.267  -1.215 126.385  0.00  0.00    +0.000 C 
ENDROOT
BRANCH   1   2
ATOM      2  N   UNL     1      -6.198   0.209 126.400  0.00  0.00    +0.000 N 
ATOM      3  C   UNL     1      -7.352   0.857 126.775  0.00  0.00    +0.000 C 
ATOM      4  O   UNL     1      -8.317   0.289 127.272  0.00  0.00    +0.000 OA
ATOM      5  H   UNL     1      -5.630   0.641 125.672  0.00  0.00    +0.000 HD
BRANCH   3   6
ATOM      6  C   UNL     1      -7.255   2.370 126.680  0.00  0.00    +0.000 C 
BRANCH   6   7
ATOM      7  N   UNL     1      -7.038   2.921 128.062  0.00  0.00    +0.000 N 
ATOM      8  C   UNL     1      -7.755   4.049 128.521  0.00  0.00    +0.000 C 
ATOM      9  O   UNL     1      -8.412   4.703 127.709  0.00  0.00    +0.000 OA
ATOM     10  H   UNL     1      -6.390   2.411 128.650  0.00  0.00    +0.000 HD
BRANCH   8  11
ATOM     11  C   UNL     1      -7.764   4.506 129.992  0.00  0.00    +0.000 A 
ATOM     12  N   UNL     1      -7.246   3.652 130.890  0.00  0.00    +0.000 NA
ATOM     13  C   UNL     1      -7.349   4.026 132.188  0.00  0.00    +0.000 A 
ATOM     14  C   UNL     1      -7.006   5.267 132.663  0.00  0.00    +0.000 A 
ATOM     15  C   UNL     1      -7.044   5.537 134.075  0.00  0.00    +0.000 A 
ATOM     16  C   UNL     1      -8.012   4.874 134.825  0.00  0.00    +0.000 A 
ATOM     17  C   UNL     1      -8.771   3.918 134.170  0.00  0.00    +0.000 A 
ATOM     18  C   UNL     1      -8.391   3.485 132.893  0.00  0.00    +0.000 A 
ATOM     19  C   UNL     1      -7.306   6.191 131.640  0.00  0.00    +0.000 A 
ATOM     20  C   UNL     1      -8.093   5.764 130.481  0.00  0.00    +0.000 A 
ENDBRANCH   8  11
ENDBRANCH   6   7
BRANCH   6  21
ATOM     21  C   UNL     1      -6.099   2.573 125.663  0.00  0.00    +0.000 C 
BRANCH  21  22
ATOM     22  C   UNL     1      -6.185   3.846 124.844  0.00  0.00    +0.000 C 
ATOM     23  N   UNL     1      -7.396   4.468 124.779  0.00  0.00    +0.000 N 
ATOM     24  O   UNL     1      -5.227   4.279 124.205  0.00  0.00    +0.000 OA
ATOM     25  H   UNL     1      -8.064   4.362 125.546  0.00  0.00    +0.000 HD
ATOM     26  H   UNL     1      -7.455   5.344 124.279  0.00  0.00    +0.000 HD
ENDBRANCH  21  22
ENDBRANCH   6  21
ENDBRANCH   3   6
ENDBRANCH   1   2
BRANCH   1  27
ATOM     27  C   UNL     1      -5.629  -2.048 127.497  0.00  0.00    +0.000 C 
BRANCH  27  28
ATOM     28  O   UNL     1      -4.562  -1.334 128.129  0.00  0.00    +0.000 OA
ATOM     29  H   UNL     1      -4.260  -1.876 128.885  0.00  0.00    +0.000 HD
ENDBRANCH  27  28
BRANCH  27  30
ATOM     30  C   UNL     1      -6.590  -2.576 128.631  0.00  0.00    +0.000 C 
BRANCH  30  38
ATOM     31  C   UNL     1      -7.466  -2.771 132.805  0.00  0.00    +0.000 C 
ATOM     32  C   UNL     1      -7.232  -2.472 134.298  0.00  0.00    +0.000 C 
ATOM     33  C   UNL     1      -5.839  -1.892 134.590  0.00  0.00    +0.000 C 
ATOM     34  C   UNL     1      -4.784  -2.892 134.167  0.00  0.00    +0.000 C 
ATOM     35  C   UNL     1      -5.030  -3.286 132.736  0.00  0.00    +0.000 C 
ATOM     36  C   UNL     1      -6.403  -3.705 132.292  0.00  0.00    +0.000 C 
ATOM     37  C   UNL     1      -6.443  -3.732 130.766  0.00  0.00    +0.000 C 
ATOM     38  N   UNL     1      -6.193  -2.437 130.080  0.00  0.00    +0.000 NA
ATOM     39  C   UNL     1      -6.877  -1.244 130.697  0.00  0.00    +0.000 C 
ATOM     40  C   UNL     1      -7.549  -1.443 132.055  0.00  0.00    +0.000 C 
BRANCH  39  41
ATOM     41  C   UNL     1      -5.925   0.080 130.949  0.00  0.00    +0.000 C 
ATOM     42  O   UNL     1      -5.679   0.848 129.952  0.00  0.00    +0.000 OA
ATOM     43  N   UNL     1      -5.574   0.420 132.243  0.00  0.00    +0.000 N 
ATOM     44  H   UNL     1      -5.659  -0.495 132.674  0.00  0.00    +0.000 HD
BRANCH  43  45
ATOM     45  C   UNL     1      -4.556   1.617 133.014  0.00  0.00    +0.000 C 
ATOM     46  C   UNL     1      -5.328   1.960 134.340  0.00  0.00    +0.000 C 
ATOM     47  C   UNL     1      -3.296   0.830 133.209  0.00  0.00    +0.000 C 
ATOM     48  C   UNL     1      -3.787   3.196 132.262  0.00  0.00    +0.000 C 
ENDBRANCH  43  45
ENDBRANCH  39  41
ENDBRANCH  30  38
ENDBRANCH  27  30
ENDBRANCH   1  27
BRANCH   1  49
ATOM     49  C   UNL     1      -5.779  -1.632 125.076  0.00  0.00    +0.000 C 
BRANCH  49  50
ATOM     50  C   UNL     1      -6.991  -2.184 124.476  0.00  0.00    +0.000 A 
ATOM     51  C   UNL     1      -8.192  -2.862 125.092  0.00  0.00    +0.000 A 
ATOM     52  C   UNL     1      -9.260  -3.307 124.418  0.00  0.00    +0.000 A 
ATOM     53  C   UNL     1      -9.044  -2.961 123.160  0.00  0.00    +0.000 A 
ATOM     54  C   UNL     1      -8.110  -1.866 122.793  0.00  0.00    +0.000 A 
ATOM     55  C   UNL     1      -6.883  -1.817 123.199  0.00  0.00    +0.000 A 
ENDBRANCH  49  50
ENDBRANCH   1  49
TORSDOF 14
ENDMDL
MODEL 9
REMARK VINA RESULT:      -9.2      2.860      8.033
REMARK  Name = Saquinavir
REMARK  17 active torsions:
REMARK  status: ('A' for Active; 'I' for Inactive)
REMARK    1  A    between atoms: N_10  and  C_11
REMARK    2  A    between atoms: C_11  and  C_12
REMARK    3  A    between atoms: C_12  and  O_13
REMARK    4  A    between atoms: C_12  and  C_14
REMARK    5  A    between atoms: C_14  and  C_15
REMARK    6  A    between atoms: C_14  and  N_22
REMARK    7  A    between atoms: C_15  and  C_16
REMARK    8  A    between atoms: C_23  and  C_25
REMARK    9  A    between atoms: C_25  and  C_26
REMARK   10  A    between atoms: C_25  and  N_30
REMARK   11  A    between atoms: C_26  and  C_27
REMARK   12  A    between atoms: C_31  and  C_33
REMARK   13  A    between atoms: C_43  and  C_45
REMARK   14  A    between atoms: N_47  and  C_48
REMARK   15  A    between atoms: C_48  and  C_49
REMARK   16  A    between atoms: C_48  and  C_50
REMARK   17  A    between atoms: C_48  and  C_51
REMARK                            x       y       z     vdW  Elec       q    Type
REMARK                         _______ _______ _______ _____ _____    ______ ____
ROOT
ATOM      1  C   UNL     1      -7.087   2.629 124.245  0.00  0.00    +0.000 C 
ENDROOT
BRANCH   1   2
ATOM      2  N   UNL     1      -6.751   1.244 124.214  0.00  0.00    +0.000 N 
ATOM      3  C   UNL     1      -7.809   0.377 124.070  0.00  0.00    +0.000 C 
ATOM      4  O   UNL     1      -8.941   0.735 123.769  0.00  0.00    +0.000 OA
ATOM      5  H   UNL     1      -5.982   0.952 124.818  0.00  0.00    +0.000 HD
BRANCH   3   6
ATOM      6  C   UNL     1      -7.407  -1.086 124.141  0.00  0.00    +0.000 C 
BRANCH   6   7
ATOM      7  N   UNL     1      -7.384  -1.504 125.586  0.00  0.00    +0.000 N 
ATOM      8  C   UNL     1      -6.305  -2.248 126.115  0.00  0.00    +0.000 C 
ATOM      9  O   UNL     1      -5.480  -2.728 125.337  0.00  0.00    +0.000 OA
ATOM     10  H   UNL     1      -8.156  -1.182 126.157  0.00  0.00    +0.000 HD
BRANCH   8  11
ATOM     11  C   UNL     1      -6.102  -2.488 127.624  0.00  0.00    +0.000 A 
ATOM     12  N   UNL     1      -7.050  -3.204 128.252  0.00  0.00    +0.000 NA
ATOM     13  C   UNL     1      -6.906  -3.323 129.593  0.00  0.00    +0.000 A 
ATOM     14  C   UNL     1      -5.738  -3.688 130.215  0.00  0.00    +0.000 A 
ATOM     15  C   UNL     1      -5.711  -3.898 131.638  0.00  0.00    +0.000 A 
ATOM     16  C   UNL     1      -6.564  -3.118 132.413  0.00  0.00    +0.000 A 
ATOM     17  C   UNL     1      -7.456  -2.299 131.740  0.00  0.00    +0.000 A 
ATOM     18  C   UNL     1      -7.638  -2.457 130.360  0.00  0.00    +0.000 A 
ATOM     19  C   UNL     1      -4.683  -3.160 129.441  0.00  0.00    +0.000 A 
ATOM     20  C   UNL     1      -4.973  -2.195 128.378  0.00  0.00    +0.000 A 
ENDBRANCH   8  11
ENDBRANCH   6   7
BRANCH   6  21
ATOM     21  C   UNL     1      -8.465  -1.774 123.237  0.00  0.00    +0.000 C 
BRANCH  21  22
ATOM     22  C   UNL     1      -9.464  -2.646 123.973  0.00  0.00    +0.000 C 
ATOM     23  N   UNL     1      -9.987  -3.707 123.295  0.00  0.00    +0.000 N 
ATOM     24  O   UNL     1      -9.846  -2.385 125.112  0.00  0.00    +0.000 OA
ATOM     25  H   UNL     1      -9.448  -4.145 122.544  0.00  0.00    +0.000 HD
ATOM     26  H   UNL     1     -10.614  -4.325 123.789  0.00  0.00    +0.000 HD
ENDBRANCH  21  22
ENDBRANCH   6  21
ENDBRANCH   3   6
ENDBRANCH   1   2
BRANCH   1  27
ATOM     27  C   UNL     1      -7.818   3.237 125.441  0.00  0.00    +0.000 C 
BRANCH  27  28
ATOM     28  O   UNL     1      -9.073   3.800 125.047  0.00  0.00    +0.000 OA
ATOM     29  H   UNL     1      -9.760   3.126 125.224  0.00  0.00    +0.000 HD
ENDBRANCH  27  28
BRANCH  27  30
ATOM     30  C   UNL     1      -8.085   2.286 126.671  0.00  0.00    +0.000 C 
BRANCH  30  38
ATOM     31  C   UNL     1      -6.037   0.835 130.124  0.00  0.00    +0.000 C 
ATOM     32  C   UNL     1      -5.452   0.932 131.546  0.00  0.00    +0.000 C 
ATOM     33  C   UNL     1      -5.385   2.372 132.078  0.00  0.00    +0.000 C 
ATOM     34  C   UNL     1      -4.494   3.197 131.174  0.00  0.00    +0.000 C 
ATOM     35  C   UNL     1      -4.974   3.056 129.756  0.00  0.00    +0.000 C 
ATOM     36  C   UNL     1      -5.244   1.696 129.179  0.00  0.00    +0.000 C 
ATOM     37  C   UNL     1      -6.014   1.857 127.870  0.00  0.00    +0.000 C 
ATOM     38  N   UNL     1      -7.347   2.506 127.968  0.00  0.00    +0.000 NA
ATOM     39  C   UNL     1      -8.192   2.059 129.133  0.00  0.00    +0.000 C 
ATOM     40  C   UNL     1      -7.523   1.182 130.191  0.00  0.00    +0.000 C 
BRANCH  39  41
ATOM     41  C   UNL     1      -8.873   3.263 130.031  0.00  0.00    +0.000 C 
ATOM     42  O   UNL     1      -9.918   3.845 129.571  0.00  0.00    +0.000 OA
ATOM     43  N   UNL     1      -8.415   3.484 131.319  0.00  0.00    +0.000 N 
ATOM     44  H   UNL     1      -7.479   3.105 131.218  0.00  0.00    +0.000 HD
BRANCH  43  45
ATOM     45  C   UNL     1      -8.719   4.639 132.598  0.00  0.00    +0.000 C 
ATOM     46  C   UNL     1      -8.872   3.741 133.878  0.00  0.00    +0.000 C 
ATOM     47  C   UNL     1      -7.460   5.451 132.548  0.00  0.00    +0.000 C 
ATOM     48  C   UNL     1      -9.978   6.076 132.637  0.00  0.00    +0.000 C 
ENDBRANCH  43  45
ENDBRANCH  39  41
ENDBRANCH  30  38
ENDBRANCH  27  30
ENDBRANCH   1  27
BRANCH   1  49
ATOM     49  C   UNL     1      -7.802   2.901 123.004  0.00  0.00    +0.000 C 
BRANCH  49  50
ATOM     50  C   UNL     1      -6.790   3.625 122.238  0.00  0.00    +0.000 A 
ATOM     51  C   UNL     1      -5.422   4.136 122.622  0.00  0.00    +0.000 A 
ATOM     52  C   UNL     1      -4.576   4.774 121.804  0.00  0.00    +0.000 A 
ATOM     53  C   UNL     1      -5.175   4.782 120.625  0.00  0.00    +0.000 A 
ATOM     54  C   UNL     1      -6.241   3.809 120.276  0.00  0.00    +0.000 A 
ATOM     55  C   UNL     1      -7.293   3.621 121.004  0.00  0.00    +0.000 A 
ENDBRANCH  49  50
ENDBRANCH   1  49
TORSDOF 14
ENDMDL
