MODEL 1
REMARK VINA RESULT:      -7.4      0.000      0.000
REMARK  Name = Sarecycline
REMARK  13 active torsions:
REMARK  status: ('A' for Active; 'I' for Inactive)
REMARK    1  A    between atoms: C_5  and  C_6
REMARK    2  A    between atoms: C_6  and  N_7
REMARK    3  A    between atoms: N_7  and  C_8
REMARK    4  A    between atoms: N_7  and  O_9
REMARK    5  A    between atoms: O_9  and  C_10
REMARK    6  A    between atoms: C_13  and  O_14
REMARK    7  A    between atoms: C_19  and  O_20
REMARK    8  A    between atoms: C_21  and  O_22
REMARK    9  A    between atoms: C_25  and  C_26
REMARK   10  A    between atoms: C_29  and  O_30
REMARK   11  A    between atoms: C_31  and  N_32
REMARK   12  A    between atoms: N_32  and  C_33
REMARK   13  A    between atoms: N_32  and  C_34
REMARK                            x       y       z     vdW  Elec       q    Type
REMARK                         _______ _______ _______ _____ _____    ______ ____
ROOT
ATOM      1  C   UNL     1      -8.018   1.060 127.694  0.00  0.00    +0.000 C 
ATOM      2  C   UNL     1      -8.994   1.103 126.543  0.00  0.00    +0.000 C 
ATOM      3  C   UNL     1      -8.790  -0.004 125.564  0.00  0.00    +0.000 A 
ATOM      4  C   UNL     1      -9.084   0.214 124.210  0.00  0.00    +0.000 A 
ATOM      5  C   UNL     1      -8.924  -0.871 123.334  0.00  0.00    +0.000 A 
ATOM      6  C   UNL     1      -8.656  -2.157 123.779  0.00  0.00    +0.000 A 
ATOM      7  C   UNL     1      -8.368  -2.362 125.114  0.00  0.00    +0.000 A 
ATOM      8  C   UNL     1      -8.401  -1.288 126.011  0.00  0.00    +0.000 A 
ATOM      9  C   UNL     1      -8.056  -1.502 127.439  0.00  0.00    +0.000 C 
ATOM     10  O   UNL     1      -7.910  -2.622 127.922  0.00  0.00    +0.000 OA
ATOM     11  C   UNL     1      -7.914  -0.302 128.314  0.00  0.00    +0.000 C 
ATOM     12  C   UNL     1      -7.710  -0.482 129.636  0.00  0.00    +0.000 C 
ATOM     13  C   UNL     1      -7.529   0.661 130.611  0.00  0.00    +0.000 C 
ATOM     14  C   UNL     1      -8.478   0.607 131.794  0.00  0.00    +0.000 C 
ATOM     15  O   UNL     1      -9.542  -0.026 131.741  0.00  0.00    +0.000 OA
ATOM     16  C   UNL     1      -8.289   1.611 132.900  0.00  0.00    +0.000 C 
ATOM     17  C   UNL     1      -8.900   2.662 132.353  0.00  0.00    +0.000 C 
ATOM     18  C   UNL     1      -8.109   3.255 130.960  0.00  0.00    +0.000 C 
ATOM     19  C   UNL     1      -7.773   2.046 129.978  0.00  0.00    +0.000 C 
ATOM     20  C   UNL     1      -8.557   2.101 128.691  0.00  0.00    +0.000 C 
ENDROOT
BRANCH  16  21
ATOM     21  C   UNL     1      -7.081   2.385 133.364  0.00  0.00    +0.000 C 
ATOM     22  N   UNL     1      -5.828   1.816 133.139  0.00  0.00    +0.000 N 
ATOM     23  O   UNL     1      -7.153   3.414 134.041  0.00  0.00    +0.000 OA
ATOM     24  H   UNL     1      -5.752   0.854 132.812  0.00  0.00    +0.000 HD
ATOM     25  H   UNL     1      -5.145   1.995 133.868  0.00  0.00    +0.000 HD
ENDBRANCH  16  21
BRANCH  18  26
ATOM     26  N   UNL     1      -6.857   4.101 130.772  0.00  0.00    +0.000 NA
ATOM     27  C   UNL     1      -6.724   5.572 131.037  0.00  0.00    +0.000 C 
ATOM     28  C   UNL     1      -5.873   3.735 129.788  0.00  0.00    +0.000 C 
ENDBRANCH  18  26
BRANCH   7  29
ATOM     29  O   UNL     1      -8.029  -3.620 125.519  0.00  0.00    +0.000 OA
ATOM     30  H   UNL     1      -8.205  -3.732 126.465  0.00  0.00    +0.000 HD
ENDBRANCH   7  29
BRANCH  12  31
ATOM     31  O   UNL     1      -7.563  -1.737 130.217  0.00  0.00    +0.000 OA
ATOM     32  H   UNL     1      -6.612  -1.845 130.458  0.00  0.00    +0.000 HD
ENDBRANCH  12  31
BRANCH  13  33
ATOM     33  O   UNL     1      -6.187   0.501 131.057  0.00  0.00    +0.000 OA
ATOM     34  H   UNL     1      -5.706   0.090 130.312  0.00  0.00    +0.000 HD
ENDBRANCH  13  33
BRANCH  17  35
ATOM     35  O   UNL     1      -9.701   3.400 133.300  0.00  0.00    +0.000 OA
ATOM     36  H   UNL     1     -10.000   2.756 134.014  0.00  0.00    +0.000 HD
ENDBRANCH  17  35
BRANCH   4  37
ATOM     37  C   UNL     1      -9.598   1.568 123.712  0.00  0.00    +0.000 C 
BRANCH  37  38
ATOM     38  N   UNL     1      -8.506   2.470 123.301  0.00  0.00    +0.000 NA
ATOM     39  C   UNL     1      -8.778   3.015 121.963  0.00  0.00    +0.000 C 
BRANCH  38  40
ATOM     40  O   UNL     1      -8.557   3.613 124.212  0.00  0.00    +0.000 OA
ATOM     41  C   UNL     1      -7.243   3.838 124.731  0.00  0.00    +0.000 C 
ENDBRANCH  38  40
ENDBRANCH  37  38
ENDBRANCH   4  37
TORSDOF 9
ENDMDL
MODEL 2
REMARK VINA RESULT:      -7.0      3.098      7.876
REMARK  Name = Sarecycline
REMARK  13 active torsions:
REMARK  status: ('A' for Active; 'I' for Inactive)
REMARK    1  A    between atoms: C_5  and  C_6
REMARK    2  A    between atoms: C_6  and  N_7
REMARK    3  A    between atoms: N_7  and  C_8
REMARK    4  A    between atoms: N_7  and  O_9
REMARK    5  A    between atoms: O_9  and  C_10
REMARK    6  A    between atoms: C_13  and  O_14
REMARK    7  A    between atoms: C_19  and  O_20
REMARK    8  A    between atoms: C_21  and  O_22
REMARK    9  A    between atoms: C_25  and  C_26
REMARK   10  A    between atoms: C_29  and  O_30
REMARK   11  A    between atoms: C_31  and  N_32
REMARK   12  A    between atoms: N_32  and  C_33
REMARK   13  A    between atoms: N_32  and  C_34
REMARK                            x       y       z     vdW  Elec       q    Type
REMARK                         _______ _______ _______ _____ _____    ______ ____
ROOT
ATOM      1  C   UNL     1      -7.094   2.032 128.789  0.00  0.00    +0.000 C 
ATOM      2  C   UNL     1      -7.941   3.140 129.366  0.00  0.00    +0.000 C 
ATOM      3  C   UNL     1      -7.131   4.231 129.983  0.00  0.00    +0.000 A 
ATOM      4  C   UNL     1      -7.650   4.937 131.077  0.00  0.00    +0.000 A 
ATOM      5  C   UNL     1      -6.875   5.987 131.593  0.00  0.00    +0.000 A 
ATOM      6  C   UNL     1      -5.725   6.444 130.966  0.00  0.00    +0.000 A 
ATOM      7  C   UNL     1      -5.221   5.742 129.889  0.00  0.00    +0.000 A 
ATOM      8  C   UNL     1      -5.898   4.616 129.407  0.00  0.00    +0.000 A 
ATOM      9  C   UNL     1      -5.337   3.841 128.272  0.00  0.00    +0.000 C 
ATOM     10  O   UNL     1      -4.385   4.242 127.606  0.00  0.00    +0.000 OA
ATOM     11  C   UNL     1      -5.983   2.544 127.920  0.00  0.00    +0.000 C 
ATOM     12  C   UNL     1      -5.558   1.881 126.824  0.00  0.00    +0.000 C 
ATOM     13  C   UNL     1      -6.125   0.547 126.387  0.00  0.00    +0.000 C 
ATOM     14  C   UNL     1      -6.608   0.534 124.948  0.00  0.00    +0.000 C 
ATOM     15  O   UNL     1      -6.906   1.582 124.357  0.00  0.00    +0.000 OA
ATOM     16  C   UNL     1      -7.055  -0.779 124.364  0.00  0.00    +0.000 C 
ATOM     17  C   UNL     1      -8.290  -0.835 124.864  0.00  0.00    +0.000 C 
ATOM     18  C   UNL     1      -8.324  -0.975 126.566  0.00  0.00    +0.000 C 
ATOM     19  C   UNL     1      -7.350   0.107 127.214  0.00  0.00    +0.000 C 
ATOM     20  C   UNL     1      -8.088   1.166 127.994  0.00  0.00    +0.000 C 
ENDROOT
BRANCH  16  21
ATOM     21  C   UNL     1      -6.707  -2.205 124.704  0.00  0.00    +0.000 C 
ATOM     22  N   UNL     1      -5.473  -2.439 125.309  0.00  0.00    +0.000 N 
ATOM     23  O   UNL     1      -7.391  -3.173 124.358  0.00  0.00    +0.000 OA
ATOM     24  H   UNL     1      -4.783  -1.691 125.375  0.00  0.00    +0.000 HD
ATOM     25  H   UNL     1      -5.025  -3.307 125.035  0.00  0.00    +0.000 HD
ENDBRANCH  16  21
BRANCH  18  26
ATOM     26  N   UNL     1      -8.074  -2.148 127.506  0.00  0.00    +0.000 NA
ATOM     27  C   UNL     1      -8.818  -3.450 127.527  0.00  0.00    +0.000 C 
ATOM     28  C   UNL     1      -7.529  -1.924 128.817  0.00  0.00    +0.000 C 
ENDBRANCH  18  26
BRANCH   7  29
ATOM     29  O   UNL     1      -4.046   6.160 129.335  0.00  0.00    +0.000 OA
ATOM     30  H   UNL     1      -3.837   5.637 128.547  0.00  0.00    +0.000 HD
ENDBRANCH   7  29
BRANCH  12  31
ATOM     31  O   UNL     1      -4.498   2.319 126.037  0.00  0.00    +0.000 OA
ATOM     32  H   UNL     1      -4.880   2.779 125.251  0.00  0.00    +0.000 HD
ENDBRANCH  12  31
BRANCH  13  33
ATOM     33  O   UNL     1      -5.025  -0.341 126.539  0.00  0.00    +0.000 OA
ATOM     34  H   UNL     1      -5.336  -1.210 126.216  0.00  0.00    +0.000 HD
ENDBRANCH  13  33
BRANCH  17  35
ATOM     35  O   UNL     1      -9.258  -1.328 123.914  0.00  0.00    +0.000 OA
ATOM     36  H   UNL     1     -10.104  -0.795 124.034  0.00  0.00    +0.000 HD
ENDBRANCH  17  35
BRANCH   4  37
ATOM     37  C   UNL     1      -9.026   4.604 131.663  0.00  0.00    +0.000 C 
BRANCH  37  38
ATOM     38  N   UNL     1     -10.101   5.429 131.082  0.00  0.00    +0.000 NA
ATOM     39  C   UNL     1     -11.098   4.570 130.424  0.00  0.00    +0.000 C 
BRANCH  38  40
ATOM     40  O   UNL     1     -10.795   6.049 132.211  0.00  0.00    +0.000 OA
ATOM     41  C   UNL     1     -11.956   6.723 131.714  0.00  0.00    +0.000 C 
ENDBRANCH  38  40
ENDBRANCH  37  38
ENDBRANCH   4  37
TORSDOF 9
ENDMDL
MODEL 3
REMARK VINA RESULT:      -7.0      3.293      7.732
REMARK  Name = Sarecycline
REMARK  13 active torsions:
REMARK  status: ('A' for Active; 'I' for Inactive)
REMARK    1  A    between atoms: C_5  and  C_6
REMARK    2  A    between atoms: C_6  and  N_7
REMARK    3  A    between atoms: N_7  and  C_8
REMARK    4  A    between atoms: N_7  and  O_9
REMARK    5  A    between atoms: O_9  and  C_10
REMARK    6  A    between atoms: C_13  and  O_14
REMARK    7  A    between atoms: C_19  and  O_20
REMARK    8  A    between atoms: C_21  and  O_22
REMARK    9  A    between atoms: C_25  and  C_26
REMARK   10  A    between atoms: C_29  and  O_30
REMARK   11  A    between atoms: C_31  and  N_32
REMARK   12  A    between atoms: N_32  and  C_33
REMARK   13  A    between atoms: N_32  and  C_34
REMARK                            x       y       z     vdW  Elec       q    Type
REMARK                         _______ _______ _______ _____ _____    ______ ____
ROOT
ATOM      1  C   UNL     1      -6.281   1.198 127.560  0.00  0.00    +0.000 C 
ATOM      2  C   UNL     1      -5.181   2.223 127.695  0.00  0.00    +0.000 C 
ATOM      3  C   UNL     1      -4.734   2.415 129.105  0.00  0.00    +0.000 A 
ATOM      4  C   UNL     1      -4.270   3.674 129.512  0.00  0.00    +0.000 A 
ATOM      5  C   UNL     1      -3.813   3.796 130.834  0.00  0.00    +0.000 A 
ATOM      6  C   UNL     1      -3.651   2.702 131.671  0.00  0.00    +0.000 A 
ATOM      7  C   UNL     1      -4.109   1.466 131.261  0.00  0.00    +0.000 A 
ATOM      8  C   UNL     1      -4.682   1.315 129.993  0.00  0.00    +0.000 A 
ATOM      9  C   UNL     1      -5.206  -0.006 129.566  0.00  0.00    +0.000 C 
ATOM     10  O   UNL     1      -5.006  -1.034 130.209  0.00  0.00    +0.000 OA
ATOM     11  C   UNL     1      -5.979  -0.076 128.293  0.00  0.00    +0.000 C 
ATOM     12  C   UNL     1      -6.369  -1.285 127.834  0.00  0.00    +0.000 C 
ATOM     13  C   UNL     1      -7.176  -1.471 126.567  0.00  0.00    +0.000 C 
ATOM     14  C   UNL     1      -6.549  -2.443 125.584  0.00  0.00    +0.000 C 
ATOM     15  O   UNL     1      -5.337  -2.701 125.615  0.00  0.00    +0.000 OA
ATOM     16  C   UNL     1      -7.337  -2.816 124.357  0.00  0.00    +0.000 C 
ATOM     17  C   UNL     1      -7.079  -1.752 123.596  0.00  0.00    +0.000 C 
ATOM     18  C   UNL     1      -7.728  -0.300 124.220  0.00  0.00    +0.000 C 
ATOM     19  C   UNL     1      -7.359  -0.167 125.765  0.00  0.00    +0.000 C 
ATOM     20  C   UNL     1      -6.407   0.968 126.044  0.00  0.00    +0.000 C 
ENDROOT
BRANCH  16  21
ATOM     21  C   UNL     1      -8.817  -2.827 124.074  0.00  0.00    +0.000 C 
ATOM     22  N   UNL     1      -9.676  -3.044 125.151  0.00  0.00    +0.000 N 
ATOM     23  O   UNL     1      -9.292  -2.789 122.935  0.00  0.00    +0.000 OA
ATOM     24  H   UNL     1      -9.304  -3.331 126.056  0.00  0.00    +0.000 HD
ATOM     25  H   UNL     1     -10.508  -3.580 124.928  0.00  0.00    +0.000 HD
ENDBRANCH  16  21
BRANCH  18  26
ATOM     26  N   UNL     1      -9.141   0.269 124.238  0.00  0.00    +0.000 NA
ATOM     27  C   UNL     1      -9.874   0.879 123.080  0.00  0.00    +0.000 C 
ATOM     28  C   UNL     1      -9.687   0.818 125.450  0.00  0.00    +0.000 C 
ENDBRANCH  18  26
BRANCH   7  29
ATOM     29  O   UNL     1      -4.014   0.418 132.130  0.00  0.00    +0.000 OA
ATOM     30  H   UNL     1      -4.535   0.589 132.928  0.00  0.00    +0.000 HD
ENDBRANCH   7  29
BRANCH  12  31
ATOM     31  O   UNL     1      -6.138  -2.468 128.526  0.00  0.00    +0.000 OA
ATOM     32  H   UNL     1      -6.633  -3.187 128.063  0.00  0.00    +0.000 HD
ENDBRANCH  12  31
BRANCH  13  33
ATOM     33  O   UNL     1      -8.413  -1.990 127.042  0.00  0.00    +0.000 OA
ATOM     34  H   UNL     1      -9.012  -1.222 127.124  0.00  0.00    +0.000 HD
ENDBRANCH  13  33
BRANCH  17  35
ATOM     35  O   UNL     1      -6.841  -2.095 122.215  0.00  0.00    +0.000 OA
ATOM     36  H   UNL     1      -7.117  -1.307 121.652  0.00  0.00    +0.000 HD
ENDBRANCH  17  35
BRANCH   4  37
ATOM     37  C   UNL     1      -4.227   4.861 128.544  0.00  0.00    +0.000 C 
BRANCH  37  38
ATOM     38  N   UNL     1      -3.537   6.032 129.118  0.00  0.00    +0.000 NA
ATOM     39  C   UNL     1      -2.376   6.390 128.289  0.00  0.00    +0.000 C 
BRANCH  38  40
ATOM     40  O   UNL     1      -4.470   7.153 128.999  0.00  0.00    +0.000 OA
ATOM     41  C   UNL     1      -4.088   8.162 129.939  0.00  0.00    +0.000 C 
ENDBRANCH  38  40
ENDBRANCH  37  38
ENDBRANCH   4  37
TORSDOF 9
ENDMDL
MODEL 4
REMARK VINA RESULT:      -7.0      2.173      7.599
REMARK  Name = Sarecycline
REMARK  13 active torsions:
REMARK  status: ('A' for Active; 'I' for Inactive)
REMARK    1  A    between atoms: C_5  and  C_6
REMARK    2  A    between atoms: C_6  and  N_7
REMARK    3  A    between atoms: N_7  and  C_8
REMARK    4  A    between atoms: N_7  and  O_9
REMARK    5  A    between atoms: O_9  and  C_10
REMARK    6  A    between atoms: C_13  and  O_14
REMARK    7  A    between atoms: C_19  and  O_20
REMARK    8  A    between atoms: C_21  and  O_22
REMARK    9  A    between atoms: C_25  and  C_26
REMARK   10  A    between atoms: C_29  and  O_30
REMARK   11  A    between atoms: C_31  and  N_32
REMARK   12  A    between atoms: N_32  and  C_33
REMARK   13  A    between atoms: N_32  and  C_34
REMARK                            x       y       z     vdW  Elec       q    Type
REMARK                         _______ _______ _______ _____ _____    ______ ____
ROOT
ATOM      1  C   UNL     1      -8.119   0.916 128.101  0.00  0.00    +0.000 C 
ATOM      2  C   UNL     1      -7.344   2.044 128.737  0.00  0.00    +0.000 C 
ATOM      3  C   UNL     1      -7.440   2.050 130.225  0.00  0.00    +0.000 A 
ATOM      4  C   UNL     1      -7.390   3.272 130.912  0.00  0.00    +0.000 A 
ATOM      5  C   UNL     1      -7.434   3.225 132.314  0.00  0.00    +0.000 A 
ATOM      6  C   UNL     1      -7.356   2.037 133.024  0.00  0.00    +0.000 A 
ATOM      7  C   UNL     1      -7.405   0.838 132.340  0.00  0.00    +0.000 A 
ATOM      8  C   UNL     1      -7.480   0.832 130.942  0.00  0.00    +0.000 A 
ATOM      9  C   UNL     1      -7.569  -0.456 130.209  0.00  0.00    +0.000 C 
ATOM     10  O   UNL     1      -7.403  -1.541 130.760  0.00  0.00    +0.000 OA
ATOM     11  C   UNL     1      -7.842  -0.412 128.743  0.00  0.00    +0.000 C 
ATOM     12  C   UNL     1      -7.817  -1.564 128.042  0.00  0.00    +0.000 C 
ATOM     13  C   UNL     1      -8.102  -1.639 126.557  0.00  0.00    +0.000 C 
ATOM     14  C   UNL     1      -7.009  -2.329 125.762  0.00  0.00    +0.000 C 
ATOM     15  O   UNL     1      -5.852  -2.418 126.198  0.00  0.00    +0.000 OA
ATOM     16  C   UNL     1      -7.254  -2.590 124.300  0.00  0.00    +0.000 C 
ATOM     17  C   UNL     1      -6.963  -1.385 123.808  0.00  0.00    +0.000 C 
ATOM     18  C   UNL     1      -8.049  -0.168 124.317  0.00  0.00    +0.000 C 
ATOM     19  C   UNL     1      -8.251  -0.254 125.895  0.00  0.00    +0.000 C 
ATOM     20  C   UNL     1      -7.683   0.937 126.625  0.00  0.00    +0.000 C 
ENDROOT
BRANCH  16  21
ATOM     21  C   UNL     1      -8.522  -2.758 123.504  0.00  0.00    +0.000 C 
ATOM     22  N   UNL     1      -9.629  -3.291 124.164  0.00  0.00    +0.000 N 
ATOM     23  O   UNL     1      -8.589  -2.576 122.285  0.00  0.00    +0.000 OA
ATOM     24  H   UNL     1      -9.529  -3.686 125.098  0.00  0.00    +0.000 HD
ATOM     25  H   UNL     1     -10.216  -3.888 123.591  0.00  0.00    +0.000 HD
ENDBRANCH  16  21
BRANCH  18  26
ATOM     26  N   UNL     1      -9.467   0.188 123.891  0.00  0.00    +0.000 NA
ATOM     27  C   UNL     1      -9.939   0.456 122.492  0.00  0.00    +0.000 C 
ATOM     28  C   UNL     1     -10.348   0.874 124.797  0.00  0.00    +0.000 C 
ENDBRANCH  18  26
BRANCH   7  29
ATOM     29  O   UNL     1      -7.408  -0.320 133.060  0.00  0.00    +0.000 OA
ATOM     30  H   UNL     1      -7.285  -0.135 134.003  0.00  0.00    +0.000 HD
ENDBRANCH   7  29
BRANCH  12  31
ATOM     31  O   UNL     1      -7.610  -2.806 128.631  0.00  0.00    +0.000 OA
ATOM     32  H   UNL     1      -6.765  -3.170 128.272  0.00  0.00    +0.000 HD
ENDBRANCH  12  31
BRANCH  13  33
ATOM     33  O   UNL     1      -9.303  -2.399 126.493  0.00  0.00    +0.000 OA
ATOM     34  H   UNL     1     -10.027  -1.749 126.398  0.00  0.00    +0.000 HD
ENDBRANCH  13  33
BRANCH  17  35
ATOM     35  O   UNL     1      -6.216  -1.448 122.575  0.00  0.00    +0.000 OA
ATOM     36  H   UNL     1      -6.877  -1.548 121.822  0.00  0.00    +0.000 HD
ENDBRANCH  17  35
BRANCH   4  37
ATOM     37  C   UNL     1      -7.252   4.602 130.166  0.00  0.00    +0.000 C 
BRANCH  37  38
ATOM     38  N   UNL     1      -8.035   5.684 130.792  0.00  0.00    +0.000 NA
ATOM     39  C   UNL     1      -7.150   6.798 131.163  0.00  0.00    +0.000 C 
BRANCH  38  40
ATOM     40  O   UNL     1      -8.914   6.209 129.747  0.00  0.00    +0.000 OA
ATOM     41  C   UNL     1     -10.228   5.681 129.953  0.00  0.00    +0.000 C 
ENDBRANCH  38  40
ENDBRANCH  37  38
ENDBRANCH   4  37
TORSDOF 9
ENDMDL
MODEL 5
REMARK VINA RESULT:      -6.9      3.482      6.059
REMARK  Name = Sarecycline
REMARK  13 active torsions:
REMARK  status: ('A' for Active; 'I' for Inactive)
REMARK    1  A    between atoms: C_5  and  C_6
REMARK    2  A    between atoms: C_6  and  N_7
REMARK    3  A    between atoms: N_7  and  C_8
REMARK    4  A    between atoms: N_7  and  O_9
REMARK    5  A    between atoms: O_9  and  C_10
REMARK    6  A    between atoms: C_13  and  O_14
REMARK    7  A    between atoms: C_19  and  O_20
REMARK    8  A    between atoms: C_21  and  O_22
REMARK    9  A    between atoms: C_25  and  C_26
REMARK   10  A    between atoms: C_29  and  O_30
REMARK   11  A    between atoms: C_31  and  N_32
REMARK   12  A    between atoms: N_32  and  C_33
REMARK   13  A    between atoms: N_32  and  C_34
REMARK                            x       y       z     vdW  Elec       q    Type
REMARK                         _______ _______ _______ _____ _____    ______ ____
ROOT
ATOM      1  C   UNL     1      -6.679   1.078 130.480  0.00  0.00    +0.000 C 
ATOM      2  C   UNL     1      -5.266   0.559 130.368  0.00  0.00    +0.000 C 
ATOM      3  C   UNL     1      -5.178  -0.737 129.637  0.00  0.00    +0.000 A 
ATOM      4  C   UNL     1      -4.174  -1.654 129.982  0.00  0.00    +0.000 A 
ATOM      5  C   UNL     1      -4.099  -2.839 129.234  0.00  0.00    +0.000 A 
ATOM      6  C   UNL     1      -4.853  -3.048 128.089  0.00  0.00    +0.000 A 
ATOM      7  C   UNL     1      -5.839  -2.140 127.756  0.00  0.00    +0.000 A 
ATOM      8  C   UNL     1      -6.032  -0.997 128.540  0.00  0.00    +0.000 A 
ATOM      9  C   UNL     1      -7.115  -0.039 128.202  0.00  0.00    +0.000 C 
ATOM     10  O   UNL     1      -7.750  -0.105 127.153  0.00  0.00    +0.000 OA
ATOM     11  C   UNL     1      -7.410   1.057 129.170  0.00  0.00    +0.000 C 
ATOM     12  C   UNL     1      -8.313   2.000 128.830  0.00  0.00    +0.000 C 
ATOM     13  C   UNL     1      -8.706   3.141 129.743  0.00  0.00    +0.000 C 
ATOM     14  C   UNL     1      -8.564   4.509 129.102  0.00  0.00    +0.000 C 
ATOM     15  O   UNL     1      -7.815   4.694 128.132  0.00  0.00    +0.000 OA
ATOM     16  C   UNL     1      -9.066   5.705 129.867  0.00  0.00    +0.000 C 
ATOM     17  C   UNL     1      -8.032   5.893 130.687  0.00  0.00    +0.000 C 
ATOM     18  C   UNL     1      -7.807   4.612 131.796  0.00  0.00    +0.000 C 
ATOM     19  C   UNL     1      -7.849   3.219 131.023  0.00  0.00    +0.000 C 
ATOM     20  C   UNL     1      -6.519   2.510 131.021  0.00  0.00    +0.000 C 
ENDROOT
BRANCH  16  21
ATOM     21  C   UNL     1     -10.116   5.849 130.938  0.00  0.00    +0.000 C 
ATOM     22  N   UNL     1     -11.286   5.105 130.796  0.00  0.00    +0.000 N 
ATOM     23  O   UNL     1     -10.048   6.681 131.848  0.00  0.00    +0.000 OA
ATOM     24  H   UNL     1     -11.475   4.606 129.927  0.00  0.00    +0.000 HD
ATOM     25  H   UNL     1     -12.125   5.569 131.125  0.00  0.00    +0.000 HD
ENDBRANCH  16  21
BRANCH  18  26
ATOM     26  N   UNL     1      -8.534   4.223 133.077  0.00  0.00    +0.000 NA
ATOM     27  C   UNL     1      -8.203   4.681 134.467  0.00  0.00    +0.000 C 
ATOM     28  C   UNL     1      -9.207   2.957 133.173  0.00  0.00    +0.000 C 
ENDBRANCH  18  26
BRANCH   7  29
ATOM     29  O   UNL     1      -6.624  -2.403 126.672  0.00  0.00    +0.000 OA
ATOM     30  H   UNL     1      -6.391  -1.821 125.934  0.00  0.00    +0.000 HD
ENDBRANCH   7  29
BRANCH  12  31
ATOM     31  O   UNL     1      -9.033   1.966 127.641  0.00  0.00    +0.000 OA
ATOM     32  H   UNL     1      -9.273   2.896 127.410  0.00  0.00    +0.000 HD
ENDBRANCH  12  31
BRANCH  13  33
ATOM     33  O   UNL     1     -10.075   2.877 130.026  0.00  0.00    +0.000 OA
ATOM     34  H   UNL     1     -10.403   2.337 129.280  0.00  0.00    +0.000 HD
ENDBRANCH  13  33
BRANCH  17  35
ATOM     35  O   UNL     1      -7.701   7.287 130.863  0.00  0.00    +0.000 OA
ATOM     36  H   UNL     1      -6.811   7.448 130.422  0.00  0.00    +0.000 HD
ENDBRANCH  17  35
BRANCH   4  37
ATOM     37  C   UNL     1      -3.175  -1.359 131.104  0.00  0.00    +0.000 C 
BRANCH  37  38
ATOM     38  N   UNL     1      -3.254  -2.339 132.204  0.00  0.00    +0.000 NA
ATOM     39  C   UNL     1      -2.555  -1.824 133.391  0.00  0.00    +0.000 C 
BRANCH  38  40
ATOM     40  O   UNL     1      -4.666  -2.417 132.579  0.00  0.00    +0.000 OA
ATOM     41  C   UNL     1      -4.809  -1.915 133.911  0.00  0.00    +0.000 C 
ENDBRANCH  38  40
ENDBRANCH  37  38
ENDBRANCH   4  37
TORSDOF 9
ENDMDL
MODEL 6
REMARK VINA RESULT:      -6.8      2.394      8.381
REMARK  Name = Sarecycline
REMARK  13 active torsions:
REMARK  status: ('A' for Active; 'I' for Inactive)
REMARK    1  A    between atoms: C_5  and  C_6
REMARK    2  A    between atoms: C_6  and  N_7
REMARK    3  A    between atoms: N_7  and  C_8
REMARK    4  A    between atoms: N_7  and  O_9
REMARK    5  A    between atoms: O_9  and  C_10
REMARK    6  A    between atoms: C_13  and  O_14
REMARK    7  A    between atoms: C_19  and  O_20
REMARK    8  A    between atoms: C_21  and  O_22
REMARK    9  A    between atoms: C_25  and  C_26
REMARK   10  A    between atoms: C_29  and  O_30
REMARK   11  A    between atoms: C_31  and  N_32
REMARK   12  A    between atoms: N_32  and  C_33
REMARK   13  A    between atoms: N_32  and  C_34
REMARK                            x       y       z     vdW  Elec       q    Type
REMARK                         _______ _______ _______ _____ _____    ______ ____
ROOT
ATOM      1  C   UNL     1      -6.878   2.247 128.700  0.00  0.00    +0.000 C 
ATOM      2  C   UNL     1      -7.303   2.705 130.073  0.00  0.00    +0.000 C 
ATOM      3  C   UNL     1      -6.257   3.510 130.768  0.00  0.00    +0.000 A 
ATOM      4  C   UNL     1      -6.163   3.453 132.167  0.00  0.00    +0.000 A 
ATOM      5  C   UNL     1      -5.197   4.264 132.781  0.00  0.00    +0.000 A 
ATOM      6  C   UNL     1      -4.470   5.218 132.084  0.00  0.00    +0.000 A 
ATOM      7  C   UNL     1      -4.569   5.267 130.707  0.00  0.00    +0.000 A 
ATOM      8  C   UNL     1      -5.435   4.397 130.035  0.00  0.00    +0.000 A 
ATOM      9  C   UNL     1      -5.515   4.426 128.553  0.00  0.00    +0.000 C 
ATOM     10  O   UNL     1      -4.982   5.305 127.881  0.00  0.00    +0.000 OA
ATOM     11  C   UNL     1      -6.299   3.356 127.872  0.00  0.00    +0.000 C 
ATOM     12  C   UNL     1      -6.474   3.428 126.535  0.00  0.00    +0.000 C 
ATOM     13  C   UNL     1      -7.231   2.387 125.739  0.00  0.00    +0.000 C 
ATOM     14  C   UNL     1      -8.342   2.967 124.883  0.00  0.00    +0.000 C 
ATOM     15  O   UNL     1      -8.847   4.069 125.139  0.00  0.00    +0.000 OA
ATOM     16  C   UNL     1      -9.064   2.042 123.939  0.00  0.00    +0.000 C 
ATOM     17  C   UNL     1      -9.910   1.468 124.794  0.00  0.00    +0.000 C 
ATOM     18  C   UNL     1      -9.132   0.513 125.978  0.00  0.00    +0.000 C 
ATOM     19  C   UNL     1      -7.928   1.333 126.623  0.00  0.00    +0.000 C 
ATOM     20  C   UNL     1      -8.162   1.677 128.072  0.00  0.00    +0.000 C 
ENDROOT
BRANCH  16  21
ATOM     21  C   UNL     1      -8.649   0.754 123.276  0.00  0.00    +0.000 C 
ATOM     22  N   UNL     1      -7.284   0.527 123.107  0.00  0.00    +0.000 N 
ATOM     23  O   UNL     1      -9.449  -0.034 122.763  0.00  0.00    +0.000 OA
ATOM     24  H   UNL     1      -6.613   1.273 123.291  0.00  0.00    +0.000 HD
ATOM     25  H   UNL     1      -7.038   0.035 122.255  0.00  0.00    +0.000 HD
ENDBRANCH  16  21
BRANCH  18  26
ATOM     26  N   UNL     1      -8.508  -0.875 125.930  0.00  0.00    +0.000 NA
ATOM     27  C   UNL     1      -9.240  -2.182 125.842  0.00  0.00    +0.000 C 
ATOM     28  C   UNL     1      -7.232  -1.120 126.547  0.00  0.00    +0.000 C 
ENDBRANCH  18  26
BRANCH   7  29
ATOM     29  O   UNL     1      -3.786   6.157 130.032  0.00  0.00    +0.000 OA
ATOM     30  H   UNL     1      -3.097   5.694 129.534  0.00  0.00    +0.000 HD
ENDBRANCH   7  29
BRANCH  12  31
ATOM     31  O   UNL     1      -5.904   4.423 125.749  0.00  0.00    +0.000 OA
ATOM     32  H   UNL     1      -6.577   5.136 125.634  0.00  0.00    +0.000 HD
ENDBRANCH  12  31
BRANCH  13  33
ATOM     33  O   UNL     1      -6.226   1.816 124.909  0.00  0.00    +0.000 OA
ATOM     34  H   UNL     1      -5.530   2.498 124.825  0.00  0.00    +0.000 HD
ENDBRANCH  13  33
BRANCH  17  35
ATOM     35  O   UNL     1     -11.232   1.294 124.242  0.00  0.00    +0.000 OA
ATOM     36  H   UNL     1     -11.293   0.354 123.885  0.00  0.00    +0.000 HD
ENDBRANCH  17  35
BRANCH   4  37
ATOM     37  C   UNL     1      -7.104   2.572 132.995  0.00  0.00    +0.000 C 
BRANCH  37  38
ATOM     38  N   UNL     1      -6.601   1.194 133.144  0.00  0.00    +0.000 NA
ATOM     39  C   UNL     1      -5.969   1.026 134.461  0.00  0.00    +0.000 C 
BRANCH  38  40
ATOM     40  O   UNL     1      -7.780   0.328 133.158  0.00  0.00    +0.000 OA
ATOM     41  C   UNL     1      -7.539  -0.779 132.285  0.00  0.00    +0.000 C 
ENDBRANCH  38  40
ENDBRANCH  37  38
ENDBRANCH   4  37
TORSDOF 9
ENDMDL
MODEL 7
REMARK VINA RESULT:      -6.8      2.688      4.982
REMARK  Name = Sarecycline
REMARK  13 active torsions:
REMARK  status: ('A' for Active; 'I' for Inactive)
REMARK    1  A    between atoms: C_5  and  C_6
REMARK    2  A    between atoms: C_6  and  N_7
REMARK    3  A    between atoms: N_7  and  C_8
REMARK    4  A    between atoms: N_7  and  O_9
REMARK    5  A    between atoms: O_9  and  C_10
REMARK    6  A    between atoms: C_13  and  O_14
REMARK    7  A    between atoms: C_19  and  O_20
REMARK    8  A    between atoms: C_21  and  O_22
REMARK    9  A    between atoms: C_25  and  C_26
REMARK   10  A    between atoms: C_29  and  O_30
REMARK   11  A    between atoms: C_31  and  N_32
REMARK   12  A    between atoms: N_32  and  C_33
REMARK   13  A    between atoms: N_32  and  C_34
REMARK                            x       y       z     vdW  Elec       q    Type
REMARK                         _______ _______ _______ _____ _____    ______ ____
ROOT
ATOM      1  C   UNL     1      -7.424   2.564 127.880  0.00  0.00    +0.000 C 
ATOM      2  C   UNL     1      -7.644   1.305 127.076  0.00  0.00    +0.000 C 
ATOM      3  C   UNL     1      -8.117   1.577 125.688  0.00  0.00    +0.000 A 
ATOM      4  C   UNL     1      -8.964   0.654 125.058  0.00  0.00    +0.000 A 
ATOM      5  C   UNL     1      -9.343   0.926 123.734  0.00  0.00    +0.000 A 
ATOM      6  C   UNL     1      -8.787   1.959 122.996  0.00  0.00    +0.000 A 
ATOM      7  C   UNL     1      -7.953   2.863 123.624  0.00  0.00    +0.000 A 
ATOM      8  C   UNL     1      -7.636   2.701 124.977  0.00  0.00    +0.000 A 
ATOM      9  C   UNL     1      -6.768   3.693 125.661  0.00  0.00    +0.000 C 
ATOM     10  O   UNL     1      -6.161   4.569 125.051  0.00  0.00    +0.000 OA
ATOM     11  C   UNL     1      -6.616   3.590 127.141  0.00  0.00    +0.000 C 
ATOM     12  C   UNL     1      -5.746   4.413 127.765  0.00  0.00    +0.000 C 
ATOM     13  C   UNL     1      -5.529   4.411 129.263  0.00  0.00    +0.000 C 
ATOM     14  C   UNL     1      -4.075   4.246 129.666  0.00  0.00    +0.000 C 
ATOM     15  O   UNL     1      -3.245   3.739 128.898  0.00  0.00    +0.000 OA
ATOM     16  C   UNL     1      -3.726   4.377 131.124  0.00  0.00    +0.000 C 
ATOM     17  C   UNL     1      -4.065   3.157 131.544  0.00  0.00    +0.000 C 
ATOM     18  C   UNL     1      -5.741   2.844 131.427  0.00  0.00    +0.000 C 
ATOM     19  C   UNL     1      -6.267   3.263 129.983  0.00  0.00    +0.000 C 
ATOM     20  C   UNL     1      -6.707   2.083 129.155  0.00  0.00    +0.000 C 
ENDROOT
BRANCH  16  21
ATOM     21  C   UNL     1      -4.399   5.102 132.261  0.00  0.00    +0.000 C 
ATOM     22  N   UNL     1      -5.127   6.250 131.951  0.00  0.00    +0.000 N 
ATOM     23  O   UNL     1      -4.229   4.811 133.449  0.00  0.00    +0.000 OA
ATOM     24  H   UNL     1      -5.074   6.655 131.017  0.00  0.00    +0.000 HD
ATOM     25  H   UNL     1      -5.086   6.980 132.654  0.00  0.00    +0.000 HD
ENDBRANCH  16  21
BRANCH  18  26
ATOM     26  N   UNL     1      -6.929   3.280 132.275  0.00  0.00    +0.000 NA
ATOM     27  C   UNL     1      -7.299   2.757 133.632  0.00  0.00    +0.000 C 
ATOM     28  C   UNL     1      -8.123   3.779 131.649  0.00  0.00    +0.000 C 
ENDBRANCH  18  26
BRANCH   7  29
ATOM     29  O   UNL     1      -7.479   3.919 122.901  0.00  0.00    +0.000 OA
ATOM     30  H   UNL     1      -7.671   4.754 123.353  0.00  0.00    +0.000 HD
ENDBRANCH   7  29
BRANCH  12  31
ATOM     31  O   UNL     1      -5.027   5.399 127.100  0.00  0.00    +0.000 OA
ATOM     32  H   UNL     1      -4.590   4.977 126.321  0.00  0.00    +0.000 HD
ENDBRANCH  12  31
BRANCH  13  33
ATOM     33  O   UNL     1      -6.003   5.691 129.663  0.00  0.00    +0.000 OA
ATOM     34  H   UNL     1      -6.548   5.537 130.460  0.00  0.00    +0.000 HD
ENDBRANCH  13  33
BRANCH  17  35
ATOM     35  O   UNL     1      -3.124   2.608 132.490  0.00  0.00    +0.000 OA
ATOM     36  H   UNL     1      -3.584   1.856 132.977  0.00  0.00    +0.000 HD
ENDBRANCH  17  35
BRANCH   4  37
ATOM     37  C   UNL     1      -9.425  -0.622 125.770  0.00  0.00    +0.000 C 
BRANCH  37  38
ATOM     38  N   UNL     1      -8.720  -1.824 125.288  0.00  0.00    +0.000 NA
ATOM     39  C   UNL     1      -8.072  -2.514 126.414  0.00  0.00    +0.000 C 
BRANCH  38  40
ATOM     40  O   UNL     1      -9.755  -2.739 124.807  0.00  0.00    +0.000 OA
ATOM     41  C   UNL     1      -9.387  -3.190 123.500  0.00  0.00    +0.000 C 
ENDBRANCH  38  40
ENDBRANCH  37  38
ENDBRANCH   4  37
TORSDOF 9
ENDMDL
MODEL 8
REMARK VINA RESULT:      -6.8      3.033      5.467
REMARK  Name = Sarecycline
REMARK  13 active torsions:
REMARK  status: ('A' for Active; 'I' for Inactive)
REMARK    1  A    between atoms: C_5  and  C_6
REMARK    2  A    between atoms: C_6  and  N_7
REMARK    3  A    between atoms: N_7  and  C_8
REMARK    4  A    between atoms: N_7  and  O_9
REMARK    5  A    between atoms: O_9  and  C_10
REMARK    6  A    between atoms: C_13  and  O_14
REMARK    7  A    between atoms: C_19  and  O_20
REMARK    8  A    between atoms: C_21  and  O_22
REMARK    9  A    between atoms: C_25  and  C_26
REMARK   10  A    between atoms: C_29  and  O_30
REMARK   11  A    between atoms: C_31  and  N_32
REMARK   12  A    between atoms: N_32  and  C_33
REMARK   13  A    between atoms: N_32  and  C_34
REMARK                            x       y       z     vdW  Elec       q    Type
REMARK                         _______ _______ _______ _____ _____    ______ ____
ROOT
ATOM      1  C   UNL     1      -8.032   0.577 129.824  0.00  0.00    +0.000 C 
ATOM      2  C   UNL     1      -7.296  -0.738 129.735  0.00  0.00    +0.000 C 
ATOM      3  C   UNL     1      -7.837  -1.636 128.674  0.00  0.00    +0.000 A 
ATOM      4  C   UNL     1      -7.778  -3.026 128.855  0.00  0.00    +0.000 A 
ATOM      5  C   UNL     1      -8.254  -3.833 127.809  0.00  0.00    +0.000 A 
ATOM      6  C   UNL     1      -8.611  -3.317 126.572  0.00  0.00    +0.000 A 
ATOM      7  C   UNL     1      -8.666  -1.948 126.403  0.00  0.00    +0.000 A 
ATOM      8  C   UNL     1      -8.312  -1.097 127.456  0.00  0.00    +0.000 A 
ATOM      9  C   UNL     1      -8.405   0.375 127.285  0.00  0.00    +0.000 C 
ATOM     10  O   UNL     1      -8.613   0.900 126.194  0.00  0.00    +0.000 OA
ATOM     11  C   UNL     1      -8.208   1.235 128.487  0.00  0.00    +0.000 C 
ATOM     12  C   UNL     1      -8.179   2.576 128.331  0.00  0.00    +0.000 C 
ATOM     13  C   UNL     1      -8.008   3.543 129.483  0.00  0.00    +0.000 C 
ATOM     14  C   UNL     1      -6.869   4.526 129.287  0.00  0.00    +0.000 C 
ATOM     15  O   UNL     1      -5.935   4.285 128.509  0.00  0.00    +0.000 OA
ATOM     16  C   UNL     1      -6.701   5.625 130.301  0.00  0.00    +0.000 C 
ATOM     17  C   UNL     1      -6.062   4.950 131.257  0.00  0.00    +0.000 C 
ATOM     18  C   UNL     1      -7.013   3.719 131.965  0.00  0.00    +0.000 C 
ATOM     19  C   UNL     1      -7.697   2.845 130.822  0.00  0.00    +0.000 C 
ATOM     20  C   UNL     1      -7.172   1.432 130.772  0.00  0.00    +0.000 C 
ENDROOT
BRANCH  16  21
ATOM     21  C   UNL     1      -7.676   6.293 131.236  0.00  0.00    +0.000 C 
ATOM     22  N   UNL     1      -8.884   6.735 130.697  0.00  0.00    +0.000 N 
ATOM     23  O   UNL     1      -7.407   6.582 132.405  0.00  0.00    +0.000 OA
ATOM     24  H   UNL     1      -9.025   6.738 129.688  0.00  0.00    +0.000 HD
ATOM     25  H   UNL     1      -9.240   7.593 131.104  0.00  0.00    +0.000 HD
ENDBRANCH  16  21
BRANCH  18  26
ATOM     26  N   UNL     1      -8.145   3.753 132.982  0.00  0.00    +0.000 NA
ATOM     27  C   UNL     1      -8.031   4.106 134.436  0.00  0.00    +0.000 C 
ATOM     28  C   UNL     1      -9.294   2.903 132.820  0.00  0.00    +0.000 C 
ENDBRANCH  18  26
BRANCH   7  29
ATOM     29  O   UNL     1      -9.096  -1.459 125.204  0.00  0.00    +0.000 OA
ATOM     30  H   UNL     1      -9.197  -0.497 125.245  0.00  0.00    +0.000 HD
ENDBRANCH   7  29
BRANCH  12  31
ATOM     31  O   UNL     1      -8.389   3.200 127.107  0.00  0.00    +0.000 OA
ATOM     32  H   UNL     1      -7.545   3.644 126.849  0.00  0.00    +0.000 HD
ENDBRANCH  12  31
BRANCH  13  33
ATOM     33  O   UNL     1      -9.250   4.237 129.513  0.00  0.00    +0.000 OA
ATOM     34  H   UNL     1      -9.023   5.188 129.523  0.00  0.00    +0.000 HD
ENDBRANCH  13  33
BRANCH  17  35
ATOM     35  O   UNL     1      -5.000   5.712 131.868  0.00  0.00    +0.000 OA
ATOM     36  H   UNL     1      -4.841   5.333 132.787  0.00  0.00    +0.000 HD
ENDBRANCH  17  35
BRANCH   4  37
ATOM     37  C   UNL     1      -7.182  -3.641 130.125  0.00  0.00    +0.000 C 
BRANCH  37  38
ATOM     38  N   UNL     1      -5.808  -4.135 129.921  0.00  0.00    +0.000 NA
ATOM     39  C   UNL     1      -4.844  -3.217 130.545  0.00  0.00    +0.000 C 
BRANCH  38  40
ATOM     40  O   UNL     1      -5.708  -5.386 130.674  0.00  0.00    +0.000 OA
ATOM     41  C   UNL     1      -5.315  -5.077 132.014  0.00  0.00    +0.000 C 
ENDBRANCH  38  40
ENDBRANCH  37  38
ENDBRANCH   4  37
TORSDOF 9
ENDMDL
MODEL 9
REMARK VINA RESULT:      -6.7      3.485      6.063
REMARK  Name = Sarecycline
REMARK  13 active torsions:
REMARK  status: ('A' for Active; 'I' for Inactive)
REMARK    1  A    between atoms: C_5  and  C_6
REMARK    2  A    between atoms: C_6  and  N_7
REMARK    3  A    between atoms: N_7  and  C_8
REMARK    4  A    between atoms: N_7  and  O_9
REMARK    5  A    between atoms: O_9  and  C_10
REMARK    6  A    between atoms: C_13  and  O_14
REMARK    7  A    between atoms: C_19  and  O_20
REMARK    8  A    between atoms: C_21  and  O_22
REMARK    9  A    between atoms: C_25  and  C_26
REMARK   10  A    between atoms: C_29  and  O_30
REMARK   11  A    between atoms: C_31  and  N_32
REMARK   12  A    between atoms: N_32  and  C_33
REMARK   13  A    between atoms: N_32  and  C_34
REMARK                            x       y       z     vdW  Elec       q    Type
REMARK                         _______ _______ _______ _____ _____    ______ ____
ROOT
ATOM      1  C   UNL     1      -5.625   1.741 128.894  0.00  0.00    +0.000 C 
ATOM      2  C   UNL     1      -5.262   0.446 128.208  0.00  0.00    +0.000 C 
ATOM      3  C   UNL     1      -6.448  -0.279 127.668  0.00  0.00    +0.000 A 
ATOM      4  C   UNL     1      -6.431  -1.681 127.617  0.00  0.00    +0.000 A 
ATOM      5  C   UNL     1      -7.548  -2.319 127.055  0.00  0.00    +0.000 A 
ATOM      6  C   UNL     1      -8.561  -1.622 126.413  0.00  0.00    +0.000 A 
ATOM      7  C   UNL     1      -8.569  -0.242 126.467  0.00  0.00    +0.000 A 
ATOM      8  C   UNL     1      -7.535   0.440 127.119  0.00  0.00    +0.000 A 
ATOM      9  C   UNL     1      -7.562   1.921 127.208  0.00  0.00    +0.000 C 
ATOM     10  O   UNL     1      -8.366   2.605 126.580  0.00  0.00    +0.000 OA
ATOM     11  C   UNL     1      -6.550   2.591 128.074  0.00  0.00    +0.000 C 
ATOM     12  C   UNL     1      -6.489   3.940 128.081  0.00  0.00    +0.000 C 
ATOM     13  C   UNL     1      -5.519   4.723 128.939  0.00  0.00    +0.000 C 
ATOM     14  C   UNL     1      -4.677   5.713 128.154  0.00  0.00    +0.000 C 
ATOM     15  O   UNL     1      -4.493   5.582 126.935  0.00  0.00    +0.000 OA
ATOM     16  C   UNL     1      -3.784   6.649 128.924  0.00  0.00    +0.000 C 
ATOM     17  C   UNL     1      -2.755   5.833 129.155  0.00  0.00    +0.000 C 
ATOM     18  C   UNL     1      -3.149   4.519 130.174  0.00  0.00    +0.000 C 
ATOM     19  C   UNL     1      -4.494   3.831 129.668  0.00  0.00    +0.000 C 
ATOM     20  C   UNL     1      -4.275   2.437 129.138  0.00  0.00    +0.000 C 
ENDROOT
BRANCH  16  21
ATOM     21  C   UNL     1      -3.853   7.179 130.333  0.00  0.00    +0.000 C 
ATOM     22  N   UNL     1      -2.654   7.309 131.031  0.00  0.00    +0.000 N 
ATOM     23  O   UNL     1      -4.914   7.373 130.934  0.00  0.00    +0.000 OA
ATOM     24  H   UNL     1      -1.793   6.917 130.651  0.00  0.00    +0.000 HD
ATOM     25  H   UNL     1      -2.719   7.114 132.025  0.00  0.00    +0.000 HD
ENDBRANCH  16  21
BRANCH  18  26
ATOM     26  N   UNL     1      -3.351   4.413 131.680  0.00  0.00    +0.000 NA
ATOM     27  C   UNL     1      -2.290   4.152 132.708  0.00  0.00    +0.000 C 
ATOM     28  C   UNL     1      -4.609   3.964 132.214  0.00  0.00    +0.000 C 
ENDBRANCH  18  26
BRANCH   7  29
ATOM     29  O   UNL     1      -9.615   0.423 125.898  0.00  0.00    +0.000 OA
ATOM     30  H   UNL     1     -10.003   1.048 126.529  0.00  0.00    +0.000 HD
ENDBRANCH   7  29
BRANCH  12  31
ATOM     31  O   UNL     1      -7.370   4.741 127.364  0.00  0.00    +0.000 OA
ATOM     32  H   UNL     1      -8.210   4.799 127.880  0.00  0.00    +0.000 HD
ENDBRANCH  12  31
BRANCH  13  33
ATOM     33  O   UNL     1      -6.369   5.418 129.843  0.00  0.00    +0.000 OA
ATOM     34  H   UNL     1      -6.395   4.875 130.656  0.00  0.00    +0.000 HD
ENDBRANCH  13  33
BRANCH  17  35
ATOM     35  O   UNL     1      -1.476   6.485 129.003  0.00  0.00    +0.000 OA
ATOM     36  H   UNL     1      -0.762   5.817 129.242  0.00  0.00    +0.000 HD
ENDBRANCH  17  35
BRANCH   4  37
ATOM     37  C   UNL     1      -5.227  -2.484 128.118  0.00  0.00    +0.000 C 
BRANCH  37  38
ATOM     38  N   UNL     1      -5.546  -3.299 129.305  0.00  0.00    +0.000 NA
ATOM     39  C   UNL     1      -4.311  -3.840 129.893  0.00  0.00    +0.000 C 
BRANCH  38  40
ATOM     40  O   UNL     1      -6.086  -2.374 130.302  0.00  0.00    +0.000 OA
ATOM     41  C   UNL     1      -7.135  -3.037 131.013  0.00  0.00    +0.000 C 
ENDBRANCH  38  40
ENDBRANCH  37  38
ENDBRANCH   4  37
TORSDOF 9
ENDMDL
