MODEL 1
REMARK VINA RESULT:      -7.1      0.000      0.000
REMARK  Name = Saxagliptin
REMARK  5 active torsions:
REMARK  status: ('A' for Active; 'I' for Inactive)
REMARK    1  A    between atoms: C_7  and  C_9
REMARK    2  A    between atoms: C_11  and  C_13
REMARK    3  A    between atoms: C_13  and  N_14
REMARK    4  A    between atoms: C_13  and  C_15
REMARK    5  A    between atoms: C_21  and  O_22
REMARK                            x       y       z     vdW  Elec       q    Type
REMARK                         _______ _______ _______ _____ _____    ______ ____
ROOT
ATOM      1  C   UNL     1      -9.096   5.699 130.667  0.00  0.00    +0.000 C 
ENDROOT
BRANCH   1   2
ATOM      2  C   UNL     1      -8.275   5.743 131.875  0.00  0.00    +0.000 C 
ATOM      3  C   UNL     1      -9.011   5.939 133.266  0.00  0.00    +0.000 C 
ATOM      4  C   UNL     1      -8.315   4.621 134.355  0.00  0.00    +0.000 C 
ATOM      5  C   UNL     1      -8.051   2.904 133.415  0.00  0.00    +0.000 C 
ATOM      6  C   UNL     1      -7.337   3.240 132.004  0.00  0.00    +0.000 C 
ATOM      7  C   UNL     1      -5.954   3.819 132.175  0.00  0.00    +0.000 C 
ATOM      8  C   UNL     1      -5.994   5.439 132.716  0.00  0.00    +0.000 C 
ATOM      9  C   UNL     1      -6.980   5.761 134.274  0.00  0.00    +0.000 C 
ATOM     10  C   UNL     1      -6.879   6.374 131.896  0.00  0.00    +0.000 C 
ATOM     11  C   UNL     1      -8.231   4.325 132.060  0.00  0.00    +0.000 C 
BRANCH   8  12
ATOM     12  O   UNL     1      -4.730   5.842 132.228  0.00  0.00    +0.000 OA
ATOM     13  H   UNL     1      -4.579   6.704 132.710  0.00  0.00    +0.000 HD
ENDBRANCH   8  12
ENDBRANCH   1   2
BRANCH   1  20
ATOM     14  C   UNL     1     -13.001   7.818 129.089  0.00  0.00    +0.000 C 
ATOM     15  C   UNL     1     -11.989   8.693 128.411  0.00  0.00    +0.000 C 
ATOM     16  C   UNL     1     -11.811   8.335 129.866  0.00  0.00    +0.000 C 
ATOM     17  N   UNL     1     -11.136   7.189 130.427  0.00  0.00    +0.000 N 
ATOM     18  C   UNL     1     -11.934   6.022 130.275  0.00  0.00    +0.000 C 
ATOM     19  C   UNL     1     -12.879   6.317 129.093  0.00  0.00    +0.000 C 
ATOM     20  C   UNL     1      -9.790   7.070 130.131  0.00  0.00    +0.000 C 
ATOM     21  O   UNL     1      -9.338   7.839 129.363  0.00  0.00    +0.000 OA
BRANCH  18  22
ATOM     22  C   UNL     1     -11.266   4.667 130.103  0.00  0.00    +0.000 C 
ATOM     23  N   UNL     1     -10.713   3.544 129.961  0.00  0.00    +0.000 NA
ENDBRANCH  18  22
ENDBRANCH   1  20
BRANCH   1  24
ATOM     24  N   UNL     1      -8.008   5.529 129.705  0.00  0.00    +0.000 NA
ATOM     25  H   UNL     1      -8.247   5.521 128.728  0.00  0.00    +0.000 HD
ATOM     26  H   UNL     1      -7.217   4.944 129.924  0.00  0.00    +0.000 HD
ENDBRANCH   1  24
TORSDOF 5
ENDMDL
MODEL 2
REMARK VINA RESULT:      -6.9      1.994      3.118
REMARK  Name = Saxagliptin
REMARK  5 active torsions:
REMARK  status: ('A' for Active; 'I' for Inactive)
REMARK    1  A    between atoms: C_7  and  C_9
REMARK    2  A    between atoms: C_11  and  C_13
REMARK    3  A    between atoms: C_13  and  N_14
REMARK    4  A    between atoms: C_13  and  C_15
REMARK    5  A    between atoms: C_21  and  O_22
REMARK                            x       y       z     vdW  Elec       q    Type
REMARK                         _______ _______ _______ _____ _____    ______ ____
ROOT
ATOM      1  C   UNL     1      -9.830   5.613 131.534  0.00  0.00    +0.000 C 
ENDROOT
BRANCH   1   2
ATOM      2  C   UNL     1      -9.523   4.224 131.871  0.00  0.00    +0.000 C 
ATOM      3  C   UNL     1     -10.389   3.086 131.186  0.00  0.00    +0.000 C 
ATOM      4  C   UNL     1      -9.150   1.883 130.533  0.00  0.00    +0.000 C 
ATOM      5  C   UNL     1      -7.562   2.761 129.752  0.00  0.00    +0.000 C 
ATOM      6  C   UNL     1      -7.095   3.910 130.788  0.00  0.00    +0.000 C 
ATOM      7  C   UNL     1      -6.632   3.349 132.110  0.00  0.00    +0.000 C 
ATOM      8  C   UNL     1      -7.934   2.796 133.070  0.00  0.00    +0.000 C 
ATOM      9  C   UNL     1      -9.086   1.562 132.260  0.00  0.00    +0.000 C 
ATOM     10  C   UNL     1      -9.064   3.802 133.271  0.00  0.00    +0.000 C 
ATOM     11  C   UNL     1      -8.490   4.074 130.893  0.00  0.00    +0.000 C 
BRANCH   8  12
ATOM     12  O   UNL     1      -7.310   2.904 134.333  0.00  0.00    +0.000 OA
ATOM     13  H   UNL     1      -6.905   1.999 134.451  0.00  0.00    +0.000 HD
ENDBRANCH   8  12
ENDBRANCH   1   2
BRANCH   1  20
ATOM     14  C   UNL     1     -12.269   7.932 128.233  0.00  0.00    +0.000 C 
ATOM     15  C   UNL     1     -13.326   7.889 129.295  0.00  0.00    +0.000 C 
ATOM     16  C   UNL     1     -12.540   6.642 128.974  0.00  0.00    +0.000 C 
ATOM     17  N   UNL     1     -11.288   6.205 129.544  0.00  0.00    +0.000 N 
ATOM     18  C   UNL     1     -10.212   6.974 129.022  0.00  0.00    +0.000 C 
ATOM     19  C   UNL     1     -10.842   8.298 128.545  0.00  0.00    +0.000 C 
ATOM     20  C   UNL     1     -11.287   5.973 130.907  0.00  0.00    +0.000 C 
ATOM     21  O   UNL     1     -12.263   6.257 131.501  0.00  0.00    +0.000 OA
BRANCH  18  22
ATOM     22  C   UNL     1      -8.988   7.241 129.882  0.00  0.00    +0.000 C 
ATOM     23  N   UNL     1      -7.972   7.463 130.595  0.00  0.00    +0.000 NA
ENDBRANCH  18  22
ENDBRANCH   1  20
BRANCH   1  24
ATOM     24  N   UNL     1      -9.970   6.112 132.901  0.00  0.00    +0.000 NA
ATOM     25  H   UNL     1      -9.237   6.702 133.259  0.00  0.00    +0.000 HD
ATOM     26  H   UNL     1     -10.405   5.546 133.612  0.00  0.00    +0.000 HD
ENDBRANCH   1  24
TORSDOF 5
ENDMDL
MODEL 3
REMARK VINA RESULT:      -6.9      8.144     10.625
REMARK  Name = Saxagliptin
REMARK  5 active torsions:
REMARK  status: ('A' for Active; 'I' for Inactive)
REMARK    1  A    between atoms: C_7  and  C_9
REMARK    2  A    between atoms: C_11  and  C_13
REMARK    3  A    between atoms: C_13  and  N_14
REMARK    4  A    between atoms: C_13  and  C_15
REMARK    5  A    between atoms: C_21  and  O_22
REMARK                            x       y       z     vdW  Elec       q    Type
REMARK                         _______ _______ _______ _____ _____    ______ ____
ROOT
ATOM      1  C   UNL     1      -6.436  -0.790 126.877  0.00  0.00    +0.000 C 
ENDROOT
BRANCH   1   2
ATOM      2  C   UNL     1      -7.189  -0.931 125.632  0.00  0.00    +0.000 C 
ATOM      3  C   UNL     1      -6.896   0.103 124.466  0.00  0.00    +0.000 C 
ATOM      4  C   UNL     1      -6.650  -0.942 122.964  0.00  0.00    +0.000 C 
ATOM      5  C   UNL     1      -5.632  -2.594 123.333  0.00  0.00    +0.000 C 
ATOM      6  C   UNL     1      -6.257  -3.249 124.673  0.00  0.00    +0.000 C 
ATOM      7  C   UNL     1      -7.687  -3.693 124.491  0.00  0.00    +0.000 C 
ATOM      8  C   UNL     1      -8.773  -2.374 124.444  0.00  0.00    +0.000 C 
ATOM      9  C   UNL     1      -8.390  -1.039 123.187  0.00  0.00    +0.000 C 
ATOM     10  C   UNL     1      -8.650  -1.392 125.606  0.00  0.00    +0.000 C 
ATOM     11  C   UNL     1      -6.307  -1.893 125.048  0.00  0.00    +0.000 C 
BRANCH   8  12
ATOM     12  O   UNL     1      -9.938  -3.061 124.853  0.00  0.00    +0.000 OA
ATOM     13  H   UNL     1      -9.777  -3.195 125.829  0.00  0.00    +0.000 HD
ENDBRANCH   8  12
ENDBRANCH   1   2
BRANCH   1  20
ATOM     14  C   UNL     1      -7.106  -3.141 130.908  0.00  0.00    +0.000 C 
ATOM     15  C   UNL     1      -5.755  -3.688 130.558  0.00  0.00    +0.000 C 
ATOM     16  C   UNL     1      -6.824  -3.607 129.497  0.00  0.00    +0.000 C 
ATOM     17  N   UNL     1      -7.125  -2.506 128.614  0.00  0.00    +0.000 N 
ATOM     18  C   UNL     1      -7.800  -1.475 129.322  0.00  0.00    +0.000 C 
ATOM     19  C   UNL     1      -7.420  -1.671 130.804  0.00  0.00    +0.000 C 
ATOM     20  C   UNL     1      -6.109  -2.117 127.760  0.00  0.00    +0.000 C 
ATOM     21  O   UNL     1      -5.061  -2.634 127.900  0.00  0.00    +0.000 OA
BRANCH  18  22
ATOM     22  C   UNL     1      -7.610  -0.024 128.908  0.00  0.00    +0.000 C 
ATOM     23  N   UNL     1      -7.453   1.178 128.565  0.00  0.00    +0.000 NA
ENDBRANCH  18  22
ENDBRANCH   1  20
BRANCH   1  24
ATOM     24  N   UNL     1      -5.132  -0.510 126.278  0.00  0.00    +0.000 NA
ATOM     25  H   UNL     1      -5.096  -0.373 125.282  0.00  0.00    +0.000 HD
ATOM     26  H   UNL     1      -4.296  -0.932 126.650  0.00  0.00    +0.000 HD
ENDBRANCH   1  24
TORSDOF 5
ENDMDL
MODEL 4
REMARK VINA RESULT:      -6.8      1.520      2.065
REMARK  Name = Saxagliptin
REMARK  5 active torsions:
REMARK  status: ('A' for Active; 'I' for Inactive)
REMARK    1  A    between atoms: C_7  and  C_9
REMARK    2  A    between atoms: C_11  and  C_13
REMARK    3  A    between atoms: C_13  and  N_14
REMARK    4  A    between atoms: C_13  and  C_15
REMARK    5  A    between atoms: C_21  and  O_22
REMARK                            x       y       z     vdW  Elec       q    Type
REMARK                         _______ _______ _______ _____ _____    ______ ____
ROOT
ATOM      1  C   UNL     1     -10.158   6.295 130.897  0.00  0.00    +0.000 C 
ENDROOT
BRANCH   1   2
ATOM      2  C   UNL     1      -8.858   6.169 131.552  0.00  0.00    +0.000 C 
ATOM      3  C   UNL     1      -8.836   5.872 133.110  0.00  0.00    +0.000 C 
ATOM      4  C   UNL     1      -7.662   4.461 133.302  0.00  0.00    +0.000 C 
ATOM      5  C   UNL     1      -7.833   3.115 131.866  0.00  0.00    +0.000 C 
ATOM      6  C   UNL     1      -7.899   3.919 130.465  0.00  0.00    +0.000 C 
ATOM      7  C   UNL     1      -6.624   4.667 130.163  0.00  0.00    +0.000 C 
ATOM      8  C   UNL     1      -6.446   6.062 131.133  0.00  0.00    +0.000 C 
ATOM      9  C   UNL     1      -6.567   5.798 132.983  0.00  0.00    +0.000 C 
ATOM     10  C   UNL     1      -7.645   7.007 131.134  0.00  0.00    +0.000 C 
ATOM     11  C   UNL     1      -8.688   4.781 131.250  0.00  0.00    +0.000 C 
BRANCH   8  12
ATOM     12  O   UNL     1      -5.587   6.791 130.278  0.00  0.00    +0.000 OA
ATOM     13  H   UNL     1      -5.251   6.084 129.659  0.00  0.00    +0.000 HD
ENDBRANCH   8  12
ENDBRANCH   1   2
BRANCH   1  20
ATOM     14  C   UNL     1     -12.431   8.299 127.285  0.00  0.00    +0.000 C 
ATOM     15  C   UNL     1     -11.785   7.171 126.538  0.00  0.00    +0.000 C 
ATOM     16  C   UNL     1     -10.970   7.983 127.514  0.00  0.00    +0.000 C 
ATOM     17  N   UNL     1     -10.795   7.765 128.930  0.00  0.00    +0.000 N 
ATOM     18  C   UNL     1     -11.965   8.155 129.638  0.00  0.00    +0.000 C 
ATOM     19  C   UNL     1     -13.114   8.086 128.611  0.00  0.00    +0.000 C 
ATOM     20  C   UNL     1     -10.215   6.563 129.293  0.00  0.00    +0.000 C 
ATOM     21  O   UNL     1     -10.019   5.780 128.437  0.00  0.00    +0.000 OA
BRANCH  18  22
ATOM     22  C   UNL     1     -12.348   7.434 130.920  0.00  0.00    +0.000 C 
ATOM     23  N   UNL     1     -12.665   6.836 131.983  0.00  0.00    +0.000 NA
ENDBRANCH  18  22
ENDBRANCH   1  20
BRANCH   1  24
ATOM     24  N   UNL     1     -10.543   4.887 130.970  0.00  0.00    +0.000 NA
ATOM     25  H   UNL     1     -11.232   4.557 130.315  0.00  0.00    +0.000 HD
ATOM     26  H   UNL     1     -10.582   4.411 131.858  0.00  0.00    +0.000 HD
ENDBRANCH   1  24
TORSDOF 5
ENDMDL
MODEL 5
REMARK VINA RESULT:      -6.8      7.886     10.573
REMARK  Name = Saxagliptin
REMARK  5 active torsions:
REMARK  status: ('A' for Active; 'I' for Inactive)
REMARK    1  A    between atoms: C_7  and  C_9
REMARK    2  A    between atoms: C_11  and  C_13
REMARK    3  A    between atoms: C_13  and  N_14
REMARK    4  A    between atoms: C_13  and  C_15
REMARK    5  A    between atoms: C_21  and  O_22
REMARK                            x       y       z     vdW  Elec       q    Type
REMARK                         _______ _______ _______ _____ _____    ______ ____
ROOT
ATOM      1  C   UNL     1      -6.194  -1.210 127.361  0.00  0.00    +0.000 C 
ENDROOT
BRANCH   1   2
ATOM      2  C   UNL     1      -6.318  -1.431 125.921  0.00  0.00    +0.000 C 
ATOM      3  C   UNL     1      -5.690  -2.756 125.316  0.00  0.00    +0.000 C 
ATOM      4  C   UNL     1      -7.030  -3.475 124.271  0.00  0.00    +0.000 C 
ATOM      5  C   UNL     1      -8.819  -3.310 125.091  0.00  0.00    +0.000 C 
ATOM      6  C   UNL     1      -8.954  -1.794 125.637  0.00  0.00    +0.000 C 
ATOM      7  C   UNL     1      -8.926  -0.771 124.528  0.00  0.00    +0.000 C 
ATOM      8  C   UNL     1      -7.359  -0.562 123.881  0.00  0.00    +0.000 C 
ATOM      9  C   UNL     1      -6.500  -2.118 123.289  0.00  0.00    +0.000 C 
ATOM     10  C   UNL     1      -6.265  -0.283 124.908  0.00  0.00    +0.000 C 
ATOM     11  C   UNL     1      -7.613  -2.035 125.989  0.00  0.00    +0.000 C 
BRANCH   8  12
ATOM     12  O   UNL     1      -7.527   0.745 123.370  0.00  0.00    +0.000 OA
ATOM     13  H   UNL     1      -6.949   0.734 122.556  0.00  0.00    +0.000 HD
ENDBRANCH   8  12
ENDBRANCH   1   2
BRANCH   1  20
ATOM     14  C   UNL     1      -6.616  -3.561 131.426  0.00  0.00    +0.000 C 
ATOM     15  C   UNL     1      -5.162  -3.825 131.171  0.00  0.00    +0.000 C 
ATOM     16  C   UNL     1      -6.158  -3.989 130.049  0.00  0.00    +0.000 C 
ATOM     17  N   UNL     1      -6.623  -2.993 129.114  0.00  0.00    +0.000 N 
ATOM     18  C   UNL     1      -7.537  -2.108 129.748  0.00  0.00    +0.000 C 
ATOM     19  C   UNL     1      -7.217  -2.190 131.255  0.00  0.00    +0.000 C 
ATOM     20  C   UNL     1      -5.657  -2.421 128.305  0.00  0.00    +0.000 C 
ATOM     21  O   UNL     1      -4.536  -2.707 128.521  0.00  0.00    +0.000 OA
BRANCH  18  22
ATOM     22  C   UNL     1      -7.623  -0.659 129.296  0.00  0.00    +0.000 C 
ATOM     23  N   UNL     1      -7.694   0.542 128.922  0.00  0.00    +0.000 NA
ENDBRANCH  18  22
ENDBRANCH   1  20
BRANCH   1  24
ATOM     24  N   UNL     1      -5.024  -0.335 127.317  0.00  0.00    +0.000 NA
ATOM     25  H   UNL     1      -4.578  -0.196 126.426  0.00  0.00    +0.000 HD
ATOM     26  H   UNL     1      -4.379  -0.301 128.092  0.00  0.00    +0.000 HD
ENDBRANCH   1  24
TORSDOF 5
ENDMDL
MODEL 6
REMARK VINA RESULT:      -6.8      7.881      9.394
REMARK  Name = Saxagliptin
REMARK  5 active torsions:
REMARK  status: ('A' for Active; 'I' for Inactive)
REMARK    1  A    between atoms: C_7  and  C_9
REMARK    2  A    between atoms: C_11  and  C_13
REMARK    3  A    between atoms: C_13  and  N_14
REMARK    4  A    between atoms: C_13  and  C_15
REMARK    5  A    between atoms: C_21  and  O_22
REMARK                            x       y       z     vdW  Elec       q    Type
REMARK                         _______ _______ _______ _____ _____    ______ ____
ROOT
ATOM      1  C   UNL     1      -7.967   0.679 124.943  0.00  0.00    +0.000 C 
ENDROOT
BRANCH   1   2
ATOM      2  C   UNL     1      -7.725  -0.713 124.568  0.00  0.00    +0.000 C 
ATOM      3  C   UNL     1      -6.221  -1.183 124.392  0.00  0.00    +0.000 C 
ATOM      4  C   UNL     1      -6.099  -2.742 125.373  0.00  0.00    +0.000 C 
ATOM      5  C   UNL     1      -7.097  -2.661 127.075  0.00  0.00    +0.000 C 
ATOM      6  C   UNL     1      -8.549  -2.031 126.746  0.00  0.00    +0.000 C 
ATOM      7  C   UNL     1      -9.374  -2.913 125.840  0.00  0.00    +0.000 C 
ATOM      8  C   UNL     1      -8.821  -2.877 124.224  0.00  0.00    +0.000 C 
ATOM      9  C   UNL     1      -7.009  -3.274 123.966  0.00  0.00    +0.000 C 
ATOM     10  C   UNL     1      -8.657  -1.482 123.626  0.00  0.00    +0.000 C 
ATOM     11  C   UNL     1      -7.764  -1.222 125.904  0.00  0.00    +0.000 C 
BRANCH   8  12
ATOM     12  O   UNL     1     -10.029  -3.251 123.592  0.00  0.00    +0.000 OA
ATOM     13  H   UNL     1     -10.305  -4.055 124.117  0.00  0.00    +0.000 HD
ENDBRANCH   8  12
ENDBRANCH   1   2
BRANCH   1  20
ATOM     14  C   UNL     1      -5.572   4.652 125.784  0.00  0.00    +0.000 C 
ATOM     15  C   UNL     1      -5.800   4.842 124.314  0.00  0.00    +0.000 C 
ATOM     16  C   UNL     1      -5.329   3.504 124.830  0.00  0.00    +0.000 C 
ATOM     17  N   UNL     1      -6.127   2.391 125.286  0.00  0.00    +0.000 N 
ATOM     18  C   UNL     1      -6.658   2.661 126.577  0.00  0.00    +0.000 C 
ATOM     19  C   UNL     1      -6.672   4.197 126.708  0.00  0.00    +0.000 C 
ATOM     20  C   UNL     1      -6.989   1.840 124.357  0.00  0.00    +0.000 C 
ATOM     21  O   UNL     1      -7.084   2.388 123.319  0.00  0.00    +0.000 OA
BRANCH  18  22
ATOM     22  C   UNL     1      -8.003   2.077 126.977  0.00  0.00    +0.000 C 
ATOM     23  N   UNL     1      -9.118   1.592 127.309  0.00  0.00    +0.000 NA
ENDBRANCH  18  22
ENDBRANCH   1  20
BRANCH   1  24
ATOM     24  N   UNL     1      -9.174   0.883 124.144  0.00  0.00    +0.000 NA
ATOM     25  H   UNL     1     -10.025   1.104 124.633  0.00  0.00    +0.000 HD
ATOM     26  H   UNL     1      -9.327   0.351 123.302  0.00  0.00    +0.000 HD
ENDBRANCH   1  24
TORSDOF 5
ENDMDL
MODEL 7
REMARK VINA RESULT:      -6.7      8.270     10.827
REMARK  Name = Saxagliptin
REMARK  5 active torsions:
REMARK  status: ('A' for Active; 'I' for Inactive)
REMARK    1  A    between atoms: C_7  and  C_9
REMARK    2  A    between atoms: C_11  and  C_13
REMARK    3  A    between atoms: C_13  and  N_14
REMARK    4  A    between atoms: C_13  and  C_15
REMARK    5  A    between atoms: C_21  and  O_22
REMARK                            x       y       z     vdW  Elec       q    Type
REMARK                         _______ _______ _______ _____ _____    ______ ____
ROOT
ATOM      1  C   UNL     1      -6.892  -1.576 127.650  0.00  0.00    +0.000 C 
ENDROOT
BRANCH   1   2
ATOM      2  C   UNL     1      -6.949  -1.254 126.226  0.00  0.00    +0.000 C 
ATOM      3  C   UNL     1      -5.578  -1.090 125.446  0.00  0.00    +0.000 C 
ATOM      4  C   UNL     1      -5.771  -2.131 123.934  0.00  0.00    +0.000 C 
ATOM      5  C   UNL     1      -6.710  -3.833 124.284  0.00  0.00    +0.000 C 
ATOM      6  C   UNL     1      -8.003  -3.486 125.190  0.00  0.00    +0.000 C 
ATOM      7  C   UNL     1      -9.004  -2.619 124.467  0.00  0.00    +0.000 C 
ATOM      8  C   UNL     1      -8.475  -1.000 124.327  0.00  0.00    +0.000 C 
ATOM      9  C   UNL     1      -6.789  -0.750 123.552  0.00  0.00    +0.000 C 
ATOM     10  C   UNL     1      -8.033  -0.347 125.634  0.00  0.00    +0.000 C 
ATOM     11  C   UNL     1      -7.076  -2.609 125.786  0.00  0.00    +0.000 C 
BRANCH   8  12
ATOM     12  O   UNL     1      -9.742  -0.388 124.189  0.00  0.00    +0.000 OA
ATOM     13  H   UNL     1      -9.853  -0.345 123.197  0.00  0.00    +0.000 HD
ENDBRANCH   8  12
ENDBRANCH   1   2
BRANCH   1  20
ATOM     14  C   UNL     1      -3.968  -3.212 130.968  0.00  0.00    +0.000 C 
ATOM     15  C   UNL     1      -3.578  -1.765 131.027  0.00  0.00    +0.000 C 
ATOM     16  C   UNL     1      -3.721  -2.445 129.688  0.00  0.00    +0.000 C 
ATOM     17  N   UNL     1      -4.907  -2.576 128.875  0.00  0.00    +0.000 N 
ATOM     18  C   UNL     1      -5.778  -3.556 129.425  0.00  0.00    +0.000 C 
ATOM     19  C   UNL     1      -5.409  -3.645 130.920  0.00  0.00    +0.000 C 
ATOM     20  C   UNL     1      -5.485  -1.394 128.448  0.00  0.00    +0.000 C 
ATOM     21  O   UNL     1      -5.035  -0.392 128.871  0.00  0.00    +0.000 OA
BRANCH  18  22
ATOM     22  C   UNL     1      -7.281  -3.414 129.251  0.00  0.00    +0.000 C 
ATOM     23  N   UNL     1      -8.527  -3.297 129.106  0.00  0.00    +0.000 NA
ENDBRANCH  18  22
ENDBRANCH   1  20
BRANCH   1  24
ATOM     24  N   UNL     1      -7.652  -0.426 128.135  0.00  0.00    +0.000 NA
ATOM     25  H   UNL     1      -7.450  -0.090 129.062  0.00  0.00    +0.000 HD
ATOM     26  H   UNL     1      -8.616  -0.300 127.870  0.00  0.00    +0.000 HD
ENDBRANCH   1  24
TORSDOF 5
ENDMDL
MODEL 8
REMARK VINA RESULT:      -6.7      8.161      9.492
REMARK  Name = Saxagliptin
REMARK  5 active torsions:
REMARK  status: ('A' for Active; 'I' for Inactive)
REMARK    1  A    between atoms: C_7  and  C_9
REMARK    2  A    between atoms: C_11  and  C_13
REMARK    3  A    between atoms: C_13  and  N_14
REMARK    4  A    between atoms: C_13  and  C_15
REMARK    5  A    between atoms: C_21  and  O_22
REMARK                            x       y       z     vdW  Elec       q    Type
REMARK                         _______ _______ _______ _____ _____    ______ ____
ROOT
ATOM      1  C   UNL     1      -8.563   0.436 125.155  0.00  0.00    +0.000 C 
ENDROOT
BRANCH   1   2
ATOM      2  C   UNL     1      -8.459  -1.006 125.370  0.00  0.00    +0.000 C 
ATOM      3  C   UNL     1      -8.990  -1.967 124.225  0.00  0.00    +0.000 C 
ATOM      4  C   UNL     1      -7.622  -3.177 123.958  0.00  0.00    +0.000 C 
ATOM      5  C   UNL     1      -5.832  -2.347 124.038  0.00  0.00    +0.000 C 
ATOM      6  C   UNL     1      -5.810  -1.387 125.338  0.00  0.00    +0.000 C 
ATOM      7  C   UNL     1      -5.954  -2.153 126.630  0.00  0.00    +0.000 C 
ATOM      8  C   UNL     1      -7.550  -2.710 126.877  0.00  0.00    +0.000 C 
ATOM      9  C   UNL     1      -8.291  -3.724 125.488  0.00  0.00    +0.000 C 
ATOM     10  C   UNL     1      -8.636  -1.644 126.752  0.00  0.00    +0.000 C 
ATOM     11  C   UNL     1      -7.117  -1.118 124.888  0.00  0.00    +0.000 C 
BRANCH   8  12
ATOM     12  O   UNL     1      -7.507  -2.821 128.286  0.00  0.00    +0.000 OA
ATOM     13  H   UNL     1      -8.296  -2.278 128.568  0.00  0.00    +0.000 HD
ENDBRANCH   8  12
ENDBRANCH   1   2
BRANCH   1  20
ATOM     14  C   UNL     1      -6.258   3.827 122.827  0.00  0.00    +0.000 C 
ATOM     15  C   UNL     1      -7.279   3.497 121.779  0.00  0.00    +0.000 C 
ATOM     16  C   UNL     1      -6.550   2.382 122.487  0.00  0.00    +0.000 C 
ATOM     17  N   UNL     1      -6.912   1.718 123.717  0.00  0.00    +0.000 N 
ATOM     18  C   UNL     1      -6.637   2.557 124.831  0.00  0.00    +0.000 C 
ATOM     19  C   UNL     1      -6.632   3.996 124.276  0.00  0.00    +0.000 C 
ATOM     20  C   UNL     1      -8.127   1.057 123.716  0.00  0.00    +0.000 C 
ATOM     21  O   UNL     1      -8.808   1.184 122.764  0.00  0.00    +0.000 OA
BRANCH  18  22
ATOM     22  C   UNL     1      -7.502   2.465 126.077  0.00  0.00    +0.000 C 
ATOM     23  N   UNL     1      -8.220   2.390 127.110  0.00  0.00    +0.000 NA
ENDBRANCH  18  22
ENDBRANCH   1  20
BRANCH   1  24
ATOM     24  N   UNL     1     -10.020   0.511 125.075  0.00  0.00    +0.000 NA
ATOM     25  H   UNL     1     -10.426   0.777 124.194  0.00  0.00    +0.000 HD
ATOM     26  H   UNL     1     -10.563   0.815 125.869  0.00  0.00    +0.000 HD
ENDBRANCH   1  24
TORSDOF 5
ENDMDL
MODEL 9
REMARK VINA RESULT:      -6.7      7.734      9.513
REMARK  Name = Saxagliptin
REMARK  5 active torsions:
REMARK  status: ('A' for Active; 'I' for Inactive)
REMARK    1  A    between atoms: C_7  and  C_9
REMARK    2  A    between atoms: C_11  and  C_13
REMARK    3  A    between atoms: C_13  and  N_14
REMARK    4  A    between atoms: C_13  and  C_15
REMARK    5  A    between atoms: C_21  and  O_22
REMARK                            x       y       z     vdW  Elec       q    Type
REMARK                         _______ _______ _______ _____ _____    ______ ____
ROOT
ATOM      1  C   UNL     1      -7.164  -1.393 127.437  0.00  0.00    +0.000 C 
ENDROOT
BRANCH   1   2
ATOM      2  C   UNL     1      -7.156  -1.880 128.815  0.00  0.00    +0.000 C 
ATOM      3  C   UNL     1      -7.658  -3.361 129.081  0.00  0.00    +0.000 C 
ATOM      4  C   UNL     1      -6.345  -4.119 130.133  0.00  0.00    +0.000 C 
ATOM      5  C   UNL     1      -4.521  -3.594 129.588  0.00  0.00    +0.000 C 
ATOM      6  C   UNL     1      -4.537  -1.995 129.352  0.00  0.00    +0.000 C 
ATOM      7  C   UNL     1      -4.813  -1.223 130.619  0.00  0.00    +0.000 C 
ATOM      8  C   UNL     1      -6.451  -1.325 131.094  0.00  0.00    +0.000 C 
ATOM      9  C   UNL     1      -7.149  -3.053 131.276  0.00  0.00    +0.000 C 
ATOM     10  C   UNL     1      -7.463  -0.970 130.008  0.00  0.00    +0.000 C 
ATOM     11  C   UNL     1      -5.791  -2.310 128.798  0.00  0.00    +0.000 C 
BRANCH   8  12
ATOM     12  O   UNL     1      -6.512  -0.134 131.854  0.00  0.00    +0.000 OA
ATOM     13  H   UNL     1      -6.336  -0.462 132.781  0.00  0.00    +0.000 HD
ENDBRANCH   8  12
ENDBRANCH   1   2
BRANCH   1  20
ATOM     14  C   UNL     1      -7.736  -2.818 122.979  0.00  0.00    +0.000 C 
ATOM     15  C   UNL     1      -9.180  -2.627 123.334  0.00  0.00    +0.000 C 
ATOM     16  C   UNL     1      -8.266  -3.353 124.291  0.00  0.00    +0.000 C 
ATOM     17  N   UNL     1      -7.449  -2.795 125.342  0.00  0.00    +0.000 N 
ATOM     18  C   UNL     1      -6.305  -2.154 124.792  0.00  0.00    +0.000 C 
ATOM     19  C   UNL     1      -6.687  -1.799 123.341  0.00  0.00    +0.000 C 
ATOM     20  C   UNL     1      -8.123  -2.121 126.344  0.00  0.00    +0.000 C 
ATOM     21  O   UNL     1      -9.281  -1.961 126.199  0.00  0.00    +0.000 OA
BRANCH  18  22
ATOM     22  C   UNL     1      -5.701  -0.951 125.498  0.00  0.00    +0.000 C 
ATOM     23  N   UNL     1      -5.201   0.046 126.083  0.00  0.00    +0.000 NA
ENDBRANCH  18  22
ENDBRANCH   1  20
BRANCH   1  24
ATOM     24  N   UNL     1      -7.892  -0.149 127.681  0.00  0.00    +0.000 NA
ATOM     25  H   UNL     1      -7.835   0.570 126.979  0.00  0.00    +0.000 HD
ATOM     26  H   UNL     1      -7.984   0.217 128.615  0.00  0.00    +0.000 HD
ENDBRANCH   1  24
TORSDOF 5
ENDMDL
