MODEL 1
REMARK VINA RESULT:      -7.5      0.000      0.000
REMARK  Name = Scopolamine
REMARK  7 active torsions:
REMARK  status: ('A' for Active; 'I' for Inactive)
REMARK    1  A    between atoms: C_1  and  N_2
REMARK    2  A    between atoms: C_5  and  O_11
REMARK    3  A    between atoms: O_11  and  C_12
REMARK    4  A    between atoms: C_12  and  C_14
REMARK    5  A    between atoms: C_14  and  C_15
REMARK    6  A    between atoms: C_14  and  C_17
REMARK    7  A    between atoms: C_15  and  O_16
REMARK                            x       y       z     vdW  Elec       q    Type
REMARK                         _______ _______ _______ _____ _____    ______ ____
ROOT
ATOM      1  C   UNL     1     -10.426   4.551 130.724  0.00  0.00    +0.000 C 
ATOM      2  O   UNL     1     -10.760   3.549 130.069  0.00  0.00    +0.000 OA
ENDROOT
BRANCH   1   3
ATOM      3  O   UNL     1     -11.178   5.658 130.536  0.00  0.00    +0.000 OA
BRANCH   3   8
ATOM      4  C   UNL     1     -12.860   9.381 129.363  0.00  0.00    +0.000 C 
ATOM      5  N   UNL     1     -12.377   8.784 128.139  0.00  0.00    +0.000 NA
ATOM      6  C   UNL     1     -13.008   7.491 127.797  0.00  0.00    +0.000 C 
ATOM      7  C   UNL     1     -12.839   6.480 128.941  0.00  0.00    +0.000 C 
ATOM      8  C   UNL     1     -11.376   6.330 129.292  0.00  0.00    +0.000 C 
ATOM      9  C   UNL     1     -10.526   7.612 129.271  0.00  0.00    +0.000 C 
ATOM     10  C   UNL     1     -10.921   8.539 128.119  0.00  0.00    +0.000 C 
ATOM     11  C   UNL     1     -10.846   7.921 126.737  0.00  0.00    +0.000 C 
ATOM     12  O   UNL     1     -10.998   6.519 126.617  0.00  0.00    +0.000 OA
ATOM     13  C   UNL     1     -12.212   7.223 126.523  0.00  0.00    +0.000 C 
ENDBRANCH   3   8
ENDBRANCH   1   3
BRANCH   1  14
ATOM     14  C   UNL     1      -9.133   4.589 131.564  0.00  0.00    +0.000 C 
BRANCH  14  15
ATOM     15  C   UNL     1      -7.903   5.265 130.942  0.00  0.00    +0.000 A 
ATOM     16  C   UNL     1      -7.054   4.583 130.063  0.00  0.00    +0.000 A 
ATOM     17  C   UNL     1      -5.722   4.968 129.927  0.00  0.00    +0.000 A 
ATOM     18  C   UNL     1      -5.303   6.194 130.415  0.00  0.00    +0.000 A 
ATOM     19  C   UNL     1      -6.222   7.018 131.056  0.00  0.00    +0.000 A 
ATOM     20  C   UNL     1      -7.496   6.537 131.370  0.00  0.00    +0.000 A 
ENDBRANCH  14  15
BRANCH  14  21
ATOM     21  C   UNL     1      -9.368   5.180 132.973  0.00  0.00    +0.000 C 
BRANCH  21  22
ATOM     22  O   UNL     1     -10.314   6.237 133.019  0.00  0.00    +0.000 OA
ATOM     23  H   UNL     1     -11.103   5.965 132.517  0.00  0.00    +0.000 HD
ENDBRANCH  21  22
ENDBRANCH  14  21
ENDBRANCH   1  14
TORSDOF 6
ENDMDL
MODEL 2
REMARK VINA RESULT:      -7.5      2.062      6.484
REMARK  Name = Scopolamine
REMARK  7 active torsions:
REMARK  status: ('A' for Active; 'I' for Inactive)
REMARK    1  A    between atoms: C_1  and  N_2
REMARK    2  A    between atoms: C_5  and  O_11
REMARK    3  A    between atoms: O_11  and  C_12
REMARK    4  A    between atoms: C_12  and  C_14
REMARK    5  A    between atoms: C_14  and  C_15
REMARK    6  A    between atoms: C_14  and  C_17
REMARK    7  A    between atoms: C_15  and  O_16
REMARK                            x       y       z     vdW  Elec       q    Type
REMARK                         _______ _______ _______ _____ _____    ______ ____
ROOT
ATOM      1  C   UNL     1     -10.711   7.484 128.320  0.00  0.00    +0.000 C 
ATOM      2  O   UNL     1     -10.162   8.463 127.785  0.00  0.00    +0.000 OA
ENDROOT
BRANCH   1   3
ATOM      3  O   UNL     1      -9.903   6.443 128.620  0.00  0.00    +0.000 OA
BRANCH   3   8
ATOM      4  C   UNL     1      -6.451   4.874 130.542  0.00  0.00    +0.000 C 
ATOM      5  N   UNL     1      -7.462   4.934 131.573  0.00  0.00    +0.000 NA
ATOM      6  C   UNL     1      -8.660   4.109 131.307  0.00  0.00    +0.000 C 
ATOM      7  C   UNL     1      -9.300   4.491 129.964  0.00  0.00    +0.000 C 
ATOM      8  C   UNL     1      -9.605   5.972 129.935  0.00  0.00    +0.000 C 
ATOM      9  C   UNL     1      -8.564   6.904 130.579  0.00  0.00    +0.000 C 
ATOM     10  C   UNL     1      -7.964   6.294 131.849  0.00  0.00    +0.000 C 
ATOM     11  C   UNL     1      -8.966   5.919 132.923  0.00  0.00    +0.000 C 
ATOM     12  O   UNL     1     -10.287   5.603 132.529  0.00  0.00    +0.000 OA
ATOM     13  C   UNL     1      -9.433   4.486 132.566  0.00  0.00    +0.000 C 
ENDBRANCH   3   8
ENDBRANCH   1   3
BRANCH   1  14
ATOM     14  C   UNL     1     -12.243   7.384 128.474  0.00  0.00    +0.000 C 
BRANCH  14  15
ATOM     15  C   UNL     1     -12.975   8.591 129.076  0.00  0.00    +0.000 A 
ATOM     16  C   UNL     1     -13.690   9.491 128.278  0.00  0.00    +0.000 A 
ATOM     17  C   UNL     1     -13.886  10.805 128.698  0.00  0.00    +0.000 A 
ATOM     18  C   UNL     1     -13.651  11.151 130.017  0.00  0.00    +0.000 A 
ATOM     19  C   UNL     1     -13.199  10.180 130.903  0.00  0.00    +0.000 A 
ATOM     20  C   UNL     1     -12.808   8.925 130.428  0.00  0.00    +0.000 A 
ENDBRANCH  14  15
BRANCH  14  21
ATOM     21  C   UNL     1     -12.938   6.985 127.154  0.00  0.00    +0.000 C 
BRANCH  21  22
ATOM     22  O   UNL     1     -12.051   6.665 126.092  0.00  0.00    +0.000 OA
ATOM     23  H   UNL     1     -12.279   7.221 125.325  0.00  0.00    +0.000 HD
ENDBRANCH  21  22
ENDBRANCH  14  21
ENDBRANCH   1  14
TORSDOF 6
ENDMDL
MODEL 3
REMARK VINA RESULT:      -7.3      8.178     10.159
REMARK  Name = Scopolamine
REMARK  7 active torsions:
REMARK  status: ('A' for Active; 'I' for Inactive)
REMARK    1  A    between atoms: C_1  and  N_2
REMARK    2  A    between atoms: C_5  and  O_11
REMARK    3  A    between atoms: O_11  and  C_12
REMARK    4  A    between atoms: C_12  and  C_14
REMARK    5  A    between atoms: C_14  and  C_15
REMARK    6  A    between atoms: C_14  and  C_17
REMARK    7  A    between atoms: C_15  and  O_16
REMARK                            x       y       z     vdW  Elec       q    Type
REMARK                         _______ _______ _______ _____ _____    ______ ____
ROOT
ATOM      1  C   UNL     1      -8.228   1.936 124.731  0.00  0.00    +0.000 C 
ATOM      2  O   UNL     1      -9.407   2.291 124.899  0.00  0.00    +0.000 OA
ENDROOT
BRANCH   1   3
ATOM      3  O   UNL     1      -7.861   0.789 125.346  0.00  0.00    +0.000 OA
BRANCH   3   8
ATOM      4  C   UNL     1      -5.863  -2.178 123.050  0.00  0.00    +0.000 C 
ATOM      5  N   UNL     1      -7.111  -2.788 123.449  0.00  0.00    +0.000 NA
ATOM      6  C   UNL     1      -8.320  -2.091 122.957  0.00  0.00    +0.000 C 
ATOM      7  C   UNL     1      -8.323  -0.621 123.402  0.00  0.00    +0.000 C 
ATOM      8  C   UNL     1      -8.180  -0.532 124.904  0.00  0.00    +0.000 C 
ATOM      9  C   UNL     1      -7.215  -1.530 125.568  0.00  0.00    +0.000 C 
ATOM     10  C   UNL     1      -7.284  -2.910 124.910  0.00  0.00    +0.000 C 
ATOM     11  C   UNL     1      -8.659  -3.550 124.891  0.00  0.00    +0.000 C 
ATOM     12  O   UNL     1      -9.794  -2.705 124.912  0.00  0.00    +0.000 OA
ATOM     13  C   UNL     1      -9.347  -3.007 123.613  0.00  0.00    +0.000 C 
ENDBRANCH   3   8
ENDBRANCH   1   3
BRANCH   1  14
ATOM     14  C   UNL     1      -7.195   2.831 124.016  0.00  0.00    +0.000 C 
BRANCH  14  15
ATOM     15  C   UNL     1      -7.349   3.020 122.500  0.00  0.00    +0.000 A 
ATOM     16  C   UNL     1      -6.239   3.156 121.659  0.00  0.00    +0.000 A 
ATOM     17  C   UNL     1      -6.352   3.833 120.446  0.00  0.00    +0.000 A 
ATOM     18  C   UNL     1      -7.603   4.110 119.922  0.00  0.00    +0.000 A 
ATOM     19  C   UNL     1      -8.735   3.722 120.630  0.00  0.00    +0.000 A 
ATOM     20  C   UNL     1      -8.614   3.234 121.934  0.00  0.00    +0.000 A 
ENDBRANCH  14  15
BRANCH  14  21
ATOM     21  C   UNL     1      -7.062   4.219 124.681  0.00  0.00    +0.000 C 
BRANCH  21  22
ATOM     22  O   UNL     1      -8.294   4.804 125.075  0.00  0.00    +0.000 OA
ATOM     23  H   UNL     1      -8.513   4.485 125.969  0.00  0.00    +0.000 HD
ENDBRANCH  21  22
ENDBRANCH  14  21
ENDBRANCH   1  14
TORSDOF 6
ENDMDL
MODEL 4
REMARK VINA RESULT:      -7.2      1.431      2.491
REMARK  Name = Scopolamine
REMARK  7 active torsions:
REMARK  status: ('A' for Active; 'I' for Inactive)
REMARK    1  A    between atoms: C_1  and  N_2
REMARK    2  A    between atoms: C_5  and  O_11
REMARK    3  A    between atoms: O_11  and  C_12
REMARK    4  A    between atoms: C_12  and  C_14
REMARK    5  A    between atoms: C_14  and  C_15
REMARK    6  A    between atoms: C_14  and  C_17
REMARK    7  A    between atoms: C_15  and  O_16
REMARK                            x       y       z     vdW  Elec       q    Type
REMARK                         _______ _______ _______ _____ _____    ______ ____
ROOT
ATOM      1  C   UNL     1     -10.490   4.320 130.473  0.00  0.00    +0.000 C 
ATOM      2  O   UNL     1     -11.304   3.399 130.289  0.00  0.00    +0.000 OA
ENDROOT
BRANCH   1   3
ATOM      3  O   UNL     1     -10.988   5.574 130.394  0.00  0.00    +0.000 OA
BRANCH   3   8
ATOM      4  C   UNL     1     -12.778   9.313 129.455  0.00  0.00    +0.000 C 
ATOM      5  N   UNL     1     -12.386   8.752 128.181  0.00  0.00    +0.000 NA
ATOM      6  C   UNL     1     -13.033   7.464 127.852  0.00  0.00    +0.000 C 
ATOM      7  C   UNL     1     -12.771   6.424 128.952  0.00  0.00    +0.000 C 
ATOM      8  C   UNL     1     -11.284   6.278 129.186  0.00  0.00    +0.000 C 
ATOM      9  C   UNL     1     -10.447   7.567 129.137  0.00  0.00    +0.000 C 
ATOM     10  C   UNL     1     -10.935   8.521 128.044  0.00  0.00    +0.000 C 
ATOM     11  C   UNL     1     -10.961   7.941 126.643  0.00  0.00    +0.000 C 
ATOM     12  O   UNL     1     -11.113   6.542 126.497  0.00  0.00    +0.000 OA
ATOM     13  C   UNL     1     -12.335   7.237 126.515  0.00  0.00    +0.000 C 
ENDBRANCH   3   8
ENDBRANCH   1   3
BRANCH   1  14
ATOM     14  C   UNL     1      -8.975   4.062 130.609  0.00  0.00    +0.000 C 
BRANCH  14  15
ATOM     15  C   UNL     1      -8.363   4.159 132.014  0.00  0.00    +0.000 A 
ATOM     16  C   UNL     1      -8.971   3.562 133.124  0.00  0.00    +0.000 A 
ATOM     17  C   UNL     1      -8.749   4.064 134.405  0.00  0.00    +0.000 A 
ATOM     18  C   UNL     1      -7.708   4.947 134.631  0.00  0.00    +0.000 A 
ATOM     19  C   UNL     1      -6.907   5.338 133.563  0.00  0.00    +0.000 A 
ATOM     20  C   UNL     1      -7.264   4.995 132.256  0.00  0.00    +0.000 A 
ENDBRANCH  14  15
BRANCH  14  21
ATOM     21  C   UNL     1      -8.550   2.721 129.971  0.00  0.00    +0.000 C 
BRANCH  21  22
ATOM     22  O   UNL     1      -9.142   2.455 128.707  0.00  0.00    +0.000 OA
ATOM     23  H   UNL     1      -8.471   2.038 128.137  0.00  0.00    +0.000 HD
ENDBRANCH  21  22
ENDBRANCH  14  21
ENDBRANCH   1  14
TORSDOF 6
ENDMDL
MODEL 5
REMARK VINA RESULT:      -6.9      1.734      2.905
REMARK  Name = Scopolamine
REMARK  7 active torsions:
REMARK  status: ('A' for Active; 'I' for Inactive)
REMARK    1  A    between atoms: C_1  and  N_2
REMARK    2  A    between atoms: C_5  and  O_11
REMARK    3  A    between atoms: O_11  and  C_12
REMARK    4  A    between atoms: C_12  and  C_14
REMARK    5  A    between atoms: C_14  and  C_15
REMARK    6  A    between atoms: C_14  and  C_17
REMARK    7  A    between atoms: C_15  and  O_16
REMARK                            x       y       z     vdW  Elec       q    Type
REMARK                         _______ _______ _______ _____ _____    ______ ____
ROOT
ATOM      1  C   UNL     1     -10.124   5.814 131.394  0.00  0.00    +0.000 C 
ATOM      2  O   UNL     1     -10.338   6.680 132.258  0.00  0.00    +0.000 OA
ENDROOT
BRANCH   1   3
ATOM      3  O   UNL     1     -11.133   5.581 130.525  0.00  0.00    +0.000 OA
BRANCH   3   8
ATOM      4  C   UNL     1     -12.879   9.301 129.440  0.00  0.00    +0.000 C 
ATOM      5  N   UNL     1     -12.397   8.735 128.201  0.00  0.00    +0.000 NA
ATOM      6  C   UNL     1     -13.012   7.440 127.837  0.00  0.00    +0.000 C 
ATOM      7  C   UNL     1     -12.819   6.409 128.959  0.00  0.00    +0.000 C 
ATOM      8  C   UNL     1     -11.351   6.274 129.296  0.00  0.00    +0.000 C 
ATOM      9  C   UNL     1     -10.520   7.569 129.295  0.00  0.00    +0.000 C 
ATOM     10  C   UNL     1     -10.938   8.512 128.165  0.00  0.00    +0.000 C 
ATOM     11  C   UNL     1     -10.865   7.923 126.769  0.00  0.00    +0.000 C 
ATOM     12  O   UNL     1     -10.998   6.522 126.623  0.00  0.00    +0.000 OA
ATOM     13  C   UNL     1     -12.223   7.210 126.553  0.00  0.00    +0.000 C 
ENDBRANCH   3   8
ENDBRANCH   1   3
BRANCH   1  14
ATOM     14  C   UNL     1      -8.858   4.931 131.412  0.00  0.00    +0.000 C 
BRANCH  14  15
ATOM     15  C   UNL     1      -9.026   3.445 131.065  0.00  0.00    +0.000 A 
ATOM     16  C   UNL     1      -9.812   2.591 131.847  0.00  0.00    +0.000 A 
ATOM     17  C   UNL     1      -9.556   1.222 131.872  0.00  0.00    +0.000 A 
ATOM     18  C   UNL     1      -8.737   0.654 130.912  0.00  0.00    +0.000 A 
ATOM     19  C   UNL     1      -8.163   1.469 129.943  0.00  0.00    +0.000 A 
ATOM     20  C   UNL     1      -8.257   2.859 130.050  0.00  0.00    +0.000 A 
ENDBRANCH  14  15
BRANCH  14  21
ATOM     21  C   UNL     1      -7.722   5.521 130.547  0.00  0.00    +0.000 C 
BRANCH  21  22
ATOM     22  O   UNL     1      -7.547   6.924 130.679  0.00  0.00    +0.000 OA
ATOM     23  H   UNL     1      -7.919   7.354 129.888  0.00  0.00    +0.000 HD
ENDBRANCH  21  22
ENDBRANCH  14  21
ENDBRANCH   1  14
TORSDOF 6
ENDMDL
MODEL 6
REMARK VINA RESULT:      -6.7      2.869      6.341
REMARK  Name = Scopolamine
REMARK  7 active torsions:
REMARK  status: ('A' for Active; 'I' for Inactive)
REMARK    1  A    between atoms: C_1  and  N_2
REMARK    2  A    between atoms: C_5  and  O_11
REMARK    3  A    between atoms: O_11  and  C_12
REMARK    4  A    between atoms: C_12  and  C_14
REMARK    5  A    between atoms: C_14  and  C_15
REMARK    6  A    between atoms: C_14  and  C_17
REMARK    7  A    between atoms: C_15  and  O_16
REMARK                            x       y       z     vdW  Elec       q    Type
REMARK                         _______ _______ _______ _____ _____    ______ ____
ROOT
ATOM      1  C   UNL     1      -9.170   5.545 130.265  0.00  0.00    +0.000 C 
ATOM      2  O   UNL     1      -9.496   4.863 129.279  0.00  0.00    +0.000 OA
ENDROOT
BRANCH   1   3
ATOM      3  O   UNL     1      -8.062   5.139 130.926  0.00  0.00    +0.000 OA
BRANCH   3   8
ATOM      4  C   UNL     1      -4.577   5.992 133.204  0.00  0.00    +0.000 C 
ATOM      5  N   UNL     1      -4.162   6.104 131.824  0.00  0.00    +0.000 NA
ATOM      6  C   UNL     1      -4.873   7.146 131.052  0.00  0.00    +0.000 C 
ATOM      7  C   UNL     1      -6.391   6.917 131.095  0.00  0.00    +0.000 C 
ATOM      8  C   UNL     1      -6.721   5.521 130.616  0.00  0.00    +0.000 C 
ATOM      9  C   UNL     1      -5.765   4.397 131.052  0.00  0.00    +0.000 C 
ATOM     10  C   UNL     1      -4.306   4.857 131.047  0.00  0.00    +0.000 C 
ATOM     11  C   UNL     1      -3.802   5.395 129.721  0.00  0.00    +0.000 C 
ATOM     12  O   UNL     1      -4.739   5.963 128.826  0.00  0.00    +0.000 OA
ATOM     13  C   UNL     1      -4.180   6.897 129.716  0.00  0.00    +0.000 C 
ENDBRANCH   3   8
ENDBRANCH   1   3
BRANCH   1  14
ATOM     14  C   UNL     1     -10.063   6.678 130.813  0.00  0.00    +0.000 C 
BRANCH  14  15
ATOM     15  C   UNL     1     -11.124   7.263 129.871  0.00  0.00    +0.000 A 
ATOM     16  C   UNL     1     -12.467   6.876 129.944  0.00  0.00    +0.000 A 
ATOM     17  C   UNL     1     -13.290   6.968 128.823  0.00  0.00    +0.000 A 
ATOM     18  C   UNL     1     -12.887   7.713 127.729  0.00  0.00    +0.000 A 
ATOM     19  C   UNL     1     -11.649   8.345 127.758  0.00  0.00    +0.000 A 
ATOM     20  C   UNL     1     -10.749   8.077 128.793  0.00  0.00    +0.000 A 
ENDBRANCH  14  15
BRANCH  14  21
ATOM     21  C   UNL     1     -10.738   6.295 132.149  0.00  0.00    +0.000 C 
BRANCH  21  22
ATOM     22  O   UNL     1      -9.863   6.271 133.268  0.00  0.00    +0.000 OA
ATOM     23  H   UNL     1     -10.185   5.598 133.894  0.00  0.00    +0.000 HD
ENDBRANCH  21  22
ENDBRANCH  14  21
ENDBRANCH   1  14
TORSDOF 6
ENDMDL
MODEL 7
REMARK VINA RESULT:      -6.5      8.100      9.944
REMARK  Name = Scopolamine
REMARK  7 active torsions:
REMARK  status: ('A' for Active; 'I' for Inactive)
REMARK    1  A    between atoms: C_1  and  N_2
REMARK    2  A    between atoms: C_5  and  O_11
REMARK    3  A    between atoms: O_11  and  C_12
REMARK    4  A    between atoms: C_12  and  C_14
REMARK    5  A    between atoms: C_14  and  C_15
REMARK    6  A    between atoms: C_14  and  C_17
REMARK    7  A    between atoms: C_15  and  O_16
REMARK                            x       y       z     vdW  Elec       q    Type
REMARK                         _______ _______ _______ _____ _____    ______ ____
ROOT
ATOM      1  C   UNL     1      -6.224   2.157 125.436  0.00  0.00    +0.000 C 
ATOM      2  O   UNL     1      -5.086   1.958 125.895  0.00  0.00    +0.000 OA
ENDROOT
BRANCH   1   3
ATOM      3  O   UNL     1      -7.077   1.110 125.495  0.00  0.00    +0.000 OA
BRANCH   3   8
ATOM      4  C   UNL     1      -9.247  -1.569 123.008  0.00  0.00    +0.000 C 
ATOM      5  N   UNL     1      -7.983  -2.226 123.259  0.00  0.00    +0.000 NA
ATOM      6  C   UNL     1      -7.714  -2.516 124.684  0.00  0.00    +0.000 C 
ATOM      7  C   UNL     1      -7.779  -1.233 125.525  0.00  0.00    +0.000 C 
ATOM      8  C   UNL     1      -6.836  -0.193 124.962  0.00  0.00    +0.000 C 
ATOM      9  C   UNL     1      -6.746  -0.099 123.429  0.00  0.00    +0.000 C 
ATOM     10  C   UNL     1      -6.807  -1.480 122.770  0.00  0.00    +0.000 C 
ATOM     11  C   UNL     1      -5.748  -2.463 123.229  0.00  0.00    +0.000 C 
ATOM     12  O   UNL     1      -5.203  -2.308 124.526  0.00  0.00    +0.000 OA
ATOM     13  C   UNL     1      -6.336  -3.141 124.492  0.00  0.00    +0.000 C 
ENDBRANCH   3   8
ENDBRANCH   1   3
BRANCH   1  14
ATOM     14  C   UNL     1      -6.592   3.453 124.684  0.00  0.00    +0.000 C 
BRANCH  14  15
ATOM     15  C   UNL     1      -6.086   3.604 123.243  0.00  0.00    +0.000 A 
ATOM     16  C   UNL     1      -4.887   4.265 122.949  0.00  0.00    +0.000 A 
ATOM     17  C   UNL     1      -4.696   4.858 121.703  0.00  0.00    +0.000 A 
ATOM     18  C   UNL     1      -5.541   4.547 120.652  0.00  0.00    +0.000 A 
ATOM     19  C   UNL     1      -6.588   3.658 120.865  0.00  0.00    +0.000 A 
ATOM     20  C   UNL     1      -6.896   3.233 122.160  0.00  0.00    +0.000 A 
ENDBRANCH  14  15
BRANCH  14  21
ATOM     21  C   UNL     1      -8.111   3.734 124.713  0.00  0.00    +0.000 C 
BRANCH  21  22
ATOM     22  O   UNL     1      -8.460   5.046 125.128  0.00  0.00    +0.000 OA
ATOM     23  H   UNL     1      -8.995   5.458 124.425  0.00  0.00    +0.000 HD
ENDBRANCH  21  22
ENDBRANCH  14  21
ENDBRANCH   1  14
TORSDOF 6
ENDMDL
MODEL 8
REMARK VINA RESULT:      -6.5      7.687      9.393
REMARK  Name = Scopolamine
REMARK  7 active torsions:
REMARK  status: ('A' for Active; 'I' for Inactive)
REMARK    1  A    between atoms: C_1  and  N_2
REMARK    2  A    between atoms: C_5  and  O_11
REMARK    3  A    between atoms: O_11  and  C_12
REMARK    4  A    between atoms: C_12  and  C_14
REMARK    5  A    between atoms: C_14  and  C_15
REMARK    6  A    between atoms: C_14  and  C_17
REMARK    7  A    between atoms: C_15  and  O_16
REMARK                            x       y       z     vdW  Elec       q    Type
REMARK                         _______ _______ _______ _____ _____    ______ ____
ROOT
ATOM      1  C   UNL     1      -7.800   2.782 125.087  0.00  0.00    +0.000 C 
ATOM      2  O   UNL     1      -8.859   3.411 124.921  0.00  0.00    +0.000 OA
ENDROOT
BRANCH   1   3
ATOM      3  O   UNL     1      -7.915   1.577 125.691  0.00  0.00    +0.000 OA
BRANCH   3   8
ATOM      4  C   UNL     1      -7.205  -2.444 126.871  0.00  0.00    +0.000 C 
ATOM      5  N   UNL     1      -7.586  -2.521 125.479  0.00  0.00    +0.000 NA
ATOM      6  C   UNL     1      -6.685  -1.800 124.555  0.00  0.00    +0.000 C 
ATOM      7  C   UNL     1      -6.563  -0.321 124.952  0.00  0.00    +0.000 C 
ATOM      8  C   UNL     1      -7.934   0.312 125.029  0.00  0.00    +0.000 C 
ATOM      9  C   UNL     1      -9.061  -0.550 125.624  0.00  0.00    +0.000 C 
ATOM     10  C   UNL     1      -8.943  -2.015 125.195  0.00  0.00    +0.000 C 
ATOM     11  C   UNL     1      -8.930  -2.252 123.697  0.00  0.00    +0.000 C 
ATOM     12  O   UNL     1      -8.459  -1.216 122.857  0.00  0.00    +0.000 OA
ATOM     13  C   UNL     1      -7.449  -2.103 123.270  0.00  0.00    +0.000 C 
ENDBRANCH   3   8
ENDBRANCH   1   3
BRANCH   1  14
ATOM     14  C   UNL     1      -6.420   3.402 124.788  0.00  0.00    +0.000 C 
BRANCH  14  15
ATOM     15  C   UNL     1      -6.098   3.743 123.326  0.00  0.00    +0.000 A 
ATOM     16  C   UNL     1      -6.685   3.049 122.262  0.00  0.00    +0.000 A 
ATOM     17  C   UNL     1      -6.041   2.971 121.030  0.00  0.00    +0.000 A 
ATOM     18  C   UNL     1      -4.981   3.815 120.748  0.00  0.00    +0.000 A 
ATOM     19  C   UNL     1      -4.561   4.720 121.716  0.00  0.00    +0.000 A 
ATOM     20  C   UNL     1      -5.073   4.648 123.014  0.00  0.00    +0.000 A 
ENDBRANCH  14  15
BRANCH  14  21
ATOM     21  C   UNL     1      -6.133   4.642 125.664  0.00  0.00    +0.000 C 
BRANCH  21  22
ATOM     22  O   UNL     1      -6.940   4.741 126.829  0.00  0.00    +0.000 OA
ATOM     23  H   UNL     1      -7.405   5.597 126.808  0.00  0.00    +0.000 HD
ENDBRANCH  21  22
ENDBRANCH  14  21
ENDBRANCH   1  14
TORSDOF 6
ENDMDL
MODEL 9
REMARK VINA RESULT:      -6.5      6.924      8.672
REMARK  Name = Scopolamine
REMARK  7 active torsions:
REMARK  status: ('A' for Active; 'I' for Inactive)
REMARK    1  A    between atoms: C_1  and  N_2
REMARK    2  A    between atoms: C_5  and  O_11
REMARK    3  A    between atoms: O_11  and  C_12
REMARK    4  A    between atoms: C_12  and  C_14
REMARK    5  A    between atoms: C_14  and  C_15
REMARK    6  A    between atoms: C_14  and  C_17
REMARK    7  A    between atoms: C_15  and  O_16
REMARK                            x       y       z     vdW  Elec       q    Type
REMARK                         _______ _______ _______ _____ _____    ______ ____
ROOT
ATOM      1  C   UNL     1      -8.931  -0.497 125.025  0.00  0.00    +0.000 C 
ATOM      2  O   UNL     1     -10.089  -0.334 125.444  0.00  0.00    +0.000 OA
ENDROOT
BRANCH   1   3
ATOM      3  O   UNL     1      -8.382   0.553 124.374  0.00  0.00    +0.000 OA
BRANCH   3   8
ATOM      4  C   UNL     1      -4.896   2.149 126.208  0.00  0.00    +0.000 C 
ATOM      5  N   UNL     1      -5.848   3.236 126.200  0.00  0.00    +0.000 NA
ATOM      6  C   UNL     1      -7.088   2.970 126.962  0.00  0.00    +0.000 C 
ATOM      7  C   UNL     1      -7.783   1.700 126.449  0.00  0.00    +0.000 C 
ATOM      8  C   UNL     1      -8.034   1.807 124.962  0.00  0.00    +0.000 C 
ATOM      9  C   UNL     1      -6.927   2.467 124.121  0.00  0.00    +0.000 C 
ATOM     10  C   UNL     1      -6.284   3.648 124.852  0.00  0.00    +0.000 C 
ATOM     11  C   UNL     1      -7.242   4.742 125.282  0.00  0.00    +0.000 C 
ATOM     12  O   UNL     1      -8.593   4.397 125.521  0.00  0.00    +0.000 OA
ATOM     13  C   UNL     1      -7.780   4.297 126.665  0.00  0.00    +0.000 C 
ENDBRANCH   3   8
ENDBRANCH   1   3
BRANCH   1  14
ATOM     14  C   UNL     1      -8.222  -1.866 125.083  0.00  0.00    +0.000 C 
BRANCH  14  15
ATOM     15  C   UNL     1      -8.067  -2.526 126.461  0.00  0.00    +0.000 A 
ATOM     16  C   UNL     1      -8.789  -3.673 126.812  0.00  0.00    +0.000 A 
ATOM     17  C   UNL     1      -9.064  -3.951 128.149  0.00  0.00    +0.000 A 
ATOM     18  C   UNL     1      -8.382  -3.280 129.150  0.00  0.00    +0.000 A 
ATOM     19  C   UNL     1      -7.442  -2.318 128.801  0.00  0.00    +0.000 A 
ATOM     20  C   UNL     1      -7.325  -1.901 127.472  0.00  0.00    +0.000 A 
ENDBRANCH  14  15
BRANCH  14  21
ATOM     21  C   UNL     1      -8.843  -2.889 124.106  0.00  0.00    +0.000 C 
BRANCH  21  22
ATOM     22  O   UNL     1      -9.892  -2.373 123.300  0.00  0.00    +0.000 OA
ATOM     23  H   UNL     1      -9.622  -1.498 122.968  0.00  0.00    +0.000 HD
ENDBRANCH  21  22
ENDBRANCH  14  21
ENDBRANCH   1  14
TORSDOF 6
ENDMDL
