MODEL 1
REMARK VINA RESULT:      -5.7      0.000      0.000
REMARK  Name = Secnidazole
REMARK  6 active torsions:
REMARK  status: ('A' for Active; 'I' for Inactive)
REMARK    1  A    between atoms: C_1  and  C_2
REMARK    2  A    between atoms: C_2  and  O_3
REMARK    3  A    between atoms: C_2  and  C_4
REMARK    4  A    between atoms: C_4  and  N_5
REMARK    5  A    between atoms: C_6  and  C_7
REMARK    6  A    between atoms: C_10  and  N_11
REMARK                            x       y       z     vdW  Elec       q    Type
REMARK                         _______ _______ _______ _____ _____    ______ ____
ROOT
ATOM      1  N   UNL     1     -11.449   7.516 128.803  0.00  0.00    +0.000 N 
ATOM      2  C   UNL     1     -12.664   7.407 129.463  0.00  0.00    +0.000 A 
ATOM      3  C   UNL     1     -12.852   7.568 130.934  0.00  0.00    +0.000 C 
ATOM      4  N   UNL     1     -13.628   7.117 128.609  0.00  0.00    +0.000 NA
ATOM      5  C   UNL     1     -13.034   7.013 127.377  0.00  0.00    +0.000 A 
ATOM      6  C   UNL     1     -11.687   7.257 127.478  0.00  0.00    +0.000 A 
ENDROOT
BRANCH   6   7
ATOM      7  N   UNL     1     -10.714   7.229 126.436  0.00  0.00    +0.000 N 
ATOM      8  O   UNL     1      -9.855   6.338 126.468  0.00  0.00    +0.000 OA
ATOM      9  O   UNL     1     -10.803   8.102 125.571  0.00  0.00    +0.000 OA
ENDBRANCH   6   7
BRANCH   1  10
ATOM     10  C   UNL     1     -10.176   7.775 129.451  0.00  0.00    +0.000 C 
BRANCH  10  12
ATOM     11  C   UNL     1      -9.379   6.400 131.373  0.00  0.00    +0.000 C 
ATOM     12  C   UNL     1      -9.491   6.470 129.862  0.00  0.00    +0.000 C 
BRANCH  12  13
ATOM     13  O   UNL     1     -10.223   5.332 129.405  0.00  0.00    +0.000 OA
ATOM     14  H   UNL     1      -9.603   4.675 129.045  0.00  0.00    +0.000 HD
ENDBRANCH  12  13
ENDBRANCH  10  12
ENDBRANCH   1  10
TORSDOF 4
ENDMDL
MODEL 2
REMARK VINA RESULT:      -5.6      1.588      3.462
REMARK  Name = Secnidazole
REMARK  6 active torsions:
REMARK  status: ('A' for Active; 'I' for Inactive)
REMARK    1  A    between atoms: C_1  and  C_2
REMARK    2  A    between atoms: C_2  and  O_3
REMARK    3  A    between atoms: C_2  and  C_4
REMARK    4  A    between atoms: C_4  and  N_5
REMARK    5  A    between atoms: C_6  and  C_7
REMARK    6  A    between atoms: C_10  and  N_11
REMARK                            x       y       z     vdW  Elec       q    Type
REMARK                         _______ _______ _______ _____ _____    ______ ____
ROOT
ATOM      1  N   UNL     1     -11.293   7.933 129.026  0.00  0.00    +0.000 N 
ATOM      2  C   UNL     1     -12.393   8.479 129.671  0.00  0.00    +0.000 A 
ATOM      3  C   UNL     1     -13.177   9.647 129.177  0.00  0.00    +0.000 C 
ATOM      4  N   UNL     1     -12.635   7.833 130.798  0.00  0.00    +0.000 NA
ATOM      5  C   UNL     1     -11.668   6.866 130.902  0.00  0.00    +0.000 A 
ATOM      6  C   UNL     1     -10.830   6.912 129.817  0.00  0.00    +0.000 A 
ENDROOT
BRANCH   6   7
ATOM      7  N   UNL     1      -9.693   6.093 129.555  0.00  0.00    +0.000 N 
ATOM      8  O   UNL     1      -9.884   4.970 129.073  0.00  0.00    +0.000 OA
ATOM      9  O   UNL     1      -8.591   6.571 129.831  0.00  0.00    +0.000 OA
ENDBRANCH   6   7
BRANCH   1  10
ATOM     10  C   UNL     1     -10.726   8.436 127.789  0.00  0.00    +0.000 C 
BRANCH  10  12
ATOM     11  C   UNL     1     -12.458   7.081 126.613  0.00  0.00    +0.000 C 
ATOM     12  C   UNL     1     -10.993   7.475 126.629  0.00  0.00    +0.000 C 
BRANCH  12  13
ATOM     13  O   UNL     1     -10.667   8.073 125.373  0.00  0.00    +0.000 OA
ATOM     14  H   UNL     1     -11.178   8.893 125.266  0.00  0.00    +0.000 HD
ENDBRANCH  12  13
ENDBRANCH  10  12
ENDBRANCH   1  10
TORSDOF 4
ENDMDL
MODEL 3
REMARK VINA RESULT:      -5.6      2.349      3.580
REMARK  Name = Secnidazole
REMARK  6 active torsions:
REMARK  status: ('A' for Active; 'I' for Inactive)
REMARK    1  A    between atoms: C_1  and  C_2
REMARK    2  A    between atoms: C_2  and  O_3
REMARK    3  A    between atoms: C_2  and  C_4
REMARK    4  A    between atoms: C_4  and  N_5
REMARK    5  A    between atoms: C_6  and  C_7
REMARK    6  A    between atoms: C_10  and  N_11
REMARK                            x       y       z     vdW  Elec       q    Type
REMARK                         _______ _______ _______ _____ _____    ______ ____
ROOT
ATOM      1  N   UNL     1     -11.305   7.641 129.946  0.00  0.00    +0.000 N 
ATOM      2  C   UNL     1     -11.143   6.661 130.913  0.00  0.00    +0.000 A 
ATOM      3  C   UNL     1      -9.963   5.754 131.017  0.00  0.00    +0.000 C 
ATOM      4  N   UNL     1     -12.191   6.627 131.716  0.00  0.00    +0.000 NA
ATOM      5  C   UNL     1     -13.060   7.583 131.256  0.00  0.00    +0.000 A 
ATOM      6  C   UNL     1     -12.530   8.220 130.162  0.00  0.00    +0.000 A 
ENDROOT
BRANCH   6   7
ATOM      7  N   UNL     1     -13.123   9.256 129.383  0.00  0.00    +0.000 N 
ATOM      8  O   UNL     1     -13.620   8.950 128.291  0.00  0.00    +0.000 OA
ATOM      9  O   UNL     1     -13.096  10.392 129.860  0.00  0.00    +0.000 OA
ENDBRANCH   6   7
BRANCH   1  10
ATOM     10  C   UNL     1     -10.364   7.911 128.875  0.00  0.00    +0.000 C 
BRANCH  10  12
ATOM     11  C   UNL     1     -10.921   7.830 126.445  0.00  0.00    +0.000 C 
ATOM     12  C   UNL     1     -10.618   6.995 127.675  0.00  0.00    +0.000 C 
BRANCH  12  13
ATOM     13  O   UNL     1      -9.484   6.172 127.400  0.00  0.00    +0.000 OA
ATOM     14  H   UNL     1      -9.672   5.262 127.686  0.00  0.00    +0.000 HD
ENDBRANCH  12  13
ENDBRANCH  10  12
ENDBRANCH   1  10
TORSDOF 4
ENDMDL
MODEL 4
REMARK VINA RESULT:      -5.4      2.144      3.917
REMARK  Name = Secnidazole
REMARK  6 active torsions:
REMARK  status: ('A' for Active; 'I' for Inactive)
REMARK    1  A    between atoms: C_1  and  C_2
REMARK    2  A    between atoms: C_2  and  O_3
REMARK    3  A    between atoms: C_2  and  C_4
REMARK    4  A    between atoms: C_4  and  N_5
REMARK    5  A    between atoms: C_6  and  C_7
REMARK    6  A    between atoms: C_10  and  N_11
REMARK                            x       y       z     vdW  Elec       q    Type
REMARK                         _______ _______ _______ _____ _____    ______ ____
ROOT
ATOM      1  N   UNL     1     -10.384   7.180 130.194  0.00  0.00    +0.000 N 
ATOM      2  C   UNL     1     -11.527   7.054 130.969  0.00  0.00    +0.000 A 
ATOM      3  C   UNL     1     -12.859   7.628 130.622  0.00  0.00    +0.000 C 
ATOM      4  N   UNL     1     -11.265   6.372 132.069  0.00  0.00    +0.000 NA
ATOM      5  C   UNL     1      -9.929   6.067 132.025  0.00  0.00    +0.000 A 
ATOM      6  C   UNL     1      -9.367   6.558 130.874  0.00  0.00    +0.000 A 
ENDROOT
BRANCH   6   7
ATOM      7  N   UNL     1      -8.006   6.472 130.460  0.00  0.00    +0.000 N 
ATOM      8  O   UNL     1      -7.227   7.356 130.837  0.00  0.00    +0.000 OA
ATOM      9  O   UNL     1      -7.703   5.510 129.751  0.00  0.00    +0.000 OA
ENDBRANCH   6   7
BRANCH   1  10
ATOM     10  C   UNL     1     -10.308   7.914 128.945  0.00  0.00    +0.000 C 
BRANCH  10  12
ATOM     11  C   UNL     1     -11.080   7.862 126.574  0.00  0.00    +0.000 C 
ATOM     12  C   UNL     1     -10.645   7.014 127.754  0.00  0.00    +0.000 C 
BRANCH  12  13
ATOM     13  O   UNL     1      -9.519   6.227 127.362  0.00  0.00    +0.000 OA
ATOM     14  H   UNL     1      -9.831   5.384 126.992  0.00  0.00    +0.000 HD
ENDBRANCH  12  13
ENDBRANCH  10  12
ENDBRANCH   1  10
TORSDOF 4
ENDMDL
MODEL 5
REMARK VINA RESULT:      -5.2      1.927      3.263
REMARK  Name = Secnidazole
REMARK  6 active torsions:
REMARK  status: ('A' for Active; 'I' for Inactive)
REMARK    1  A    between atoms: C_1  and  C_2
REMARK    2  A    between atoms: C_2  and  O_3
REMARK    3  A    between atoms: C_2  and  C_4
REMARK    4  A    between atoms: C_4  and  N_5
REMARK    5  A    between atoms: C_6  and  C_7
REMARK    6  A    between atoms: C_10  and  N_11
REMARK                            x       y       z     vdW  Elec       q    Type
REMARK                         _______ _______ _______ _____ _____    ______ ____
ROOT
ATOM      1  N   UNL     1     -11.470   7.457 128.894  0.00  0.00    +0.000 N 
ATOM      2  C   UNL     1     -11.836   7.391 127.558  0.00  0.00    +0.000 A 
ATOM      3  C   UNL     1     -10.903   7.574 126.409  0.00  0.00    +0.000 C 
ATOM      4  N   UNL     1     -13.132   7.166 127.446  0.00  0.00    +0.000 NA
ATOM      5  C   UNL     1     -13.625   7.105 128.724  0.00  0.00    +0.000 A 
ATOM      6  C   UNL     1     -12.613   7.284 129.633  0.00  0.00    +0.000 A 
ENDROOT
BRANCH   6   7
ATOM      7  N   UNL     1     -12.709   7.310 131.054  0.00  0.00    +0.000 N 
ATOM      8  O   UNL     1     -12.352   6.302 131.679  0.00  0.00    +0.000 OA
ATOM      9  O   UNL     1     -13.144   8.345 131.562  0.00  0.00    +0.000 OA
ENDBRANCH   6   7
BRANCH   1  10
ATOM     10  C   UNL     1     -10.129   7.743 129.371  0.00  0.00    +0.000 C 
BRANCH  10  12
ATOM     11  C   UNL     1      -8.859   6.555 131.158  0.00  0.00    +0.000 C 
ATOM     12  C   UNL     1      -9.389   6.456 129.740  0.00  0.00    +0.000 C 
BRANCH  12  13
ATOM     13  O   UNL     1     -10.249   5.319 129.652  0.00  0.00    +0.000 OA
ATOM     14  H   UNL     1     -11.143   5.611 129.406  0.00  0.00    +0.000 HD
ENDBRANCH  12  13
ENDBRANCH  10  12
ENDBRANCH   1  10
TORSDOF 4
ENDMDL
MODEL 6
REMARK VINA RESULT:      -5.1      8.729      9.726
REMARK  Name = Secnidazole
REMARK  6 active torsions:
REMARK  status: ('A' for Active; 'I' for Inactive)
REMARK    1  A    between atoms: C_1  and  C_2
REMARK    2  A    between atoms: C_2  and  O_3
REMARK    3  A    between atoms: C_2  and  C_4
REMARK    4  A    between atoms: C_4  and  N_5
REMARK    5  A    between atoms: C_6  and  C_7
REMARK    6  A    between atoms: C_10  and  N_11
REMARK                            x       y       z     vdW  Elec       q    Type
REMARK                         _______ _______ _______ _____ _____    ______ ____
ROOT
ATOM      1  N   UNL     1      -8.245  -0.294 124.419  0.00  0.00    +0.000 N 
ATOM      2  C   UNL     1      -6.944   0.152 124.596  0.00  0.00    +0.000 A 
ATOM      3  C   UNL     1      -5.895  -0.569 125.373  0.00  0.00    +0.000 C 
ATOM      4  N   UNL     1      -6.770   1.317 123.999  0.00  0.00    +0.000 NA
ATOM      5  C   UNL     1      -7.979   1.649 123.442  0.00  0.00    +0.000 A 
ATOM      6  C   UNL     1      -8.902   0.665 123.691  0.00  0.00    +0.000 A 
ENDROOT
BRANCH   6   7
ATOM      7  N   UNL     1     -10.274   0.636 123.303  0.00  0.00    +0.000 N 
ATOM      8  O   UNL     1     -11.086   1.265 123.994  0.00  0.00    +0.000 OA
ATOM      9  O   UNL     1     -10.551  -0.019 122.297  0.00  0.00    +0.000 OA
ENDBRANCH   6   7
BRANCH   1  10
ATOM     10  C   UNL     1      -8.786  -1.515 124.988  0.00  0.00    +0.000 C 
BRANCH  10  12
ATOM     11  C   UNL     1      -8.225  -3.921 124.652  0.00  0.00    +0.000 C 
ATOM     12  C   UNL     1      -8.737  -2.663 123.977  0.00  0.00    +0.000 C 
BRANCH  12  13
ATOM     13  O   UNL     1     -10.030  -2.930 123.432  0.00  0.00    +0.000 OA
ATOM     14  H   UNL     1     -10.629  -3.204 124.147  0.00  0.00    +0.000 HD
ENDBRANCH  12  13
ENDBRANCH  10  12
ENDBRANCH   1  10
TORSDOF 4
ENDMDL
MODEL 7
REMARK VINA RESULT:      -5.0      3.210      4.665
REMARK  Name = Secnidazole
REMARK  6 active torsions:
REMARK  status: ('A' for Active; 'I' for Inactive)
REMARK    1  A    between atoms: C_1  and  C_2
REMARK    2  A    between atoms: C_2  and  O_3
REMARK    3  A    between atoms: C_2  and  C_4
REMARK    4  A    between atoms: C_4  and  N_5
REMARK    5  A    between atoms: C_6  and  C_7
REMARK    6  A    between atoms: C_10  and  N_11
REMARK                            x       y       z     vdW  Elec       q    Type
REMARK                         _______ _______ _______ _____ _____    ______ ____
ROOT
ATOM      1  N   UNL     1      -9.280   5.825 131.552  0.00  0.00    +0.000 N 
ATOM      2  C   UNL     1      -8.114   6.526 131.285  0.00  0.00    +0.000 A 
ATOM      3  C   UNL     1      -6.818   6.327 131.995  0.00  0.00    +0.000 C 
ATOM      4  N   UNL     1      -8.319   7.413 130.328  0.00  0.00    +0.000 NA
ATOM      5  C   UNL     1      -9.641   7.306 129.979  0.00  0.00    +0.000 A 
ATOM      6  C   UNL     1     -10.252   6.330 130.725  0.00  0.00    +0.000 A 
ENDROOT
BRANCH   6   7
ATOM      7  N   UNL     1     -11.617   5.924 130.683  0.00  0.00    +0.000 N 
ATOM      8  O   UNL     1     -11.948   5.085 129.835  0.00  0.00    +0.000 OA
ATOM      9  O   UNL     1     -12.375   6.443 131.505  0.00  0.00    +0.000 OA
ENDBRANCH   6   7
BRANCH   1  10
ATOM     10  C   UNL     1      -9.419   4.813 132.583  0.00  0.00    +0.000 C 
BRANCH  10  12
ATOM     11  C   UNL     1      -8.695   2.473 133.052  0.00  0.00    +0.000 C 
ATOM     12  C   UNL     1      -9.261   3.407 131.999  0.00  0.00    +0.000 C 
BRANCH  12  13
ATOM     13  O   UNL     1     -10.514   2.887 131.552  0.00  0.00    +0.000 OA
ATOM     14  H   UNL     1     -11.236   3.362 131.997  0.00  0.00    +0.000 HD
ENDBRANCH  12  13
ENDBRANCH  10  12
ENDBRANCH   1  10
TORSDOF 4
ENDMDL
MODEL 8
REMARK VINA RESULT:      -4.8      8.918      9.908
REMARK  Name = Secnidazole
REMARK  6 active torsions:
REMARK  status: ('A' for Active; 'I' for Inactive)
REMARK    1  A    between atoms: C_1  and  C_2
REMARK    2  A    between atoms: C_2  and  O_3
REMARK    3  A    between atoms: C_2  and  C_4
REMARK    4  A    between atoms: C_4  and  N_5
REMARK    5  A    between atoms: C_6  and  C_7
REMARK    6  A    between atoms: C_10  and  N_11
REMARK                            x       y       z     vdW  Elec       q    Type
REMARK                         _______ _______ _______ _____ _____    ______ ____
ROOT
ATOM      1  N   UNL     1      -7.721  -1.173 125.223  0.00  0.00    +0.000 N 
ATOM      2  C   UNL     1      -6.780  -1.491 124.256  0.00  0.00    +0.000 A 
ATOM      3  C   UNL     1      -5.857  -2.661 124.319  0.00  0.00    +0.000 C 
ATOM      4  N   UNL     1      -6.800  -0.601 123.281  0.00  0.00    +0.000 NA
ATOM      5  C   UNL     1      -7.752   0.326 123.625  0.00  0.00    +0.000 A 
ATOM      6  C   UNL     1      -8.332  -0.011 124.822  0.00  0.00    +0.000 A 
ENDROOT
BRANCH   6   7
ATOM      7  N   UNL     1      -9.345   0.697 125.532  0.00  0.00    +0.000 N 
ATOM      8  O   UNL     1     -10.495   0.241 125.511  0.00  0.00    +0.000 OA
ATOM      9  O   UNL     1      -8.995   1.721 126.122  0.00  0.00    +0.000 OA
ENDBRANCH   6   7
BRANCH   1  10
ATOM     10  C   UNL     1      -7.927  -1.914 126.454  0.00  0.00    +0.000 C 
BRANCH  10  12
ATOM     11  C   UNL     1      -8.994  -3.902 127.517  0.00  0.00    +0.000 C 
ATOM     12  C   UNL     1      -8.796  -3.151 126.214  0.00  0.00    +0.000 C 
BRANCH  12  13
ATOM     13  O   UNL     1     -10.077  -2.792 125.694  0.00  0.00    +0.000 OA
ATOM     14  H   UNL     1     -10.633  -3.588 125.635  0.00  0.00    +0.000 HD
ENDBRANCH  12  13
ENDBRANCH  10  12
ENDBRANCH   1  10
TORSDOF 4
ENDMDL
MODEL 9
REMARK VINA RESULT:      -4.7     10.065     11.038
REMARK  Name = Secnidazole
REMARK  6 active torsions:
REMARK  status: ('A' for Active; 'I' for Inactive)
REMARK    1  A    between atoms: C_1  and  C_2
REMARK    2  A    between atoms: C_2  and  O_3
REMARK    3  A    between atoms: C_2  and  C_4
REMARK    4  A    between atoms: C_4  and  N_5
REMARK    5  A    between atoms: C_6  and  C_7
REMARK    6  A    between atoms: C_10  and  N_11
REMARK                            x       y       z     vdW  Elec       q    Type
REMARK                         _______ _______ _______ _____ _____    ______ ____
ROOT
ATOM      1  N   UNL     1      -7.310  -2.045 124.509  0.00  0.00    +0.000 N 
ATOM      2  C   UNL     1      -6.064  -2.576 124.213  0.00  0.00    +0.000 A 
ATOM      3  C   UNL     1      -5.166  -3.245 125.198  0.00  0.00    +0.000 C 
ATOM      4  N   UNL     1      -5.773  -2.386 122.939  0.00  0.00    +0.000 NA
ATOM      5  C   UNL     1      -6.833  -1.703 122.399  0.00  0.00    +0.000 A 
ATOM      6  C   UNL     1      -7.792  -1.483 123.355  0.00  0.00    +0.000 A 
ENDROOT
BRANCH   6   7
ATOM      7  N   UNL     1      -9.032  -0.795 123.206  0.00  0.00    +0.000 N 
ATOM      8  O   UNL     1      -9.033   0.435 123.341  0.00  0.00    +0.000 OA
ATOM      9  O   UNL     1     -10.021  -1.484 122.951  0.00  0.00    +0.000 OA
ENDBRANCH   6   7
BRANCH   1  10
ATOM     10  C   UNL     1      -7.912  -2.036 125.830  0.00  0.00    +0.000 C 
BRANCH  10  12
ATOM     11  C   UNL     1      -8.859  -3.645 127.484  0.00  0.00    +0.000 C 
ATOM     12  C   UNL     1      -8.838  -3.240 126.022  0.00  0.00    +0.000 C 
BRANCH  12  13
ATOM     13  O   UNL     1     -10.172  -2.940 125.611  0.00  0.00    +0.000 OA
ATOM     14  H   UNL     1     -10.280  -1.976 125.550  0.00  0.00    +0.000 HD
ENDBRANCH  12  13
ENDBRANCH  10  12
ENDBRANCH   1  10
TORSDOF 4
ENDMDL
