MODEL 1
REMARK VINA RESULT:      -6.2      0.000      0.000
REMARK  Name = Secobarbital
REMARK  7 active torsions:
REMARK  status: ('A' for Active; 'I' for Inactive)
REMARK    1  A    between atoms: C_1  and  C_2
REMARK    2  A    between atoms: C_2  and  C_3
REMARK    3  A    between atoms: C_3  and  C_4
REMARK    4  A    between atoms: C_4  and  C_5
REMARK    5  A    between atoms: C_4  and  C_6
REMARK    6  A    between atoms: C_6  and  C_7
REMARK    7  A    between atoms: C_7  and  C_8
REMARK                            x       y       z     vdW  Elec       q    Type
REMARK                         _______ _______ _______ _____ _____    ______ ____
ROOT
ATOM      1  C   UNL     1      -9.720   6.314 130.523  0.00  0.00    +0.000 C 
ATOM      2  C   UNL     1      -9.365   5.201 129.541  0.00  0.00    +0.000 C 
ATOM      3  O   UNL     1      -8.883   5.406 128.426  0.00  0.00    +0.000 OA
ATOM      4  N   UNL     1      -9.577   3.922 129.940  0.00  0.00    +0.000 N 
ATOM      5  C   UNL     1      -9.969   3.515 131.173  0.00  0.00    +0.000 C 
ATOM      6  O   UNL     1     -10.070   2.330 131.451  0.00  0.00    +0.000 OA
ATOM      7  N   UNL     1     -10.215   4.488 132.091  0.00  0.00    +0.000 N 
ATOM      8  C   UNL     1     -10.015   5.830 131.933  0.00  0.00    +0.000 C 
ATOM      9  O   UNL     1     -10.203   6.596 132.878  0.00  0.00    +0.000 OA
ATOM     10  H   UNL     1      -9.308   3.204 129.281  0.00  0.00    +0.000 HD
ATOM     11  H   UNL     1     -10.516   4.182 133.004  0.00  0.00    +0.000 HD
ENDROOT
BRANCH   1  12
ATOM     12  C   UNL     1     -11.020   7.071 130.070  0.00  0.00    +0.000 C 
ATOM     13  C   UNL     1     -12.116   6.087 129.599  0.00  0.00    +0.000 C 
BRANCH  12  14
ATOM     14  C   UNL     1     -10.745   8.109 128.970  0.00  0.00    +0.000 C 
BRANCH  14  16
ATOM     15  C   UNL     1     -10.922   7.686 126.525  0.00  0.00    +0.000 C 
ATOM     16  C   UNL     1     -11.697   7.993 127.786  0.00  0.00    +0.000 C 
ENDBRANCH  14  16
ENDBRANCH  12  14
ENDBRANCH   1  12
BRANCH   1  17
ATOM     17  C   UNL     1      -8.474   7.232 130.576  0.00  0.00    +0.000 C 
BRANCH  17  18
ATOM     18  C   UNL     1      -7.309   6.550 131.264  0.00  0.00    +0.000 C 
ATOM     19  C   UNL     1      -6.035   6.905 131.084  0.00  0.00    +0.000 C 
ENDBRANCH  17  18
ENDBRANCH   1  17
TORSDOF 5
ENDMDL
MODEL 2
REMARK VINA RESULT:      -6.1      9.207     11.054
REMARK  Name = Secobarbital
REMARK  7 active torsions:
REMARK  status: ('A' for Active; 'I' for Inactive)
REMARK    1  A    between atoms: C_1  and  C_2
REMARK    2  A    between atoms: C_2  and  C_3
REMARK    3  A    between atoms: C_3  and  C_4
REMARK    4  A    between atoms: C_4  and  C_5
REMARK    5  A    between atoms: C_4  and  C_6
REMARK    6  A    between atoms: C_6  and  C_7
REMARK    7  A    between atoms: C_7  and  C_8
REMARK                            x       y       z     vdW  Elec       q    Type
REMARK                         _______ _______ _______ _____ _____    ______ ____
ROOT
ATOM      1  C   UNL     1      -7.460  -1.643 124.520  0.00  0.00    +0.000 C 
ATOM      2  C   UNL     1      -8.472  -2.468 123.732  0.00  0.00    +0.000 C 
ATOM      3  O   UNL     1      -8.492  -3.699 123.731  0.00  0.00    +0.000 OA
ATOM      4  N   UNL     1      -9.408  -1.796 123.017  0.00  0.00    +0.000 N 
ATOM      5  C   UNL     1      -9.615  -0.454 123.016  0.00  0.00    +0.000 C 
ATOM      6  O   UNL     1     -10.529   0.049 122.383  0.00  0.00    +0.000 OA
ATOM      7  N   UNL     1      -8.772   0.296 123.775  0.00  0.00    +0.000 N 
ATOM      8  C   UNL     1      -7.801  -0.164 124.617  0.00  0.00    +0.000 C 
ATOM      9  O   UNL     1      -7.161   0.626 125.312  0.00  0.00    +0.000 OA
ATOM     10  H   UNL     1     -10.082  -2.366 122.526  0.00  0.00    +0.000 HD
ATOM     11  H   UNL     1      -8.922   1.294 123.764  0.00  0.00    +0.000 HD
ENDROOT
BRANCH   1  12
ATOM     12  C   UNL     1      -6.043  -1.692 123.842  0.00  0.00    +0.000 C 
ATOM     13  C   UNL     1      -6.153  -1.827 122.306  0.00  0.00    +0.000 C 
BRANCH  12  14
ATOM     14  C   UNL     1      -5.159  -2.819 124.402  0.00  0.00    +0.000 C 
BRANCH  14  16
ATOM     15  C   UNL     1      -4.349  -5.014 123.556  0.00  0.00    +0.000 C 
ATOM     16  C   UNL     1      -4.332  -3.518 123.331  0.00  0.00    +0.000 C 
ENDBRANCH  14  16
ENDBRANCH  12  14
ENDBRANCH   1  12
BRANCH   1  17
ATOM     17  C   UNL     1      -7.465  -2.236 125.950  0.00  0.00    +0.000 C 
BRANCH  17  18
ATOM     18  C   UNL     1      -8.872  -2.550 126.417  0.00  0.00    +0.000 C 
ATOM     19  C   UNL     1      -9.172  -3.573 127.222  0.00  0.00    +0.000 C 
ENDBRANCH  17  18
ENDBRANCH   1  17
TORSDOF 5
ENDMDL
MODEL 3
REMARK VINA RESULT:      -6.1      8.376     10.264
REMARK  Name = Secobarbital
REMARK  7 active torsions:
REMARK  status: ('A' for Active; 'I' for Inactive)
REMARK    1  A    between atoms: C_1  and  C_2
REMARK    2  A    between atoms: C_2  and  C_3
REMARK    3  A    between atoms: C_3  and  C_4
REMARK    4  A    between atoms: C_4  and  C_5
REMARK    5  A    between atoms: C_4  and  C_6
REMARK    6  A    between atoms: C_6  and  C_7
REMARK    7  A    between atoms: C_7  and  C_8
REMARK                            x       y       z     vdW  Elec       q    Type
REMARK                         _______ _______ _______ _____ _____    ______ ____
ROOT
ATOM      1  C   UNL     1      -7.607  -1.838 125.434  0.00  0.00    +0.000 C 
ATOM      2  C   UNL     1      -8.870  -1.178 124.888  0.00  0.00    +0.000 C 
ATOM      3  O   UNL     1      -9.577  -1.680 124.014  0.00  0.00    +0.000 OA
ATOM      4  N   UNL     1      -9.233   0.017 125.420  0.00  0.00    +0.000 N 
ATOM      5  C   UNL     1      -8.652   0.641 126.475  0.00  0.00    +0.000 C 
ATOM      6  O   UNL     1      -9.096   1.688 126.919  0.00  0.00    +0.000 OA
ATOM      7  N   UNL     1      -7.570   0.030 127.029  0.00  0.00    +0.000 N 
ATOM      8  C   UNL     1      -7.065  -1.195 126.701  0.00  0.00    +0.000 C 
ATOM      9  O   UNL     1      -6.126  -1.668 127.341  0.00  0.00    +0.000 OA
ATOM     10  H   UNL     1     -10.087   0.419 125.060  0.00  0.00    +0.000 HD
ATOM     11  H   UNL     1      -7.134   0.503 127.808  0.00  0.00    +0.000 HD
ENDROOT
BRANCH   1  12
ATOM     12  C   UNL     1      -6.432  -1.750 124.395  0.00  0.00    +0.000 C 
ATOM     13  C   UNL     1      -6.732  -0.717 123.284  0.00  0.00    +0.000 C 
BRANCH  12  14
ATOM     14  C   UNL     1      -6.099  -3.112 123.764  0.00  0.00    +0.000 C 
BRANCH  14  16
ATOM     15  C   UNL     1      -4.284  -4.793 123.497  0.00  0.00    +0.000 C 
ATOM     16  C   UNL     1      -4.607  -3.316 123.536  0.00  0.00    +0.000 C 
ENDBRANCH  14  16
ENDBRANCH  12  14
ENDBRANCH   1  12
BRANCH   1  17
ATOM     17  C   UNL     1      -8.012  -3.295 125.765  0.00  0.00    +0.000 C 
BRANCH  17  18
ATOM     18  C   UNL     1      -9.061  -3.347 126.857  0.00  0.00    +0.000 C 
ATOM     19  C   UNL     1      -8.913  -4.036 127.991  0.00  0.00    +0.000 C 
ENDBRANCH  17  18
ENDBRANCH   1  17
TORSDOF 5
ENDMDL
MODEL 4
REMARK VINA RESULT:      -5.7      8.336      9.615
REMARK  Name = Secobarbital
REMARK  7 active torsions:
REMARK  status: ('A' for Active; 'I' for Inactive)
REMARK    1  A    between atoms: C_1  and  C_2
REMARK    2  A    between atoms: C_2  and  C_3
REMARK    3  A    between atoms: C_3  and  C_4
REMARK    4  A    between atoms: C_4  and  C_5
REMARK    5  A    between atoms: C_4  and  C_6
REMARK    6  A    between atoms: C_6  and  C_7
REMARK    7  A    between atoms: C_7  and  C_8
REMARK                            x       y       z     vdW  Elec       q    Type
REMARK                         _______ _______ _______ _____ _____    ______ ____
ROOT
ATOM      1  C   UNL     1      -7.619  -1.638 125.104  0.00  0.00    +0.000 C 
ATOM      2  C   UNL     1      -8.889  -2.473 124.967  0.00  0.00    +0.000 C 
ATOM      3  O   UNL     1      -9.531  -2.567 123.920  0.00  0.00    +0.000 OA
ATOM      4  N   UNL     1      -9.309  -3.159 126.058  0.00  0.00    +0.000 N 
ATOM      5  C   UNL     1      -8.654  -3.277 127.241  0.00  0.00    +0.000 C 
ATOM      6  O   UNL     1      -9.089  -3.974 128.144  0.00  0.00    +0.000 OA
ATOM      7  N   UNL     1      -7.478  -2.604 127.359  0.00  0.00    +0.000 N 
ATOM      8  C   UNL     1      -6.835  -1.902 126.380  0.00  0.00    +0.000 C 
ATOM      9  O   UNL     1      -5.730  -1.407 126.600  0.00  0.00    +0.000 OA
ATOM     10  H   UNL     1     -10.137  -3.725 125.932  0.00  0.00    +0.000 HD
ATOM     11  H   UNL     1      -6.998  -2.685 128.244  0.00  0.00    +0.000 HD
ENDROOT
BRANCH   1  12
ATOM     12  C   UNL     1      -7.955  -0.104 125.140  0.00  0.00    +0.000 C 
ATOM     13  C   UNL     1      -9.243   0.177 125.949  0.00  0.00    +0.000 C 
BRANCH  12  14
ATOM     14  C   UNL     1      -8.079   0.506 123.734  0.00  0.00    +0.000 C 
BRANCH  14  16
ATOM     15  C   UNL     1     -10.191   0.524 122.419  0.00  0.00    +0.000 C 
ATOM     16  C   UNL     1      -9.406   1.220 123.507  0.00  0.00    +0.000 C 
ENDBRANCH  14  16
ENDBRANCH  12  14
ENDBRANCH   1  12
BRANCH   1  17
ATOM     17  C   UNL     1      -6.731  -2.034 123.899  0.00  0.00    +0.000 C 
BRANCH  17  18
ATOM     18  C   UNL     1      -6.127  -3.411 124.082  0.00  0.00    +0.000 C 
ATOM     19  C   UNL     1      -4.871  -3.717 123.748  0.00  0.00    +0.000 C 
ENDBRANCH  17  18
ENDBRANCH   1  17
TORSDOF 5
ENDMDL
MODEL 5
REMARK VINA RESULT:      -5.6      7.996     10.102
REMARK  Name = Secobarbital
REMARK  7 active torsions:
REMARK  status: ('A' for Active; 'I' for Inactive)
REMARK    1  A    between atoms: C_1  and  C_2
REMARK    2  A    between atoms: C_2  and  C_3
REMARK    3  A    between atoms: C_3  and  C_4
REMARK    4  A    between atoms: C_4  and  C_5
REMARK    5  A    between atoms: C_4  and  C_6
REMARK    6  A    between atoms: C_6  and  C_7
REMARK    7  A    between atoms: C_7  and  C_8
REMARK                            x       y       z     vdW  Elec       q    Type
REMARK                         _______ _______ _______ _____ _____    ______ ____
ROOT
ATOM      1  C   UNL     1      -7.360  -1.490 125.553  0.00  0.00    +0.000 C 
ATOM      2  C   UNL     1      -6.352  -0.373 125.303  0.00  0.00    +0.000 C 
ATOM      3  O   UNL     1      -5.212  -0.368 125.769  0.00  0.00    +0.000 OA
ATOM      4  N   UNL     1      -6.739   0.654 124.505  0.00  0.00    +0.000 N 
ATOM      5  C   UNL     1      -7.898   0.740 123.804  0.00  0.00    +0.000 C 
ATOM      6  O   UNL     1      -8.124   1.681 123.060  0.00  0.00    +0.000 OA
ATOM      7  N   UNL     1      -8.780  -0.285 123.950  0.00  0.00    +0.000 N 
ATOM      8  C   UNL     1      -8.582  -1.441 124.649  0.00  0.00    +0.000 C 
ATOM      9  O   UNL     1      -9.436  -2.327 124.631  0.00  0.00    +0.000 OA
ATOM     10  H   UNL     1      -6.043   1.366 124.334  0.00  0.00    +0.000 HD
ATOM     11  H   UNL     1      -9.645  -0.212 123.436  0.00  0.00    +0.000 HD
ENDROOT
BRANCH   1  12
ATOM     12  C   UNL     1      -7.929  -1.418 127.016  0.00  0.00    +0.000 C 
ATOM     13  C   UNL     1      -7.925   0.031 127.556  0.00  0.00    +0.000 C 
BRANCH  12  14
ATOM     14  C   UNL     1      -7.175  -2.339 127.989  0.00  0.00    +0.000 C 
BRANCH  14  16
ATOM     15  C   UNL     1      -9.011  -4.015 127.890  0.00  0.00    +0.000 C 
ATOM     16  C   UNL     1      -8.101  -3.231 128.807  0.00  0.00    +0.000 C 
ENDBRANCH  14  16
ENDBRANCH  12  14
ENDBRANCH   1  12
BRANCH   1  17
ATOM     17  C   UNL     1      -6.598  -2.807 125.266  0.00  0.00    +0.000 C 
BRANCH  17  18
ATOM     18  C   UNL     1      -6.115  -2.869 123.831  0.00  0.00    +0.000 C 
ATOM     19  C   UNL     1      -4.890  -3.269 123.480  0.00  0.00    +0.000 C 
ENDBRANCH  17  18
ENDBRANCH   1  17
TORSDOF 5
ENDMDL
MODEL 6
REMARK VINA RESULT:      -5.5      8.908     10.881
REMARK  Name = Secobarbital
REMARK  7 active torsions:
REMARK  status: ('A' for Active; 'I' for Inactive)
REMARK    1  A    between atoms: C_1  and  C_2
REMARK    2  A    between atoms: C_2  and  C_3
REMARK    3  A    between atoms: C_3  and  C_4
REMARK    4  A    between atoms: C_4  and  C_5
REMARK    5  A    between atoms: C_4  and  C_6
REMARK    6  A    between atoms: C_6  and  C_7
REMARK    7  A    between atoms: C_7  and  C_8
REMARK                            x       y       z     vdW  Elec       q    Type
REMARK                         _______ _______ _______ _____ _____    ______ ____
ROOT
ATOM      1  C   UNL     1      -6.758  -1.877 124.194  0.00  0.00    +0.000 C 
ATOM      2  C   UNL     1      -6.131  -0.765 125.028  0.00  0.00    +0.000 C 
ATOM      3  O   UNL     1      -5.130  -0.922 125.728  0.00  0.00    +0.000 OA
ATOM      4  N   UNL     1      -6.703   0.463 124.968  0.00  0.00    +0.000 N 
ATOM      5  C   UNL     1      -7.718   0.843 124.150  0.00  0.00    +0.000 C 
ATOM      6  O   UNL     1      -8.121   1.995 124.128  0.00  0.00    +0.000 OA
ATOM      7  N   UNL     1      -8.241  -0.115 123.339  0.00  0.00    +0.000 N 
ATOM      8  C   UNL     1      -7.790  -1.395 123.187  0.00  0.00    +0.000 C 
ATOM      9  O   UNL     1      -8.309  -2.137 122.353  0.00  0.00    +0.000 OA
ATOM     10  H   UNL     1      -6.252   1.187 125.509  0.00  0.00    +0.000 HD
ATOM     11  H   UNL     1      -9.003   0.169 122.739  0.00  0.00    +0.000 HD
ENDROOT
BRANCH   1  12
ATOM     12  C   UNL     1      -7.524  -2.902 125.106  0.00  0.00    +0.000 C 
ATOM     13  C   UNL     1      -8.518  -3.758 124.288  0.00  0.00    +0.000 C 
BRANCH  12  14
ATOM     14  C   UNL     1      -8.260  -2.220 126.271  0.00  0.00    +0.000 C 
BRANCH  14  16
ATOM     15  C   UNL     1      -8.914  -3.922 127.965  0.00  0.00    +0.000 C 
ATOM     16  C   UNL     1      -7.926  -2.828 127.627  0.00  0.00    +0.000 C 
ENDBRANCH  14  16
ENDBRANCH  12  14
ENDBRANCH   1  12
BRANCH   1  17
ATOM     17  C   UNL     1      -5.586  -2.522 123.414  0.00  0.00    +0.000 C 
BRANCH  17  18
ATOM     18  C   UNL     1      -5.139  -3.820 124.056  0.00  0.00    +0.000 C 
ATOM     19  C   UNL     1      -4.216  -4.626 123.525  0.00  0.00    +0.000 C 
ENDBRANCH  17  18
ENDBRANCH   1  17
TORSDOF 5
ENDMDL
MODEL 7
REMARK VINA RESULT:      -5.3      8.509     10.100
REMARK  Name = Secobarbital
REMARK  7 active torsions:
REMARK  status: ('A' for Active; 'I' for Inactive)
REMARK    1  A    between atoms: C_1  and  C_2
REMARK    2  A    between atoms: C_2  and  C_3
REMARK    3  A    between atoms: C_3  and  C_4
REMARK    4  A    between atoms: C_4  and  C_5
REMARK    5  A    between atoms: C_4  and  C_6
REMARK    6  A    between atoms: C_6  and  C_7
REMARK    7  A    between atoms: C_7  and  C_8
REMARK                            x       y       z     vdW  Elec       q    Type
REMARK                         _______ _______ _______ _____ _____    ______ ____
ROOT
ATOM      1  C   UNL     1      -7.984  -1.674 125.066  0.00  0.00    +0.000 C 
ATOM      2  C   UNL     1      -6.727  -1.652 125.929  0.00  0.00    +0.000 C 
ATOM      3  O   UNL     1      -6.657  -1.077 127.016  0.00  0.00    +0.000 OA
ATOM      4  N   UNL     1      -5.640  -2.325 125.473  0.00  0.00    +0.000 N 
ATOM      5  C   UNL     1      -5.585  -3.119 124.374  0.00  0.00    +0.000 C 
ATOM      6  O   UNL     1      -4.572  -3.735 124.083  0.00  0.00    +0.000 OA
ATOM      7  N   UNL     1      -6.720  -3.218 123.631  0.00  0.00    +0.000 N 
ATOM      8  C   UNL     1      -7.940  -2.680 123.927  0.00  0.00    +0.000 C 
ATOM      9  O   UNL     1      -8.910  -2.916 123.205  0.00  0.00    +0.000 OA
ATOM     10  H   UNL     1      -4.830  -2.317 126.077  0.00  0.00    +0.000 HD
ATOM     11  H   UNL     1      -6.673  -3.801 122.809  0.00  0.00    +0.000 HD
ENDROOT
BRANCH   1  12
ATOM     12  C   UNL     1      -8.217  -0.283 124.375  0.00  0.00    +0.000 C 
ATOM     13  C   UNL     1      -6.902   0.524 124.265  0.00  0.00    +0.000 C 
BRANCH  12  14
ATOM     14  C   UNL     1      -9.286   0.560 125.089  0.00  0.00    +0.000 C 
BRANCH  14  16
ATOM     15  C   UNL     1     -10.183   0.683 122.772  0.00  0.00    +0.000 C 
ATOM     16  C   UNL     1     -10.165   1.350 124.128  0.00  0.00    +0.000 C 
ENDBRANCH  14  16
ENDBRANCH  12  14
ENDBRANCH   1  12
BRANCH   1  17
ATOM     17  C   UNL     1      -9.135  -2.074 126.022  0.00  0.00    +0.000 C 
BRANCH  17  18
ATOM     18  C   UNL     1      -8.971  -3.492 126.528  0.00  0.00    +0.000 C 
ATOM     19  C   UNL     1      -8.958  -3.817 127.824  0.00  0.00    +0.000 C 
ENDBRANCH  17  18
ENDBRANCH   1  17
TORSDOF 5
ENDMDL
MODEL 8
REMARK VINA RESULT:      -5.3      6.562      8.395
REMARK  Name = Secobarbital
REMARK  7 active torsions:
REMARK  status: ('A' for Active; 'I' for Inactive)
REMARK    1  A    between atoms: C_1  and  C_2
REMARK    2  A    between atoms: C_2  and  C_3
REMARK    3  A    between atoms: C_3  and  C_4
REMARK    4  A    between atoms: C_4  and  C_5
REMARK    5  A    between atoms: C_4  and  C_6
REMARK    6  A    between atoms: C_6  and  C_7
REMARK    7  A    between atoms: C_7  and  C_8
REMARK                            x       y       z     vdW  Elec       q    Type
REMARK                         _______ _______ _______ _____ _____    ______ ____
ROOT
ATOM      1  C   UNL     1      -7.593   1.678 124.417  0.00  0.00    +0.000 C 
ATOM      2  C   UNL     1      -8.862   2.516 124.528  0.00  0.00    +0.000 C 
ATOM      3  O   UNL     1      -8.902   3.623 125.067  0.00  0.00    +0.000 OA
ATOM      4  N   UNL     1      -9.996   2.013 123.979  0.00  0.00    +0.000 N 
ATOM      5  C   UNL     1     -10.101   0.883 123.235  0.00  0.00    +0.000 C 
ATOM      6  O   UNL     1     -11.161   0.549 122.730  0.00  0.00    +0.000 OA
ATOM      7  N   UNL     1      -8.964   0.159 123.056  0.00  0.00    +0.000 N 
ATOM      8  C   UNL     1      -7.705   0.500 123.462  0.00  0.00    +0.000 C 
ATOM      9  O   UNL     1      -6.746  -0.211 123.161  0.00  0.00    +0.000 OA
ATOM     10  H   UNL     1     -10.816   2.600 124.043  0.00  0.00    +0.000 HD
ATOM     11  H   UNL     1      -9.048  -0.686 122.510  0.00  0.00    +0.000 HD
ENDROOT
BRANCH   1  12
ATOM     12  C   UNL     1      -7.213   1.046 125.804  0.00  0.00    +0.000 C 
ATOM     13  C   UNL     1      -8.452   0.893 126.717  0.00  0.00    +0.000 C 
BRANCH  12  14
ATOM     14  C   UNL     1      -6.121   1.842 126.537  0.00  0.00    +0.000 C 
BRANCH  14  16
ATOM     15  C   UNL     1      -6.246   4.132 127.502  0.00  0.00    +0.000 C 
ATOM     16  C   UNL     1      -6.664   2.689 127.680  0.00  0.00    +0.000 C 
ENDBRANCH  14  16
ENDBRANCH  12  14
ENDBRANCH   1  12
BRANCH   1  17
ATOM     17  C   UNL     1      -6.508   2.639 123.874  0.00  0.00    +0.000 C 
BRANCH  17  18
ATOM     18  C   UNL     1      -6.832   3.110 122.471  0.00  0.00    +0.000 C 
ATOM     19  C   UNL     1      -5.921   3.232 121.503  0.00  0.00    +0.000 C 
ENDBRANCH  17  18
ENDBRANCH   1  17
TORSDOF 5
ENDMDL
MODEL 9
REMARK VINA RESULT:      -5.2      7.084      8.859
REMARK  Name = Secobarbital
REMARK  7 active torsions:
REMARK  status: ('A' for Active; 'I' for Inactive)
REMARK    1  A    between atoms: C_1  and  C_2
REMARK    2  A    between atoms: C_2  and  C_3
REMARK    3  A    between atoms: C_3  and  C_4
REMARK    4  A    between atoms: C_4  and  C_5
REMARK    5  A    between atoms: C_4  and  C_6
REMARK    6  A    between atoms: C_6  and  C_7
REMARK    7  A    between atoms: C_7  and  C_8
REMARK                            x       y       z     vdW  Elec       q    Type
REMARK                         _______ _______ _______ _____ _____    ______ ____
ROOT
ATOM      1  C   UNL     1      -7.616   1.620 124.600  0.00  0.00    +0.000 C 
ATOM      2  C   UNL     1      -8.853   2.510 124.521  0.00  0.00    +0.000 C 
ATOM      3  O   UNL     1      -8.900   3.652 124.979  0.00  0.00    +0.000 OA
ATOM      4  N   UNL     1      -9.945   2.011 123.890  0.00  0.00    +0.000 N 
ATOM      5  C   UNL     1     -10.022   0.837 123.215  0.00  0.00    +0.000 C 
ATOM      6  O   UNL     1     -11.038   0.507 122.624  0.00  0.00    +0.000 OA
ATOM      7  N   UNL     1      -8.905   0.062 123.204  0.00  0.00    +0.000 N 
ATOM      8  C   UNL     1      -7.681   0.384 123.718  0.00  0.00    +0.000 C 
ATOM      9  O   UNL     1      -6.728  -0.381 123.567  0.00  0.00    +0.000 OA
ATOM     10  H   UNL     1     -10.741   2.631 123.829  0.00  0.00    +0.000 HD
ATOM     11  H   UNL     1      -8.969  -0.816 122.709  0.00  0.00    +0.000 HD
ENDROOT
BRANCH   1  12
ATOM     12  C   UNL     1      -7.408   1.073 126.058  0.00  0.00    +0.000 C 
ATOM     13  C   UNL     1      -5.977   0.524 126.259  0.00  0.00    +0.000 C 
BRANCH  12  14
ATOM     14  C   UNL     1      -8.437  -0.004 126.437  0.00  0.00    +0.000 C 
BRANCH  14  16
ATOM     15  C   UNL     1      -8.323  -2.488 126.342  0.00  0.00    +0.000 C 
ATOM     16  C   UNL     1      -7.804  -1.251 127.040  0.00  0.00    +0.000 C 
ENDBRANCH  14  16
ENDBRANCH  12  14
ENDBRANCH   1  12
BRANCH   1  17
ATOM     17  C   UNL     1      -6.441   2.502 124.112  0.00  0.00    +0.000 C 
BRANCH  17  18
ATOM     18  C   UNL     1      -6.579   2.854 122.645  0.00  0.00    +0.000 C 
ATOM     19  C   UNL     1      -5.914   3.853 122.059  0.00  0.00    +0.000 C 
ENDBRANCH  17  18
ENDBRANCH   1  17
TORSDOF 5
ENDMDL
