MODEL 1
REMARK VINA RESULT:      -9.3      0.000      0.000
REMARK  Name = Segesterone acetate
REMARK  6 active torsions:
REMARK  status: ('A' for Active; 'I' for Inactive)
REMARK    1  A    between atoms: C_6  and  O_7
REMARK    2  A    between atoms: C_6  and  C_11
REMARK    3  A    between atoms: O_7  and  C_8
REMARK    4  A    between atoms: C_8  and  C_9
REMARK    5  A    between atoms: C_11  and  C_12
REMARK    6  A    between atoms: C_14  and  C_15
REMARK                            x       y       z     vdW  Elec       q    Type
REMARK                         _______ _______ _______ _____ _____    ______ ____
ROOT
ATOM      1  C   UNL     1      -6.501  -1.702 126.567  0.00  0.00    +0.000 C 
ATOM      2  C   UNL     1      -6.640  -1.670 127.971  0.00  0.00    +0.000 C 
ATOM      3  C   UNL     1      -7.635  -1.054 127.075  0.00  0.00    +0.000 C 
ATOM      4  C   UNL     1      -8.290  -0.156 128.009  0.00  0.00    +0.000 C 
ATOM      5  C   UNL     1      -7.517  -1.581 125.128  0.00  0.00    +0.000 C 
ATOM      6  C   UNL     1      -8.281  -2.040 126.113  0.00  0.00    +0.000 C 
ATOM      7  C   UNL     1      -8.576  -3.502 126.267  0.00  0.00    +0.000 C 
ATOM      8  C   UNL     1      -9.309  -0.662 125.716  0.00  0.00    +0.000 C 
ATOM      9  C   UNL     1      -8.426   0.549 125.175  0.00  0.00    +0.000 C 
ATOM     10  C   UNL     1      -7.021   0.930 125.832  0.00  0.00    +0.000 C 
ATOM     11  C   UNL     1      -6.392   2.028 125.063  0.00  0.00    +0.000 C 
ATOM     12  C   UNL     1      -7.443   2.927 124.959  0.00  0.00    +0.000 C 
ATOM     13  C   UNL     1      -8.632   3.494 124.514  0.00  0.00    +0.000 C 
ATOM     14  C   UNL     1      -7.966   4.607 125.609  0.00  0.00    +0.000 C 
ATOM     15  O   UNL     1      -8.763   5.420 126.034  0.00  0.00    +0.000 OA
ATOM     16  C   UNL     1      -6.229   4.176 126.319  0.00  0.00    +0.000 C 
ATOM     17  C   UNL     1      -5.573   2.918 126.004  0.00  0.00    +0.000 C 
ATOM     18  C   UNL     1      -4.314   1.952 126.203  0.00  0.00    +0.000 C 
ATOM     19  C   UNL     1      -4.684   0.490 126.667  0.00  0.00    +0.000 C 
ATOM     20  C   UNL     1      -5.905  -0.080 125.925  0.00  0.00    +0.000 C 
ENDROOT
BRANCH   5  21
ATOM     21  C   UNL     1      -8.573  -2.076 123.726  0.00  0.00    +0.000 C 
ATOM     22  C   UNL     1      -9.469  -3.371 123.730  0.00  0.00    +0.000 C 
ATOM     23  O   UNL     1      -8.624  -1.407 122.680  0.00  0.00    +0.000 OA
ENDBRANCH   5  21
BRANCH   5  24
ATOM     24  O   UNL     1      -6.547  -2.874 124.558  0.00  0.00    +0.000 OA
BRANCH  24  25
ATOM     25  C   UNL     1      -5.505  -3.043 123.649  0.00  0.00    +0.000 C 
ATOM     26  C   UNL     1      -4.597  -4.171 123.932  0.00  0.00    +0.000 C 
ATOM     27  O   UNL     1      -5.402  -2.430 122.594  0.00  0.00    +0.000 OA
ENDBRANCH  24  25
ENDBRANCH   5  24
TORSDOF 3
ENDMDL
MODEL 2
REMARK VINA RESULT:      -8.6      2.530      5.571
REMARK  Name = Segesterone acetate
REMARK  6 active torsions:
REMARK  status: ('A' for Active; 'I' for Inactive)
REMARK    1  A    between atoms: C_6  and  O_7
REMARK    2  A    between atoms: C_6  and  C_11
REMARK    3  A    between atoms: O_7  and  C_8
REMARK    4  A    between atoms: C_8  and  C_9
REMARK    5  A    between atoms: C_11  and  C_12
REMARK    6  A    between atoms: C_14  and  C_15
REMARK                            x       y       z     vdW  Elec       q    Type
REMARK                         _______ _______ _______ _____ _____    ______ ____
ROOT
ATOM      1  C   UNL     1      -8.186  -0.858 126.559  0.00  0.00    +0.000 C 
ATOM      2  C   UNL     1      -8.461   0.382 127.175  0.00  0.00    +0.000 C 
ATOM      3  C   UNL     1      -7.083  -0.075 126.925  0.00  0.00    +0.000 C 
ATOM      4  C   UNL     1      -6.364   0.776 127.856  0.00  0.00    +0.000 C 
ATOM      5  C   UNL     1      -6.886  -1.630 125.650  0.00  0.00    +0.000 C 
ATOM      6  C   UNL     1      -6.780  -0.321 125.454  0.00  0.00    +0.000 C 
ATOM      7  C   UNL     1      -7.324   0.339 124.223  0.00  0.00    +0.000 C 
ATOM      8  C   UNL     1      -5.132  -0.548 126.043  0.00  0.00    +0.000 C 
ATOM      9  C   UNL     1      -5.082  -1.741 127.099  0.00  0.00    +0.000 C 
ATOM     10  C   UNL     1      -6.220  -1.943 128.200  0.00  0.00    +0.000 C 
ATOM     11  C   UNL     1      -5.955  -3.179 128.971  0.00  0.00    +0.000 C 
ATOM     12  C   UNL     1      -4.615  -3.019 129.293  0.00  0.00    +0.000 C 
ATOM     13  C   UNL     1      -3.233  -2.993 129.140  0.00  0.00    +0.000 C 
ATOM     14  C   UNL     1      -3.526  -2.680 130.782  0.00  0.00    +0.000 C 
ATOM     15  O   UNL     1      -2.588  -2.169 131.362  0.00  0.00    +0.000 OA
ATOM     16  C   UNL     1      -5.361  -2.773 131.359  0.00  0.00    +0.000 C 
ATOM     17  C   UNL     1      -6.440  -3.006 130.415  0.00  0.00    +0.000 C 
ATOM     18  C   UNL     1      -8.010  -3.165 130.153  0.00  0.00    +0.000 C 
ATOM     19  C   UNL     1      -8.583  -2.208 129.037  0.00  0.00    +0.000 C 
ATOM     20  C   UNL     1      -7.665  -2.113 127.806  0.00  0.00    +0.000 C 
ENDROOT
BRANCH   5  21
ATOM     21  C   UNL     1      -5.875  -2.188 124.239  0.00  0.00    +0.000 C 
ATOM     22  C   UNL     1      -4.947  -3.460 124.287  0.00  0.00    +0.000 C 
ATOM     23  O   UNL     1      -5.862  -1.571 123.160  0.00  0.00    +0.000 OA
ENDBRANCH   5  21
BRANCH   5  24
ATOM     24  O   UNL     1      -8.165  -2.216 124.671  0.00  0.00    +0.000 OA
BRANCH  24  25
ATOM     25  C   UNL     1      -8.744  -3.448 124.379  0.00  0.00    +0.000 C 
ATOM     26  C   UNL     1      -9.775  -3.427 123.323  0.00  0.00    +0.000 C 
ATOM     27  O   UNL     1      -8.349  -4.519 124.822  0.00  0.00    +0.000 OA
ENDBRANCH  24  25
ENDBRANCH   5  24
TORSDOF 3
ENDMDL
MODEL 3
REMARK VINA RESULT:      -8.6      3.113      6.386
REMARK  Name = Segesterone acetate
REMARK  6 active torsions:
REMARK  status: ('A' for Active; 'I' for Inactive)
REMARK    1  A    between atoms: C_6  and  O_7
REMARK    2  A    between atoms: C_6  and  C_11
REMARK    3  A    between atoms: O_7  and  C_8
REMARK    4  A    between atoms: C_8  and  C_9
REMARK    5  A    between atoms: C_11  and  C_12
REMARK    6  A    between atoms: C_14  and  C_15
REMARK                            x       y       z     vdW  Elec       q    Type
REMARK                         _______ _______ _______ _____ _____    ______ ____
ROOT
ATOM      1  C   UNL     1      -6.290  -1.950 129.904  0.00  0.00    +0.000 C 
ATOM      2  C   UNL     1      -5.254  -2.890 129.721  0.00  0.00    +0.000 C 
ATOM      3  C   UNL     1      -5.473  -1.780 128.778  0.00  0.00    +0.000 C 
ATOM      4  C   UNL     1      -4.757  -2.289 127.622  0.00  0.00    +0.000 C 
ATOM      5  C   UNL     1      -6.684  -0.297 129.425  0.00  0.00    +0.000 C 
ATOM      6  C   UNL     1      -5.361  -0.404 129.419  0.00  0.00    +0.000 C 
ATOM      7  C   UNL     1      -4.527   0.070 130.572  0.00  0.00    +0.000 C 
ATOM      8  C   UNL     1      -5.502   0.157 127.752  0.00  0.00    +0.000 C 
ATOM      9  C   UNL     1      -6.877  -0.339 127.116  0.00  0.00    +0.000 C 
ATOM     10  C   UNL     1      -7.448  -1.807 127.379  0.00  0.00    +0.000 C 
ATOM     11  C   UNL     1      -8.777  -1.946 126.742  0.00  0.00    +0.000 C 
ATOM     12  C   UNL     1      -8.525  -1.451 125.470  0.00  0.00    +0.000 C 
ATOM     13  C   UNL     1      -8.296  -0.533 124.452  0.00  0.00    +0.000 C 
ATOM     14  C   UNL     1      -8.378  -2.051 123.699  0.00  0.00    +0.000 C 
ATOM     15  O   UNL     1      -7.890  -2.078 122.586  0.00  0.00    +0.000 OA
ATOM     16  C   UNL     1      -8.818  -3.547 124.830  0.00  0.00    +0.000 C 
ATOM     17  C   UNL     1      -8.977  -3.389 126.265  0.00  0.00    +0.000 C 
ATOM     18  C   UNL     1      -9.269  -4.065 127.685  0.00  0.00    +0.000 C 
ATOM     19  C   UNL     1      -8.175  -3.769 128.784  0.00  0.00    +0.000 C 
ATOM     20  C   UNL     1      -7.708  -2.304 128.778  0.00  0.00    +0.000 C 
ENDROOT
BRANCH   5  21
ATOM     21  C   UNL     1      -6.800   1.522 129.471  0.00  0.00    +0.000 C 
ATOM     22  C   UNL     1      -8.090   2.319 129.045  0.00  0.00    +0.000 C 
ATOM     23  O   UNL     1      -5.844   2.227 129.835  0.00  0.00    +0.000 OA
ENDBRANCH   5  21
BRANCH   5  24
ATOM     24  O   UNL     1      -7.202  -0.144 131.052  0.00  0.00    +0.000 OA
BRANCH  24  25
ATOM     25  C   UNL     1      -8.303  -0.530 131.812  0.00  0.00    +0.000 C 
ATOM     26  C   UNL     1      -8.029  -1.543 132.849  0.00  0.00    +0.000 C 
ATOM     27  O   UNL     1      -9.398   0.016 131.770  0.00  0.00    +0.000 OA
ENDBRANCH  24  25
ENDBRANCH   5  24
TORSDOF 3
ENDMDL
MODEL 4
REMARK VINA RESULT:      -8.6      3.888      7.129
REMARK  Name = Segesterone acetate
REMARK  6 active torsions:
REMARK  status: ('A' for Active; 'I' for Inactive)
REMARK    1  A    between atoms: C_6  and  O_7
REMARK    2  A    between atoms: C_6  and  C_11
REMARK    3  A    between atoms: O_7  and  C_8
REMARK    4  A    between atoms: C_8  and  C_9
REMARK    5  A    between atoms: C_11  and  C_12
REMARK    6  A    between atoms: C_14  and  C_15
REMARK                            x       y       z     vdW  Elec       q    Type
REMARK                         _______ _______ _______ _____ _____    ______ ____
ROOT
ATOM      1  C   UNL     1      -6.408  -2.757 131.137  0.00  0.00    +0.000 C 
ATOM      2  C   UNL     1      -5.911  -4.077 131.205  0.00  0.00    +0.000 C 
ATOM      3  C   UNL     1      -5.243  -3.033 130.409  0.00  0.00    +0.000 C 
ATOM      4  C   UNL     1      -4.448  -3.865 129.523  0.00  0.00    +0.000 C 
ATOM      5  C   UNL     1      -5.817  -1.132 130.784  0.00  0.00    +0.000 C 
ATOM      6  C   UNL     1      -4.785  -1.837 131.233  0.00  0.00    +0.000 C 
ATOM      7  C   UNL     1      -4.333  -1.752 132.660  0.00  0.00    +0.000 C 
ATOM      8  C   UNL     1      -4.022  -1.347 129.720  0.00  0.00    +0.000 C 
ATOM      9  C   UNL     1      -5.119  -1.180 128.575  0.00  0.00    +0.000 C 
ATOM     10  C   UNL     1      -6.331  -2.207 128.412  0.00  0.00    +0.000 C 
ATOM     11  C   UNL     1      -7.233  -1.745 127.332  0.00  0.00    +0.000 C 
ATOM     12  C   UNL     1      -6.329  -1.478 126.314  0.00  0.00    +0.000 C 
ATOM     13  C   UNL     1      -5.352  -0.814 125.582  0.00  0.00    +0.000 C 
ATOM     14  C   UNL     1      -5.805  -2.155 124.646  0.00  0.00    +0.000 C 
ATOM     15  O   UNL     1      -4.999  -2.452 123.785  0.00  0.00    +0.000 OA
ATOM     16  C   UNL     1      -7.251  -3.228 125.328  0.00  0.00    +0.000 C 
ATOM     17  C   UNL     1      -7.853  -2.953 126.620  0.00  0.00    +0.000 C 
ATOM     18  C   UNL     1      -8.927  -3.354 127.736  0.00  0.00    +0.000 C 
ATOM     19  C   UNL     1      -8.322  -3.548 129.180  0.00  0.00    +0.000 C 
ATOM     20  C   UNL     1      -7.292  -2.466 129.545  0.00  0.00    +0.000 C 
ENDROOT
BRANCH   5  21
ATOM     21  C   UNL     1      -5.124   0.535 131.038  0.00  0.00    +0.000 C 
ATOM     22  C   UNL     1      -5.488   1.772 130.133  0.00  0.00    +0.000 C 
ATOM     23  O   UNL     1      -4.309   0.772 131.946  0.00  0.00    +0.000 OA
ENDBRANCH   5  21
BRANCH   5  24
ATOM     24  O   UNL     1      -6.785  -0.686 132.126  0.00  0.00    +0.000 OA
BRANCH  24  25
ATOM     25  C   UNL     1      -7.788   0.241 132.397  0.00  0.00    +0.000 C 
ATOM     26  C   UNL     1      -9.052   0.036 131.663  0.00  0.00    +0.000 C 
ATOM     27  O   UNL     1      -7.731   1.082 133.285  0.00  0.00    +0.000 OA
ENDBRANCH  24  25
ENDBRANCH   5  24
TORSDOF 3
ENDMDL
MODEL 5
REMARK VINA RESULT:      -8.3      2.561      6.092
REMARK  Name = Segesterone acetate
REMARK  6 active torsions:
REMARK  status: ('A' for Active; 'I' for Inactive)
REMARK    1  A    between atoms: C_6  and  O_7
REMARK    2  A    between atoms: C_6  and  C_11
REMARK    3  A    between atoms: O_7  and  C_8
REMARK    4  A    between atoms: C_8  and  C_9
REMARK    5  A    between atoms: C_11  and  C_12
REMARK    6  A    between atoms: C_14  and  C_15
REMARK                            x       y       z     vdW  Elec       q    Type
REMARK                         _______ _______ _______ _____ _____    ______ ____
ROOT
ATOM      1  C   UNL     1      -8.043   2.484 124.176  0.00  0.00    +0.000 C 
ATOM      2  C   UNL     1      -9.402   2.156 124.368  0.00  0.00    +0.000 C 
ATOM      3  C   UNL     1      -8.441   2.177 125.484  0.00  0.00    +0.000 C 
ATOM      4  C   UNL     1      -9.163   1.370 126.451  0.00  0.00    +0.000 C 
ATOM      5  C   UNL     1      -6.678   3.093 125.115  0.00  0.00    +0.000 C 
ATOM      6  C   UNL     1      -7.786   3.535 125.699  0.00  0.00    +0.000 C 
ATOM      7  C   UNL     1      -8.309   4.919 125.455  0.00  0.00    +0.000 C 
ATOM      8  C   UNL     1      -7.123   2.757 127.137  0.00  0.00    +0.000 C 
ATOM      9  C   UNL     1      -6.254   1.485 126.727  0.00  0.00    +0.000 C 
ATOM     10  C   UNL     1      -6.718   0.480 125.578  0.00  0.00    +0.000 C 
ATOM     11  C   UNL     1      -5.671  -0.543 125.356  0.00  0.00    +0.000 C 
ATOM     12  C   UNL     1      -5.409  -0.953 126.655  0.00  0.00    +0.000 C 
ATOM     13  C   UNL     1      -4.907  -0.931 127.951  0.00  0.00    +0.000 C 
ATOM     14  C   UNL     1      -5.657  -2.442 127.768  0.00  0.00    +0.000 C 
ATOM     15  O   UNL     1      -5.915  -2.997 128.819  0.00  0.00    +0.000 OA
ATOM     16  C   UNL     1      -6.353  -2.848 126.019  0.00  0.00    +0.000 C 
ATOM     17  C   UNL     1      -6.319  -1.870 124.945  0.00  0.00    +0.000 C 
ATOM     18  C   UNL     1      -6.676  -1.497 123.432  0.00  0.00    +0.000 C 
ATOM     19  C   UNL     1      -7.503  -0.163 123.270  0.00  0.00    +0.000 C 
ATOM     20  C   UNL     1      -6.992   0.969 124.177  0.00  0.00    +0.000 C 
ENDROOT
BRANCH   5  21
ATOM     21  C   UNL     1      -5.501   4.262 125.871  0.00  0.00    +0.000 C 
ATOM     22  C   UNL     1      -3.984   3.922 126.124  0.00  0.00    +0.000 C 
ATOM     23  O   UNL     1      -5.852   5.396 126.240  0.00  0.00    +0.000 OA
ENDBRANCH   5  21
BRANCH   5  24
ATOM     24  O   UNL     1      -6.387   4.054 123.725  0.00  0.00    +0.000 OA
BRANCH  24  25
ATOM     25  C   UNL     1      -5.531   4.026 122.628  0.00  0.00    +0.000 C 
ATOM     26  C   UNL     1      -5.997   3.220 121.483  0.00  0.00    +0.000 C 
ATOM     27  O   UNL     1      -4.534   4.728 122.511  0.00  0.00    +0.000 OA
ENDBRANCH  24  25
ENDBRANCH   5  24
TORSDOF 3
ENDMDL
MODEL 6
REMARK VINA RESULT:      -8.3      3.510      6.451
REMARK  Name = Segesterone acetate
REMARK  6 active torsions:
REMARK  status: ('A' for Active; 'I' for Inactive)
REMARK    1  A    between atoms: C_6  and  O_7
REMARK    2  A    between atoms: C_6  and  C_11
REMARK    3  A    between atoms: O_7  and  C_8
REMARK    4  A    between atoms: C_8  and  C_9
REMARK    5  A    between atoms: C_11  and  C_12
REMARK    6  A    between atoms: C_14  and  C_15
REMARK                            x       y       z     vdW  Elec       q    Type
REMARK                         _______ _______ _______ _____ _____    ______ ____
ROOT
ATOM      1  C   UNL     1      -6.513   1.746 127.923  0.00  0.00    +0.000 C 
ATOM      2  C   UNL     1      -6.365   0.363 127.689  0.00  0.00    +0.000 C 
ATOM      3  C   UNL     1      -5.463   1.357 127.081  0.00  0.00    +0.000 C 
ATOM      4  C   UNL     1      -4.914   0.565 125.994  0.00  0.00    +0.000 C 
ATOM      5  C   UNL     1      -5.536   3.215 127.871  0.00  0.00    +0.000 C 
ATOM      6  C   UNL     1      -4.710   2.201 128.100  0.00  0.00    +0.000 C 
ATOM      7  C   UNL     1      -4.235   1.866 129.482  0.00  0.00    +0.000 C 
ATOM      8  C   UNL     1      -3.865   2.801 126.672  0.00  0.00    +0.000 C 
ATOM      9  C   UNL     1      -4.898   3.471 125.659  0.00  0.00    +0.000 C 
ATOM     10  C   UNL     1      -6.331   2.830 125.368  0.00  0.00    +0.000 C 
ATOM     11  C   UNL     1      -7.100   3.718 124.466  0.00  0.00    +0.000 C 
ATOM     12  C   UNL     1      -6.169   3.967 123.468  0.00  0.00    +0.000 C 
ATOM     13  C   UNL     1      -5.064   4.513 122.824  0.00  0.00    +0.000 C 
ATOM     14  C   UNL     1      -5.851   3.555 121.666  0.00  0.00    +0.000 C 
ATOM     15  O   UNL     1      -5.156   3.261 120.713  0.00  0.00    +0.000 OA
ATOM     16  C   UNL     1      -7.514   2.747 122.206  0.00  0.00    +0.000 C 
ATOM     17  C   UNL     1      -8.012   2.878 123.564  0.00  0.00    +0.000 C 
ATOM     18  C   UNL     1      -9.140   2.522 124.641  0.00  0.00    +0.000 C 
ATOM     19  C   UNL     1      -8.587   1.882 125.974  0.00  0.00    +0.000 C 
ATOM     20  C   UNL     1      -7.313   2.577 126.484  0.00  0.00    +0.000 C 
ENDROOT
BRANCH   5  21
ATOM     21  C   UNL     1      -4.442   4.569 128.415  0.00  0.00    +0.000 C 
ATOM     22  C   UNL     1      -3.275   4.377 129.454  0.00  0.00    +0.000 C 
ATOM     23  O   UNL     1      -4.580   5.729 127.991  0.00  0.00    +0.000 OA
ENDBRANCH   5  21
BRANCH   5  24
ATOM     24  O   UNL     1      -6.345   3.587 129.336  0.00  0.00    +0.000 OA
BRANCH  24  25
ATOM     25  C   UNL     1      -7.441   4.350 129.730  0.00  0.00    +0.000 C 
ATOM     26  C   UNL     1      -8.605   3.583 130.212  0.00  0.00    +0.000 C 
ATOM     27  O   UNL     1      -7.430   5.570 129.838  0.00  0.00    +0.000 OA
ENDBRANCH  24  25
ENDBRANCH   5  24
TORSDOF 3
ENDMDL
MODEL 7
REMARK VINA RESULT:      -8.2      2.461      4.987
REMARK  Name = Segesterone acetate
REMARK  6 active torsions:
REMARK  status: ('A' for Active; 'I' for Inactive)
REMARK    1  A    between atoms: C_6  and  O_7
REMARK    2  A    between atoms: C_6  and  C_11
REMARK    3  A    between atoms: O_7  and  C_8
REMARK    4  A    between atoms: C_8  and  C_9
REMARK    5  A    between atoms: C_11  and  C_12
REMARK    6  A    between atoms: C_14  and  C_15
REMARK                            x       y       z     vdW  Elec       q    Type
REMARK                         _______ _______ _______ _____ _____    ______ ____
ROOT
ATOM      1  C   UNL     1      -7.484   0.612 125.066  0.00  0.00    +0.000 C 
ATOM      2  C   UNL     1      -6.168   1.096 124.905  0.00  0.00    +0.000 C 
ATOM      3  C   UNL     1      -6.446  -0.223 125.500  0.00  0.00    +0.000 C 
ATOM      4  C   UNL     1      -5.187  -0.458 126.185  0.00  0.00    +0.000 C 
ATOM      5  C   UNL     1      -8.319  -0.933 125.239  0.00  0.00    +0.000 C 
ATOM      6  C   UNL     1      -7.197  -1.165 124.569  0.00  0.00    +0.000 C 
ATOM      7  C   UNL     1      -7.179  -1.279 123.074  0.00  0.00    +0.000 C 
ATOM      8  C   UNL     1      -6.888  -2.342 125.848  0.00  0.00    +0.000 C 
ATOM      9  C   UNL     1      -7.541  -1.853 127.218  0.00  0.00    +0.000 C 
ATOM     10  C   UNL     1      -7.482  -0.327 127.684  0.00  0.00    +0.000 C 
ATOM     11  C   UNL     1      -8.249  -0.159 128.940  0.00  0.00    +0.000 C 
ATOM     12  C   UNL     1      -7.750  -1.202 129.707  0.00  0.00    +0.000 C 
ATOM     13  C   UNL     1      -7.552  -2.496 130.174  0.00  0.00    +0.000 C 
ATOM     14  C   UNL     1      -6.671  -1.486 131.214  0.00  0.00    +0.000 C 
ATOM     15  O   UNL     1      -5.821  -2.065 131.863  0.00  0.00    +0.000 OA
ATOM     16  C   UNL     1      -6.839   0.409 130.917  0.00  0.00    +0.000 C 
ATOM     17  C   UNL     1      -7.606   0.934 129.800  0.00  0.00    +0.000 C 
ATOM     18  C   UNL     1      -8.119   2.208 128.981  0.00  0.00    +0.000 C 
ATOM     19  C   UNL     1      -7.794   2.162 127.437  0.00  0.00    +0.000 C 
ATOM     20  C   UNL     1      -8.037   0.775 126.818  0.00  0.00    +0.000 C 
ENDROOT
BRANCH   5  21
ATOM     21  C   UNL     1      -9.208  -2.463 124.798  0.00  0.00    +0.000 C 
ATOM     22  C   UNL     1      -9.123  -3.135 123.376  0.00  0.00    +0.000 C 
ATOM     23  O   UNL     1      -9.945  -3.047 125.610  0.00  0.00    +0.000 OA
ENDBRANCH   5  21
BRANCH   5  24
ATOM     24  O   UNL     1      -9.452  -0.234 124.160  0.00  0.00    +0.000 OA
BRANCH  24  25
ATOM     25  C   UNL     1     -10.070   1.002 123.990  0.00  0.00    +0.000 C 
ATOM     26  C   UNL     1      -9.634   1.769 122.807  0.00  0.00    +0.000 C 
ATOM     27  O   UNL     1     -11.022   1.396 124.652  0.00  0.00    +0.000 OA
ENDBRANCH  24  25
ENDBRANCH   5  24
TORSDOF 3
ENDMDL
MODEL 8
REMARK VINA RESULT:      -8.2      4.547      8.013
REMARK  Name = Segesterone acetate
REMARK  6 active torsions:
REMARK  status: ('A' for Active; 'I' for Inactive)
REMARK    1  A    between atoms: C_6  and  O_7
REMARK    2  A    between atoms: C_6  and  C_11
REMARK    3  A    between atoms: O_7  and  C_8
REMARK    4  A    between atoms: C_8  and  C_9
REMARK    5  A    between atoms: C_11  and  C_12
REMARK    6  A    between atoms: C_14  and  C_15
REMARK                            x       y       z     vdW  Elec       q    Type
REMARK                         _______ _______ _______ _____ _____    ______ ____
ROOT
ATOM      1  C   UNL     1      -9.062   2.407 130.864  0.00  0.00    +0.000 C 
ATOM      2  C   UNL     1      -8.805   1.072 131.244  0.00  0.00    +0.000 C 
ATOM      3  C   UNL     1      -7.771   2.119 131.328  0.00  0.00    +0.000 C 
ATOM      4  C   UNL     1      -6.580   1.291 131.379  0.00  0.00    +0.000 C 
ATOM      5  C   UNL     1      -8.429   4.024 131.181  0.00  0.00    +0.000 C 
ATOM      6  C   UNL     1      -8.149   3.277 132.242  0.00  0.00    +0.000 C 
ATOM      7  C   UNL     1      -9.000   3.307 133.476  0.00  0.00    +0.000 C 
ATOM      8  C   UNL     1      -6.487   3.788 131.939  0.00  0.00    +0.000 C 
ATOM      9  C   UNL     1      -6.256   4.020 130.378  0.00  0.00    +0.000 C 
ATOM     10  C   UNL     1      -6.864   3.034 129.279  0.00  0.00    +0.000 C 
ATOM     11  C   UNL     1      -6.566   3.553 127.924  0.00  0.00    +0.000 C 
ATOM     12  C   UNL     1      -5.209   3.823 128.027  0.00  0.00    +0.000 C 
ATOM     13  C   UNL     1      -4.035   4.480 128.377  0.00  0.00    +0.000 C 
ATOM     14  C   UNL     1      -3.566   3.180 127.392  0.00  0.00    +0.000 C 
ATOM     15  O   UNL     1      -2.391   2.885 127.490  0.00  0.00    +0.000 OA
ATOM     16  C   UNL     1      -4.985   2.131 126.623  0.00  0.00    +0.000 C 
ATOM     17  C   UNL     1      -6.377   2.385 126.950  0.00  0.00    +0.000 C 
ATOM     18  C   UNL     1      -7.914   1.983 126.769  0.00  0.00    +0.000 C 
ATOM     19  C   UNL     1      -8.684   1.729 128.123  0.00  0.00    +0.000 C 
ATOM     20  C   UNL     1      -8.347   2.770 129.204  0.00  0.00    +0.000 C 
ENDROOT
BRANCH   5  21
ATOM     21  C   UNL     1      -8.215   5.662 131.951  0.00  0.00    +0.000 C 
ATOM     22  C   UNL     1      -7.764   6.943 131.154  0.00  0.00    +0.000 C 
ATOM     23  O   UNL     1      -8.406   5.843 133.166  0.00  0.00    +0.000 OA
ENDBRANCH   5  21
BRANCH   5  24
ATOM     24  O   UNL     1     -10.086   4.458 131.256  0.00  0.00    +0.000 OA
BRANCH  24  25
ATOM     25  C   UNL     1     -10.963   5.262 130.533  0.00  0.00    +0.000 C 
ATOM     26  C   UNL     1     -11.745   6.223 131.334  0.00  0.00    +0.000 C 
ATOM     27  O   UNL     1     -11.002   5.317 129.310  0.00  0.00    +0.000 OA
ENDBRANCH  24  25
ENDBRANCH   5  24
TORSDOF 3
ENDMDL
MODEL 9
REMARK VINA RESULT:      -8.2      1.911      3.682
REMARK  Name = Segesterone acetate
REMARK  6 active torsions:
REMARK  status: ('A' for Active; 'I' for Inactive)
REMARK    1  A    between atoms: C_6  and  O_7
REMARK    2  A    between atoms: C_6  and  C_11
REMARK    3  A    between atoms: O_7  and  C_8
REMARK    4  A    between atoms: C_8  and  C_9
REMARK    5  A    between atoms: C_11  and  C_12
REMARK    6  A    between atoms: C_14  and  C_15
REMARK                            x       y       z     vdW  Elec       q    Type
REMARK                         _______ _______ _______ _____ _____    ______ ____
ROOT
ATOM      1  C   UNL     1      -9.338   0.204 125.219  0.00  0.00    +0.000 C 
ATOM      2  C   UNL     1     -10.194   1.290 124.940  0.00  0.00    +0.000 C 
ATOM      3  C   UNL     1      -8.786   1.277 124.507  0.00  0.00    +0.000 C 
ATOM      4  C   UNL     1      -8.582   2.696 124.275  0.00  0.00    +0.000 C 
ATOM      5  C   UNL     1      -7.853  -0.514 124.589  0.00  0.00    +0.000 C 
ATOM      6  C   UNL     1      -8.444   0.117 123.581  0.00  0.00    +0.000 C 
ATOM      7  C   UNL     1      -9.288  -0.613 122.580  0.00  0.00    +0.000 C 
ATOM      8  C   UNL     1      -6.899   0.957 123.437  0.00  0.00    +0.000 C 
ATOM      9  C   UNL     1      -6.208   1.094 124.867  0.00  0.00    +0.000 C 
ATOM     10  C   UNL     1      -7.045   1.453 126.178  0.00  0.00    +0.000 C 
ATOM     11  C   UNL     1      -6.157   1.417 127.363  0.00  0.00    +0.000 C 
ATOM     12  C   UNL     1      -5.083   2.176 126.923  0.00  0.00    +0.000 C 
ATOM     13  C   UNL     1      -3.918   2.513 126.242  0.00  0.00    +0.000 C 
ATOM     14  C   UNL     1      -4.282   3.844 127.231  0.00  0.00    +0.000 C 
ATOM     15  O   UNL     1      -3.725   4.873 126.899  0.00  0.00    +0.000 OA
ATOM     16  C   UNL     1      -5.787   3.647 128.416  0.00  0.00    +0.000 C 
ATOM     17  C   UNL     1      -6.619   2.456 128.391  0.00  0.00    +0.000 C 
ATOM     18  C   UNL     1      -7.888   1.670 128.963  0.00  0.00    +0.000 C 
ATOM     19  C   UNL     1      -8.906   1.187 127.858  0.00  0.00    +0.000 C 
ATOM     20  C   UNL     1      -8.207   0.599 126.621  0.00  0.00    +0.000 C 
ENDROOT
BRANCH   5  21
ATOM     21  C   UNL     1      -6.742  -1.581 123.614  0.00  0.00    +0.000 C 
ATOM     22  C   UNL     1      -5.389  -2.161 124.171  0.00  0.00    +0.000 C 
ATOM     23  O   UNL     1      -7.002  -1.894 122.440  0.00  0.00    +0.000 OA
ENDBRANCH   5  21
BRANCH   5  24
ATOM     24  O   UNL     1      -8.676  -1.995 124.849  0.00  0.00    +0.000 OA
BRANCH  24  25
ATOM     25  C   UNL     1      -8.475  -3.156 125.590  0.00  0.00    +0.000 C 
ATOM     26  C   UNL     1      -8.728  -3.032 127.038  0.00  0.00    +0.000 C 
ATOM     27  O   UNL     1      -8.262  -4.259 125.103  0.00  0.00    +0.000 OA
ENDBRANCH  24  25
ENDBRANCH   5  24
TORSDOF 3
ENDMDL
