MODEL 1
REMARK VINA RESULT:      -4.2      0.000      0.000
REMARK  Name = Selenomethionine Se-75
REMARK  7 active torsions:
REMARK  status: ('A' for Active; 'I' for Inactive)
REMARK    1  A    between atoms: C_1  and  SE_2
REMARK    2  A    between atoms: SE_2  and  C_3
REMARK    3  A    between atoms: C_3  and  C_4
REMARK    4  A    between atoms: C_4  and  CA_5
REMARK    5  A    between atoms: CA_5  and  N_6
REMARK    6  A    between atoms: CA_5  and  C_7
REMARK    7  A    between atoms: C_7  and  O_8
REMARK                            x       y       z     vdW  Elec       q    Type
REMARK                         _______ _______ _______ _____ _____    ______ ____
ROOT
ATOM      1  CA  UNL     1     -11.776   7.797 127.086  0.00  0.00    +0.000 C 
ENDROOT
BRANCH   1   2
ATOM      2  N   UNL     1     -12.137   6.627 126.273  0.00  0.00    +0.000 NA
ATOM      3  H1  UNL     1     -13.030   6.797 125.810  0.00  0.00    +0.000 HD
ATOM      4  H2  UNL     1     -12.217   5.807 126.874  0.00  0.00    +0.000 HD
ENDBRANCH   1   2
BRANCH   1   5
ATOM      5  C   UNL     1     -10.459   7.532 127.798  0.00  0.00    +0.000 C 
ATOM      6  OXT UNL     1      -9.966   8.413 128.570  0.00  0.00    +0.000 OA
BRANCH   5   7
ATOM      7  O   UNL     1      -9.781   6.300 127.601  0.00  0.00    +0.000 OA
ATOM      8  H   UNL     1      -9.021   6.097 128.112  0.00  0.00    +0.000 HD
ENDBRANCH   5   7
ENDBRANCH   1   5
BRANCH   1   9
ATOM      9  C   UNL     1     -12.865   8.055 128.115  0.00  0.00    +0.000 C 
BRANCH   9  10
ATOM     10  C   UNL     1     -13.024   6.808 128.968  0.00  0.00    +0.000 C 
BRANCH  10  12
ATOM     11  C   UNL     1     -11.180   6.364 131.547  0.00  0.00    +0.000 C 
ATOM     12 SE   UNL     1     -12.774   7.271 130.856  0.00  0.00    +0.000 Se
ENDBRANCH  10  12
ENDBRANCH   9  10
ENDBRANCH   1   9
TORSDOF 6
ENDMDL
MODEL 2
REMARK VINA RESULT:      -4.1      1.971      2.093
REMARK  Name = Selenomethionine Se-75
REMARK  7 active torsions:
REMARK  status: ('A' for Active; 'I' for Inactive)
REMARK    1  A    between atoms: C_1  and  SE_2
REMARK    2  A    between atoms: SE_2  and  C_3
REMARK    3  A    between atoms: C_3  and  C_4
REMARK    4  A    between atoms: C_4  and  CA_5
REMARK    5  A    between atoms: CA_5  and  N_6
REMARK    6  A    between atoms: CA_5  and  C_7
REMARK    7  A    between atoms: C_7  and  O_8
REMARK                            x       y       z     vdW  Elec       q    Type
REMARK                         _______ _______ _______ _____ _____    ______ ____
ROOT
ATOM      1  CA  UNL     1     -11.414   7.807 127.996  0.00  0.00    +0.000 C 
ENDROOT
BRANCH   1   2
ATOM      2  N   UNL     1     -10.109   8.412 128.296  0.00  0.00    +0.000 NA
ATOM      3  H1  UNL     1      -9.364   7.784 127.992  0.00  0.00    +0.000 HD
ATOM      4  H2  UNL     1     -10.030   8.570 129.301  0.00  0.00    +0.000 HD
ENDBRANCH   1   2
BRANCH   1   5
ATOM      5  C   UNL     1     -11.486   7.466 126.516  0.00  0.00    +0.000 C 
ATOM      6  OXT UNL     1     -10.720   8.054 125.691  0.00  0.00    +0.000 OA
BRANCH   5   7
ATOM      7  O   UNL     1     -12.408   6.489 126.057  0.00  0.00    +0.000 OA
ATOM      8  H   UNL     1     -13.326   6.683 126.036  0.00  0.00    +0.000 HD
ENDBRANCH   5   7
ENDBRANCH   1   5
BRANCH   1   9
ATOM      9  C   UNL     1     -12.520   8.790 128.344  0.00  0.00    +0.000 C 
BRANCH   9  10
ATOM     10  C   UNL     1     -12.636   8.865 129.857  0.00  0.00    +0.000 C 
BRANCH  10  12
ATOM     11  C   UNL     1     -11.258   6.551 131.586  0.00  0.00    +0.000 C 
ATOM     12 SE   UNL     1     -12.864   7.060 130.586  0.00  0.00    +0.000 Se
ENDBRANCH  10  12
ENDBRANCH   9  10
ENDBRANCH   1   9
TORSDOF 6
ENDMDL
MODEL 3
REMARK VINA RESULT:      -4.1      1.999      2.294
REMARK  Name = Selenomethionine Se-75
REMARK  7 active torsions:
REMARK  status: ('A' for Active; 'I' for Inactive)
REMARK    1  A    between atoms: C_1  and  SE_2
REMARK    2  A    between atoms: SE_2  and  C_3
REMARK    3  A    between atoms: C_3  and  C_4
REMARK    4  A    between atoms: C_4  and  CA_5
REMARK    5  A    between atoms: CA_5  and  N_6
REMARK    6  A    between atoms: CA_5  and  C_7
REMARK    7  A    between atoms: C_7  and  O_8
REMARK                            x       y       z     vdW  Elec       q    Type
REMARK                         _______ _______ _______ _____ _____    ______ ____
ROOT
ATOM      1  CA  UNL     1     -11.674   7.848 127.400  0.00  0.00    +0.000 C 
ENDROOT
BRANCH   1   2
ATOM      2  N   UNL     1     -12.457   6.692 127.859  0.00  0.00    +0.000 NA
ATOM      3  H1  UNL     1     -11.875   6.100 128.452  0.00  0.00    +0.000 HD
ATOM      4  H2  UNL     1     -12.776   6.155 127.052  0.00  0.00    +0.000 HD
ENDBRANCH   1   2
BRANCH   1   5
ATOM      5  C   UNL     1     -10.791   7.431 126.235  0.00  0.00    +0.000 C 
ATOM      6  OXT UNL     1     -10.041   6.411 126.340  0.00  0.00    +0.000 OA
BRANCH   5   7
ATOM      7  O   UNL     1     -10.804   8.182 125.030  0.00  0.00    +0.000 OA
ATOM      8  H   UNL     1     -10.105   8.778 124.841  0.00  0.00    +0.000 HD
ENDBRANCH   5   7
ENDBRANCH   1   5
BRANCH   1   9
ATOM      9  C   UNL     1     -10.804   8.355 128.540  0.00  0.00    +0.000 C 
BRANCH   9  10
ATOM     10  C   UNL     1     -11.182   7.599 129.803  0.00  0.00    +0.000 C 
BRANCH  10  12
ATOM     11  C   UNL     1     -10.012   5.999 132.316  0.00  0.00    +0.000 C 
ATOM     12 SE   UNL     1      -9.585   6.745 130.555  0.00  0.00    +0.000 Se
ENDBRANCH  10  12
ENDBRANCH   9  10
ENDBRANCH   1   9
TORSDOF 6
ENDMDL
MODEL 4
REMARK VINA RESULT:      -3.9      2.371      2.973
REMARK  Name = Selenomethionine Se-75
REMARK  7 active torsions:
REMARK  status: ('A' for Active; 'I' for Inactive)
REMARK    1  A    between atoms: C_1  and  SE_2
REMARK    2  A    between atoms: SE_2  and  C_3
REMARK    3  A    between atoms: C_3  and  C_4
REMARK    4  A    between atoms: C_4  and  CA_5
REMARK    5  A    between atoms: CA_5  and  N_6
REMARK    6  A    between atoms: CA_5  and  C_7
REMARK    7  A    between atoms: C_7  and  O_8
REMARK                            x       y       z     vdW  Elec       q    Type
REMARK                         _______ _______ _______ _____ _____    ______ ____
ROOT
ATOM      1  CA  UNL     1     -11.211   7.184 127.916  0.00  0.00    +0.000 C 
ENDROOT
BRANCH   1   2
ATOM      2  N   UNL     1     -10.367   6.442 128.863  0.00  0.00    +0.000 NA
ATOM      3  H1  UNL     1     -10.941   5.775 129.380  0.00  0.00    +0.000 HD
ATOM      4  H2  UNL     1      -9.933   7.094 129.516  0.00  0.00    +0.000 HD
ENDBRANCH   1   2
BRANCH   1   5
ATOM      5  C   UNL     1     -10.557   7.180 126.544  0.00  0.00    +0.000 C 
ATOM      6  OXT UNL     1     -10.887   8.052 125.681  0.00  0.00    +0.000 OA
BRANCH   5   7
ATOM      7  O   UNL     1      -9.578   6.203 126.227  0.00  0.00    +0.000 OA
ATOM      8  H   UNL     1      -9.746   5.297 126.402  0.00  0.00    +0.000 HD
ENDBRANCH   5   7
ENDBRANCH   1   5
BRANCH   1   9
ATOM      9  C   UNL     1     -11.371   8.618 128.397  0.00  0.00    +0.000 C 
BRANCH   9  10
ATOM     10  C   UNL     1     -12.856   8.924 128.506  0.00  0.00    +0.000 C 
BRANCH  10  12
ATOM     11  C   UNL     1     -13.842  11.759 129.616  0.00  0.00    +0.000 C 
ATOM     12 SE   UNL     1     -13.188   9.983 130.122  0.00  0.00    +0.000 Se
ENDBRANCH  10  12
ENDBRANCH   9  10
ENDBRANCH   1   9
TORSDOF 6
ENDMDL
MODEL 5
REMARK VINA RESULT:      -3.8      3.077      4.031
REMARK  Name = Selenomethionine Se-75
REMARK  7 active torsions:
REMARK  status: ('A' for Active; 'I' for Inactive)
REMARK    1  A    between atoms: C_1  and  SE_2
REMARK    2  A    between atoms: SE_2  and  C_3
REMARK    3  A    between atoms: C_3  and  C_4
REMARK    4  A    between atoms: C_4  and  CA_5
REMARK    5  A    between atoms: CA_5  and  N_6
REMARK    6  A    between atoms: CA_5  and  C_7
REMARK    7  A    between atoms: C_7  and  O_8
REMARK                            x       y       z     vdW  Elec       q    Type
REMARK                         _______ _______ _______ _____ _____    ______ ____
ROOT
ATOM      1  CA  UNL     1     -10.491   5.889 130.574  0.00  0.00    +0.000 C 
ENDROOT
BRANCH   1   2
ATOM      2  N   UNL     1     -11.484   5.177 129.756  0.00  0.00    +0.000 NA
ATOM      3  H1  UNL     1     -12.136   5.849 129.351  0.00  0.00    +0.000 HD
ATOM      4  H2  UNL     1     -11.996   4.517 130.341  0.00  0.00    +0.000 HD
ENDBRANCH   1   2
BRANCH   1   5
ATOM      5  C   UNL     1     -11.129   6.318 131.885  0.00  0.00    +0.000 C 
ATOM      6  OXT UNL     1     -12.374   6.565 131.935  0.00  0.00    +0.000 OA
BRANCH   5   7
ATOM      7  O   UNL     1     -10.333   6.442 133.054  0.00  0.00    +0.000 OA
ATOM      8  H   UNL     1      -9.931   7.263 133.263  0.00  0.00    +0.000 HD
ENDBRANCH   5   7
ENDBRANCH   1   5
BRANCH   1   9
ATOM      9  C   UNL     1     -10.003   7.117 129.822  0.00  0.00    +0.000 C 
BRANCH   9  10
ATOM     10  C   UNL     1     -10.320   6.934 128.347  0.00  0.00    +0.000 C 
BRANCH  10  12
ATOM     11  C   UNL     1     -12.579   8.961 129.361  0.00  0.00    +0.000 C 
ATOM     12 SE   UNL     1     -11.630   8.281 127.788  0.00  0.00    +0.000 Se
ENDBRANCH  10  12
ENDBRANCH   9  10
ENDBRANCH   1   9
TORSDOF 6
ENDMDL
MODEL 6
REMARK VINA RESULT:      -3.8      2.852      3.801
REMARK  Name = Selenomethionine Se-75
REMARK  7 active torsions:
REMARK  status: ('A' for Active; 'I' for Inactive)
REMARK    1  A    between atoms: C_1  and  SE_2
REMARK    2  A    between atoms: SE_2  and  C_3
REMARK    3  A    between atoms: C_3  and  C_4
REMARK    4  A    between atoms: C_4  and  CA_5
REMARK    5  A    between atoms: CA_5  and  N_6
REMARK    6  A    between atoms: CA_5  and  C_7
REMARK    7  A    between atoms: C_7  and  O_8
REMARK                            x       y       z     vdW  Elec       q    Type
REMARK                         _______ _______ _______ _____ _____    ______ ____
ROOT
ATOM      1  CA  UNL     1     -11.189   6.315 130.412  0.00  0.00    +0.000 C 
ENDROOT
BRANCH   1   2
ATOM      2  N   UNL     1     -11.478   4.945 129.966  0.00  0.00    +0.000 NA
ATOM      3  H1  UNL     1     -10.648   4.548 129.524  0.00  0.00    +0.000 HD
ATOM      4  H2  UNL     1     -12.246   4.961 129.295  0.00  0.00    +0.000 HD
ENDBRANCH   1   2
BRANCH   1   5
ATOM      5  C   UNL     1     -10.297   6.270 131.642  0.00  0.00    +0.000 C 
ATOM      6  OXT UNL     1      -9.145   6.804 131.612  0.00  0.00    +0.000 OA
BRANCH   5   7
ATOM      7  O   UNL     1     -10.753   5.632 132.826  0.00  0.00    +0.000 OA
ATOM      8  H   UNL     1     -11.141   6.140 133.513  0.00  0.00    +0.000 HD
ENDBRANCH   5   7
ENDBRANCH   1   5
BRANCH   1   9
ATOM      9  C   UNL     1     -12.490   7.023 130.754  0.00  0.00    +0.000 C 
BRANCH   9  10
ATOM     10  C   UNL     1     -12.548   8.325 129.974  0.00  0.00    +0.000 C 
BRANCH  10  12
ATOM     11  C   UNL     1     -11.010   8.060 127.180  0.00  0.00    +0.000 C 
ATOM     12 SE   UNL     1     -12.754   7.934 128.064  0.00  0.00    +0.000 Se
ENDBRANCH  10  12
ENDBRANCH   9  10
ENDBRANCH   1   9
TORSDOF 6
ENDMDL
MODEL 7
REMARK VINA RESULT:      -3.7      2.679      3.609
REMARK  Name = Selenomethionine Se-75
REMARK  7 active torsions:
REMARK  status: ('A' for Active; 'I' for Inactive)
REMARK    1  A    between atoms: C_1  and  SE_2
REMARK    2  A    between atoms: SE_2  and  C_3
REMARK    3  A    between atoms: C_3  and  C_4
REMARK    4  A    between atoms: C_4  and  CA_5
REMARK    5  A    between atoms: CA_5  and  N_6
REMARK    6  A    between atoms: CA_5  and  C_7
REMARK    7  A    between atoms: C_7  and  O_8
REMARK                            x       y       z     vdW  Elec       q    Type
REMARK                         _______ _______ _______ _____ _____    ______ ____
ROOT
ATOM      1  CA  UNL     1     -11.409   6.037 131.203  0.00  0.00    +0.000 C 
ENDROOT
BRANCH   1   2
ATOM      2  N   UNL     1     -10.965   5.988 132.604  0.00  0.00    +0.000 NA
ATOM      3  H1  UNL     1     -10.056   6.444 132.689  0.00  0.00    +0.000 HD
ATOM      4  H2  UNL     1     -10.886   5.016 132.902  0.00  0.00    +0.000 HD
ENDBRANCH   1   2
BRANCH   1   5
ATOM      5  C   UNL     1     -10.204   6.227 130.296  0.00  0.00    +0.000 C 
ATOM      6  OXT UNL     1      -9.434   7.224 130.464  0.00  0.00    +0.000 OA
BRANCH   5   7
ATOM      7  O   UNL     1      -9.939   5.291 129.262  0.00  0.00    +0.000 OA
ATOM      8  H   UNL     1      -9.108   5.294 128.829  0.00  0.00    +0.000 HD
ENDBRANCH   5   7
ENDBRANCH   1   5
BRANCH   1   9
ATOM      9  C   UNL     1     -12.373   7.198 131.017  0.00  0.00    +0.000 C 
BRANCH   9  10
ATOM     10  C   UNL     1     -13.012   7.075 129.644  0.00  0.00    +0.000 C 
BRANCH  10  12
ATOM     11  C   UNL     1     -11.077   8.178 127.346  0.00  0.00    +0.000 C 
ATOM     12 SE   UNL     1     -12.543   8.640 128.562  0.00  0.00    +0.000 Se
ENDBRANCH  10  12
ENDBRANCH   9  10
ENDBRANCH   1   9
TORSDOF 6
ENDMDL
MODEL 8
REMARK VINA RESULT:      -3.7      2.659      3.702
REMARK  Name = Selenomethionine Se-75
REMARK  7 active torsions:
REMARK  status: ('A' for Active; 'I' for Inactive)
REMARK    1  A    between atoms: C_1  and  SE_2
REMARK    2  A    between atoms: SE_2  and  C_3
REMARK    3  A    between atoms: C_3  and  C_4
REMARK    4  A    between atoms: C_4  and  CA_5
REMARK    5  A    between atoms: CA_5  and  N_6
REMARK    6  A    between atoms: CA_5  and  C_7
REMARK    7  A    between atoms: C_7  and  O_8
REMARK                            x       y       z     vdW  Elec       q    Type
REMARK                         _______ _______ _______ _____ _____    ______ ____
ROOT
ATOM      1  CA  UNL     1      -9.714   5.995 129.853  0.00  0.00    +0.000 C 
ENDROOT
BRANCH   1   2
ATOM      2  N   UNL     1      -9.502   5.624 128.447  0.00  0.00    +0.000 NA
ATOM      3  H1  UNL     1      -9.609   4.614 128.342  0.00  0.00    +0.000 HD
ATOM      4  H2  UNL     1      -8.562   5.898 128.160  0.00  0.00    +0.000 HD
ENDBRANCH   1   2
BRANCH   1   5
ATOM      5  C   UNL     1     -10.906   5.230 130.405  0.00  0.00    +0.000 C 
ATOM      6  OXT UNL     1     -11.198   4.085 129.937  0.00  0.00    +0.000 OA
BRANCH   5   7
ATOM      7  O   UNL     1     -11.692   5.794 131.445  0.00  0.00    +0.000 OA
ATOM      8  H   UNL     1     -11.861   6.716 131.457  0.00  0.00    +0.000 HD
ENDBRANCH   5   7
ENDBRANCH   1   5
BRANCH   1   9
ATOM      9  C   UNL     1      -9.983   7.489 129.948  0.00  0.00    +0.000 C 
BRANCH   9  10
ATOM     10  C   UNL     1     -10.459   7.977 128.590  0.00  0.00    +0.000 C 
BRANCH  10  12
ATOM     11  C   UNL     1     -13.488   6.975 128.336  0.00  0.00    +0.000 C 
ATOM     12 SE   UNL     1     -12.340   8.517 128.713  0.00  0.00    +0.000 Se
ENDBRANCH  10  12
ENDBRANCH   9  10
ENDBRANCH   1   9
TORSDOF 6
ENDMDL
MODEL 9
REMARK VINA RESULT:      -3.6      2.169      2.629
REMARK  Name = Selenomethionine Se-75
REMARK  7 active torsions:
REMARK  status: ('A' for Active; 'I' for Inactive)
REMARK    1  A    between atoms: C_1  and  SE_2
REMARK    2  A    between atoms: SE_2  and  C_3
REMARK    3  A    between atoms: C_3  and  C_4
REMARK    4  A    between atoms: C_4  and  CA_5
REMARK    5  A    between atoms: CA_5  and  N_6
REMARK    6  A    between atoms: CA_5  and  C_7
REMARK    7  A    between atoms: C_7  and  O_8
REMARK                            x       y       z     vdW  Elec       q    Type
REMARK                         _______ _______ _______ _____ _____    ______ ____
ROOT
ATOM      1  CA  UNL     1     -10.721   6.770 128.168  0.00  0.00    +0.000 C 
ENDROOT
BRANCH   1   2
ATOM      2  N   UNL     1      -9.639   6.341 127.271  0.00  0.00    +0.000 NA
ATOM      3  H1  UNL     1      -8.778   6.831 127.517  0.00  0.00    +0.000 HD
ATOM      4  H2  UNL     1      -9.890   6.558 126.306  0.00  0.00    +0.000 HD
ENDBRANCH   1   2
BRANCH   1   5
ATOM      5  C   UNL     1     -11.863   7.345 127.345  0.00  0.00    +0.000 C 
ATOM      6  OXT UNL     1     -12.529   8.333 127.787  0.00  0.00    +0.000 OA
BRANCH   5   7
ATOM      7  O   UNL     1     -12.184   6.779 126.083  0.00  0.00    +0.000 OA
ATOM      8  H   UNL     1     -12.755   6.037 126.034  0.00  0.00    +0.000 HD
ENDBRANCH   5   7
ENDBRANCH   1   5
BRANCH   1   9
ATOM      9  C   UNL     1     -10.198   7.833 129.121  0.00  0.00    +0.000 C 
BRANCH   9  10
ATOM     10  C   UNL     1      -9.603   7.137 130.334  0.00  0.00    +0.000 C 
BRANCH  10  12
ATOM     11  C   UNL     1     -10.433   4.063 130.653  0.00  0.00    +0.000 C 
ATOM     12 SE   UNL     1     -10.925   5.907 131.096  0.00  0.00    +0.000 Se
ENDBRANCH  10  12
ENDBRANCH   9  10
ENDBRANCH   1   9
TORSDOF 6
ENDMDL
