MODEL 1
REMARK VINA RESULT:      -3.6      0.000      0.000
REMARK  Name = Selenic acid
REMARK  2 active torsions:
REMARK  status: ('A' for Active; 'I' for Inactive)
REMARK    1  A    between atoms: O_1  and  SE_2
REMARK    2  A    between atoms: SE_2  and  O_3
REMARK                            x       y       z     vdW  Elec       q    Type
REMARK                         _______ _______ _______ _____ _____    ______ ____
ROOT
ATOM      1 SE   UNL     1     -10.962   7.509 126.592  0.00  0.00    +0.000 Se
ATOM      2  O   UNL     1     -12.433   6.745 126.742  0.00  0.00    +0.000 OA
ATOM      3  O   UNL     1      -9.737   6.416 126.864  0.00  0.00    +0.000 OA
ENDROOT
BRANCH   1   4
ATOM      4  O   UNL     1     -10.799   8.207 124.875  0.00  0.00    +0.000 OA
ATOM      5  H   UNL     1     -10.121   8.900 124.870  0.00  0.00    +0.000 HD
ENDBRANCH   1   4
BRANCH   1   6
ATOM      6  O   UNL     1     -10.849   8.888 127.835  0.00  0.00    +0.000 OA
ATOM      7  H   UNL     1      -9.957   8.911 128.212  0.00  0.00    +0.000 HD
ENDBRANCH   1   6
TORSDOF 2
ENDMDL
MODEL 2
REMARK VINA RESULT:      -3.6      0.005      2.578
REMARK  Name = Selenic acid
REMARK  2 active torsions:
REMARK  status: ('A' for Active; 'I' for Inactive)
REMARK    1  A    between atoms: O_1  and  SE_2
REMARK    2  A    between atoms: SE_2  and  O_3
REMARK                            x       y       z     vdW  Elec       q    Type
REMARK                         _______ _______ _______ _____ _____    ______ ____
ROOT
ATOM      1 SE   UNL     1     -10.960   7.510 126.587  0.00  0.00    +0.000 Se
ATOM      2  O   UNL     1      -9.735   6.417 126.862  0.00  0.00    +0.000 OA
ATOM      3  O   UNL     1     -12.431   6.746 126.736  0.00  0.00    +0.000 OA
ENDROOT
BRANCH   1   4
ATOM      4  O   UNL     1     -10.850   8.888 127.832  0.00  0.00    +0.000 OA
ATOM      5  H   UNL     1     -10.263   8.624 128.557  0.00  0.00    +0.000 HD
ENDBRANCH   1   4
BRANCH   1   6
ATOM      6  O   UNL     1     -10.795   8.210 124.872  0.00  0.00    +0.000 OA
ATOM      7  H   UNL     1     -10.379   7.551 124.293  0.00  0.00    +0.000 HD
ENDBRANCH   1   6
TORSDOF 2
ENDMDL
MODEL 3
REMARK VINA RESULT:      -3.6      0.340      2.262
REMARK  Name = Selenic acid
REMARK  2 active torsions:
REMARK  status: ('A' for Active; 'I' for Inactive)
REMARK    1  A    between atoms: O_1  and  SE_2
REMARK    2  A    between atoms: SE_2  and  O_3
REMARK                            x       y       z     vdW  Elec       q    Type
REMARK                         _______ _______ _______ _____ _____    ______ ____
ROOT
ATOM      1 SE   UNL     1     -10.885   7.408 126.455  0.00  0.00    +0.000 Se
ATOM      2  O   UNL     1     -10.612   8.503 127.677  0.00  0.00    +0.000 OA
ATOM      3  O   UNL     1     -12.363   6.676 126.683  0.00  0.00    +0.000 OA
ENDROOT
BRANCH   1   4
ATOM      4  O   UNL     1     -10.877   8.292 124.818  0.00  0.00    +0.000 OA
ATOM      5  H   UNL     1     -10.107   8.879 124.771  0.00  0.00    +0.000 HD
ENDBRANCH   1   4
BRANCH   1   6
ATOM      6  O   UNL     1      -9.546   6.117 126.468  0.00  0.00    +0.000 OA
ATOM      7  H   UNL     1      -8.682   6.547 126.564  0.00  0.00    +0.000 HD
ENDBRANCH   1   6
TORSDOF 2
ENDMDL
MODEL 4
REMARK VINA RESULT:      -3.6      0.339      2.180
REMARK  Name = Selenic acid
REMARK  2 active torsions:
REMARK  status: ('A' for Active; 'I' for Inactive)
REMARK    1  A    between atoms: O_1  and  SE_2
REMARK    2  A    between atoms: SE_2  and  O_3
REMARK                            x       y       z     vdW  Elec       q    Type
REMARK                         _______ _______ _______ _____ _____    ______ ____
ROOT
ATOM      1 SE   UNL     1     -10.885   7.408 126.454  0.00  0.00    +0.000 Se
ATOM      2  O   UNL     1     -12.362   6.677 126.683  0.00  0.00    +0.000 OA
ATOM      3  O   UNL     1     -10.612   8.503 127.678  0.00  0.00    +0.000 OA
ENDROOT
BRANCH   1   4
ATOM      4  O   UNL     1      -9.546   6.117 126.468  0.00  0.00    +0.000 OA
ATOM      5  H   UNL     1      -9.818   5.362 125.924  0.00  0.00    +0.000 HD
ENDBRANCH   1   4
BRANCH   1   6
ATOM      6  O   UNL     1     -10.877   8.292 124.818  0.00  0.00    +0.000 OA
ATOM      7  H   UNL     1     -10.307   7.814 124.195  0.00  0.00    +0.000 HD
ENDBRANCH   1   6
TORSDOF 2
ENDMDL
MODEL 5
REMARK VINA RESULT:      -3.5      0.201      2.152
REMARK  Name = Selenic acid
REMARK  2 active torsions:
REMARK  status: ('A' for Active; 'I' for Inactive)
REMARK    1  A    between atoms: O_1  and  SE_2
REMARK    2  A    between atoms: SE_2  and  O_3
REMARK                            x       y       z     vdW  Elec       q    Type
REMARK                         _______ _______ _______ _____ _____    ______ ____
ROOT
ATOM      1 SE   UNL     1     -10.865   7.443 126.649  0.00  0.00    +0.000 Se
ATOM      2  O   UNL     1      -9.677   6.287 126.798  0.00  0.00    +0.000 OA
ATOM      3  O   UNL     1     -10.645   8.618 127.808  0.00  0.00    +0.000 OA
ENDROOT
BRANCH   1   4
ATOM      4  O   UNL     1     -10.769   8.215 124.960  0.00  0.00    +0.000 OA
ATOM      5  H   UNL     1      -9.874   8.103 124.602  0.00  0.00    +0.000 HD
ENDBRANCH   1   4
BRANCH   1   6
ATOM      6  O   UNL     1     -12.533   6.653 126.876  0.00  0.00    +0.000 OA
ATOM      7  H   UNL     1     -13.130   6.951 126.173  0.00  0.00    +0.000 HD
ENDBRANCH   1   6
TORSDOF 2
ENDMDL
MODEL 6
REMARK VINA RESULT:      -3.4      0.275      2.218
REMARK  Name = Selenic acid
REMARK  2 active torsions:
REMARK  status: ('A' for Active; 'I' for Inactive)
REMARK    1  A    between atoms: O_1  and  SE_2
REMARK    2  A    between atoms: SE_2  and  O_3
REMARK                            x       y       z     vdW  Elec       q    Type
REMARK                         _______ _______ _______ _____ _____    ______ ____
ROOT
ATOM      1 SE   UNL     1     -10.928   7.478 126.788  0.00  0.00    +0.000 Se
ATOM      2  O   UNL     1      -9.712   6.364 127.014  0.00  0.00    +0.000 OA
ATOM      3  O   UNL     1     -10.839   8.092 125.244  0.00  0.00    +0.000 OA
ENDROOT
BRANCH   1   4
ATOM      4  O   UNL     1     -12.577   6.652 127.033  0.00  0.00    +0.000 OA
ATOM      5  H   UNL     1     -13.223   7.305 127.342  0.00  0.00    +0.000 HD
ENDBRANCH   1   4
BRANCH   1   6
ATOM      6  O   UNL     1     -10.739   8.861 128.018  0.00  0.00    +0.000 OA
ATOM      7  H   UNL     1     -11.278   8.673 128.801  0.00  0.00    +0.000 HD
ENDBRANCH   1   6
TORSDOF 2
ENDMDL
MODEL 7
REMARK VINA RESULT:      -3.3      0.551      2.450
REMARK  Name = Selenic acid
REMARK  2 active torsions:
REMARK  status: ('A' for Active; 'I' for Inactive)
REMARK    1  A    between atoms: O_1  and  SE_2
REMARK    2  A    between atoms: SE_2  and  O_3
REMARK                            x       y       z     vdW  Elec       q    Type
REMARK                         _______ _______ _______ _____ _____    ______ ____
ROOT
ATOM      1 SE   UNL     1     -10.747   7.320 126.669  0.00  0.00    +0.000 Se
ATOM      2  O   UNL     1     -12.189   6.606 127.092  0.00  0.00    +0.000 OA
ATOM      3  O   UNL     1     -10.944   8.177 125.256  0.00  0.00    +0.000 OA
ENDROOT
BRANCH   1   4
ATOM      4  O   UNL     1     -10.207   8.475 128.023  0.00  0.00    +0.000 OA
ATOM      5  H   UNL     1     -10.323   9.393 127.732  0.00  0.00    +0.000 HD
ENDBRANCH   1   4
BRANCH   1   6
ATOM      6  O   UNL     1      -9.453   6.007 126.422  0.00  0.00    +0.000 OA
ATOM      7  H   UNL     1      -9.722   5.197 126.882  0.00  0.00    +0.000 HD
ENDBRANCH   1   6
TORSDOF 2
ENDMDL
MODEL 8
REMARK VINA RESULT:      -3.3      0.359      2.600
REMARK  Name = Selenic acid
REMARK  2 active torsions:
REMARK  status: ('A' for Active; 'I' for Inactive)
REMARK    1  A    between atoms: O_1  and  SE_2
REMARK    2  A    between atoms: SE_2  and  O_3
REMARK                            x       y       z     vdW  Elec       q    Type
REMARK                         _______ _______ _______ _____ _____    ______ ____
ROOT
ATOM      1 SE   UNL     1     -10.865   7.439 126.794  0.00  0.00    +0.000 Se
ATOM      2  O   UNL     1     -10.865   8.093 125.263  0.00  0.00    +0.000 OA
ATOM      3  O   UNL     1     -10.584   8.640 127.912  0.00  0.00    +0.000 OA
ENDROOT
BRANCH   1   4
ATOM      4  O   UNL     1     -12.516   6.653 127.131  0.00  0.00    +0.000 OA
ATOM      5  H   UNL     1     -13.224   7.241 126.825  0.00  0.00    +0.000 HD
ENDBRANCH   1   4
BRANCH   1   6
ATOM      6  O   UNL     1      -9.528   6.152 126.918  0.00  0.00    +0.000 OA
ATOM      7  H   UNL     1      -9.913   5.272 126.783  0.00  0.00    +0.000 HD
ENDBRANCH   1   6
TORSDOF 2
ENDMDL
MODEL 9
REMARK VINA RESULT:      -3.0      1.585      2.950
REMARK  Name = Selenic acid
REMARK  2 active torsions:
REMARK  status: ('A' for Active; 'I' for Inactive)
REMARK    1  A    between atoms: O_1  and  SE_2
REMARK    2  A    between atoms: SE_2  and  O_3
REMARK                            x       y       z     vdW  Elec       q    Type
REMARK                         _______ _______ _______ _____ _____    ______ ____
ROOT
ATOM      1 SE   UNL     1     -11.398   7.232 127.948  0.00  0.00    +0.000 Se
ATOM      2  O   UNL     1      -9.808   7.142 128.428  0.00  0.00    +0.000 OA
ATOM      3  O   UNL     1     -12.314   6.181 128.858  0.00  0.00    +0.000 OA
ENDROOT
BRANCH   1   4
ATOM      4  O   UNL     1     -12.022   8.967 128.191  0.00  0.00    +0.000 OA
ATOM      5  H   UNL     1     -11.739   9.294 129.059  0.00  0.00    +0.000 HD
ENDBRANCH   1   4
BRANCH   1   6
ATOM      6  O   UNL     1     -11.530   6.773 126.150  0.00  0.00    +0.000 OA
ATOM      7  H   UNL     1     -10.642   6.637 125.785  0.00  0.00    +0.000 HD
ENDBRANCH   1   6
TORSDOF 2
ENDMDL
