MODEL 1
REMARK VINA RESULT:      -3.0      0.000      0.000
REMARK  Name = Selenious acid
REMARK  2 active torsions:
REMARK  status: ('A' for Active; 'I' for Inactive)
REMARK    1  A    between atoms: O_1  and  SE_2
REMARK    2  A    between atoms: SE_2  and  O_3
REMARK                            x       y       z     vdW  Elec       q    Type
REMARK                         _______ _______ _______ _____ _____    ______ ____
ROOT
ATOM      1 SE   UNL     1     -11.022   7.470 126.543  0.00  0.00    +0.000 Se
ATOM      2  O   UNL     1      -9.772   6.449 126.952  0.00  0.00    +0.000 OA
ENDROOT
BRANCH   1   3
ATOM      3  O   UNL     1     -10.671   8.250 124.892  0.00  0.00    +0.000 OA
ATOM      4  H   UNL     1      -9.715   8.380 124.792  0.00  0.00    +0.000 HD
ENDBRANCH   1   3
BRANCH   1   5
ATOM      5  O   UNL     1     -12.607   6.500 126.447  0.00  0.00    +0.000 OA
ATOM      6  H   UNL     1     -12.411   5.585 126.192  0.00  0.00    +0.000 HD
ENDBRANCH   1   5
TORSDOF 2
ENDMDL
MODEL 2
REMARK VINA RESULT:      -3.0      1.437      2.106
REMARK  Name = Selenious acid
REMARK  2 active torsions:
REMARK  status: ('A' for Active; 'I' for Inactive)
REMARK    1  A    between atoms: O_1  and  SE_2
REMARK    2  A    between atoms: SE_2  and  O_3
REMARK                            x       y       z     vdW  Elec       q    Type
REMARK                         _______ _______ _______ _____ _____    ______ ____
ROOT
ATOM      1 SE   UNL     1     -10.954   7.531 126.632  0.00  0.00    +0.000 Se
ATOM      2  O   UNL     1      -9.777   6.384 126.892  0.00  0.00    +0.000 OA
ENDROOT
BRANCH   1   3
ATOM      3  O   UNL     1     -10.745   8.922 127.849  0.00  0.00    +0.000 OA
ATOM      4  H   UNL     1     -11.552   9.012 128.379  0.00  0.00    +0.000 HD
ENDBRANCH   1   3
BRANCH   1   5
ATOM      5  O   UNL     1     -10.802   8.194 124.901  0.00  0.00    +0.000 OA
ATOM      6  H   UNL     1     -10.778   9.164 124.926  0.00  0.00    +0.000 HD
ENDBRANCH   1   5
TORSDOF 2
ENDMDL
MODEL 3
REMARK VINA RESULT:      -3.0      0.184      2.528
REMARK  Name = Selenious acid
REMARK  2 active torsions:
REMARK  status: ('A' for Active; 'I' for Inactive)
REMARK    1  A    between atoms: O_1  and  SE_2
REMARK    2  A    between atoms: SE_2  and  O_3
REMARK                            x       y       z     vdW  Elec       q    Type
REMARK                         _______ _______ _______ _____ _____    ______ ____
ROOT
ATOM      1 SE   UNL     1     -11.040   7.511 126.615  0.00  0.00    +0.000 Se
ATOM      2  O   UNL     1     -12.482   6.681 126.637  0.00  0.00    +0.000 OA
ENDROOT
BRANCH   1   3
ATOM      3  O   UNL     1      -9.653   6.355 127.064  0.00  0.00    +0.000 OA
ATOM      4  H   UNL     1      -8.833   6.863 127.177  0.00  0.00    +0.000 HD
ENDBRANCH   1   3
BRANCH   1   5
ATOM      5  O   UNL     1     -10.746   8.201 124.913  0.00  0.00    +0.000 OA
ATOM      6  H   UNL     1     -10.931   7.517 124.251  0.00  0.00    +0.000 HD
ENDBRANCH   1   5
TORSDOF 2
ENDMDL
MODEL 4
REMARK VINA RESULT:      -2.8      1.458      1.998
REMARK  Name = Selenious acid
REMARK  2 active torsions:
REMARK  status: ('A' for Active; 'I' for Inactive)
REMARK    1  A    between atoms: O_1  and  SE_2
REMARK    2  A    between atoms: SE_2  and  O_3
REMARK                            x       y       z     vdW  Elec       q    Type
REMARK                         _______ _______ _______ _____ _____    ______ ____
ROOT
ATOM      1 SE   UNL     1     -10.879   7.506 126.658  0.00  0.00    +0.000 Se
ATOM      2  O   UNL     1     -10.586   8.726 127.751  0.00  0.00    +0.000 OA
ENDROOT
BRANCH   1   3
ATOM      3  O   UNL     1     -10.831   8.195 124.931  0.00  0.00    +0.000 OA
ATOM      4  H   UNL     1     -11.086   9.131 124.950  0.00  0.00    +0.000 HD
ENDBRANCH   1   3
BRANCH   1   5
ATOM      5  O   UNL     1      -9.579   6.188 126.836  0.00  0.00    +0.000 OA
ATOM      6  H   UNL     1      -9.962   5.323 126.622  0.00  0.00    +0.000 HD
ENDBRANCH   1   5
TORSDOF 2
ENDMDL
MODEL 5
REMARK VINA RESULT:      -2.8      1.563      2.022
REMARK  Name = Selenious acid
REMARK  2 active torsions:
REMARK  status: ('A' for Active; 'I' for Inactive)
REMARK    1  A    between atoms: O_1  and  SE_2
REMARK    2  A    between atoms: SE_2  and  O_3
REMARK                            x       y       z     vdW  Elec       q    Type
REMARK                         _______ _______ _______ _____ _____    ______ ____
ROOT
ATOM      1 SE   UNL     1     -10.863   7.556 126.775  0.00  0.00    +0.000 Se
ATOM      2  O   UNL     1      -9.830   6.498 127.540  0.00  0.00    +0.000 OA
ENDROOT
BRANCH   1   3
ATOM      3  O   UNL     1     -12.315   6.618 126.090  0.00  0.00    +0.000 OA
ATOM      4  H   UNL     1     -13.139   7.048 126.370  0.00  0.00    +0.000 HD
ENDBRANCH   1   3
BRANCH   1   5
ATOM      5  O   UNL     1     -11.464   8.826 127.994  0.00  0.00    +0.000 OA
ATOM      6  H   UNL     1     -11.216   8.555 128.892  0.00  0.00    +0.000 HD
ENDBRANCH   1   5
TORSDOF 2
ENDMDL
MODEL 6
REMARK VINA RESULT:      -2.7      3.662      4.677
REMARK  Name = Selenious acid
REMARK  2 active torsions:
REMARK  status: ('A' for Active; 'I' for Inactive)
REMARK    1  A    between atoms: O_1  and  SE_2
REMARK    2  A    between atoms: SE_2  and  O_3
REMARK                            x       y       z     vdW  Elec       q    Type
REMARK                         _______ _______ _______ _____ _____    ______ ____
ROOT
ATOM      1 SE   UNL     1      -7.767   4.798 125.507  0.00  0.00    +0.000 Se
ATOM      2  O   UNL     1      -9.031   5.699 126.109  0.00  0.00    +0.000 OA
ENDROOT
BRANCH   1   3
ATOM      3  O   UNL     1      -8.349   3.820 124.035  0.00  0.00    +0.000 OA
ATOM      4  H   UNL     1      -8.381   2.878 124.266  0.00  0.00    +0.000 HD
ENDBRANCH   1   3
BRANCH   1   5
ATOM      5  O   UNL     1      -6.387   5.933 124.990  0.00  0.00    +0.000 OA
ATOM      6  H   UNL     1      -5.831   5.488 124.331  0.00  0.00    +0.000 HD
ENDBRANCH   1   5
TORSDOF 2
ENDMDL
MODEL 7
REMARK VINA RESULT:      -2.7      1.453      2.209
REMARK  Name = Selenious acid
REMARK  2 active torsions:
REMARK  status: ('A' for Active; 'I' for Inactive)
REMARK    1  A    between atoms: O_1  and  SE_2
REMARK    2  A    between atoms: SE_2  and  O_3
REMARK                            x       y       z     vdW  Elec       q    Type
REMARK                         _______ _______ _______ _____ _____    ______ ____
ROOT
ATOM      1 SE   UNL     1     -10.904   7.541 126.722  0.00  0.00    +0.000 Se
ATOM      2  O   UNL     1     -11.411   8.580 127.919  0.00  0.00    +0.000 OA
ENDROOT
BRANCH   1   3
ATOM      3  O   UNL     1      -9.671   6.339 127.426  0.00  0.00    +0.000 OA
ATOM      4  H   UNL     1     -10.136   5.550 127.747  0.00  0.00    +0.000 HD
ENDBRANCH   1   3
BRANCH   1   5
ATOM      5  O   UNL     1     -12.365   6.607 126.050  0.00  0.00    +0.000 OA
ATOM      6  H   UNL     1     -12.055   5.867 125.506  0.00  0.00    +0.000 HD
ENDBRANCH   1   5
TORSDOF 2
ENDMDL
MODEL 8
REMARK VINA RESULT:      -2.7      7.542      8.172
REMARK  Name = Selenious acid
REMARK  2 active torsions:
REMARK  status: ('A' for Active; 'I' for Inactive)
REMARK    1  A    between atoms: O_1  and  SE_2
REMARK    2  A    between atoms: SE_2  and  O_3
REMARK                            x       y       z     vdW  Elec       q    Type
REMARK                         _______ _______ _______ _____ _____    ______ ____
ROOT
ATOM      1 SE   UNL     1      -4.888   4.612 121.446  0.00  0.00    +0.000 Se
ATOM      2  O   UNL     1      -5.467   4.683 123.005  0.00  0.00    +0.000 OA
ENDROOT
BRANCH   1   3
ATOM      3  O   UNL     1      -6.281   4.192 120.286  0.00  0.00    +0.000 OA
ATOM      4  H   UNL     1      -6.756   5.003 120.045  0.00  0.00    +0.000 HD
ENDBRANCH   1   3
BRANCH   1   5
ATOM      5  O   UNL     1      -4.167   6.261 120.977  0.00  0.00    +0.000 OA
ATOM      6  H   UNL     1      -4.445   6.492 120.076  0.00  0.00    +0.000 HD
ENDBRANCH   1   5
TORSDOF 2
ENDMDL
MODEL 9
REMARK VINA RESULT:      -2.7      0.355      2.585
REMARK  Name = Selenious acid
REMARK  2 active torsions:
REMARK  status: ('A' for Active; 'I' for Inactive)
REMARK    1  A    between atoms: O_1  and  SE_2
REMARK    2  A    between atoms: SE_2  and  O_3
REMARK                            x       y       z     vdW  Elec       q    Type
REMARK                         _______ _______ _______ _____ _____    ______ ____
ROOT
ATOM      1 SE   UNL     1     -11.014   7.509 126.762  0.00  0.00    +0.000 Se
ATOM      2  O   UNL     1     -10.822   8.087 125.213  0.00  0.00    +0.000 OA
ENDROOT
BRANCH   1   3
ATOM      3  O   UNL     1     -12.653   6.641 126.901  0.00  0.00    +0.000 OA
ATOM      4  H   UNL     1     -12.551   5.714 126.633  0.00  0.00    +0.000 HD
ENDBRANCH   1   3
BRANCH   1   5
ATOM      5  O   UNL     1      -9.644   6.314 127.152  0.00  0.00    +0.000 OA
ATOM      6  H   UNL     1      -9.105   6.168 126.358  0.00  0.00    +0.000 HD
ENDBRANCH   1   5
TORSDOF 2
ENDMDL
