MODEL 1
REMARK VINA RESULT:      -6.0      0.000      0.000
REMARK  Name = Selegiline
REMARK  7 active torsions:
REMARK  status: ('A' for Active; 'I' for Inactive)
REMARK    1  A    between atoms: C_1  and  C_2
REMARK    2  A    between atoms: C_2  and  C_3
REMARK    3  A    between atoms: C_2  and  N_10
REMARK    4  A    between atoms: C_3  and  C_4
REMARK    5  A    between atoms: N_10  and  C_11
REMARK    6  A    between atoms: N_10  and  C_12
REMARK    7  A    between atoms: C_12  and  C_13
REMARK                            x       y       z     vdW  Elec       q    Type
REMARK                         _______ _______ _______ _____ _____    ______ ____
ROOT
ATOM      1  C   UNL     1      -9.052  -2.979 123.215  0.00  0.00    +0.000 C 
ATOM      2  C   UNL     1      -7.851  -2.613 124.111  0.00  0.00    +0.000 C 
ENDROOT
BRANCH   2   3
ATOM      3  N   UNL     1      -6.730  -1.992 123.385  0.00  0.00    +0.000 NA
ATOM      4  C   UNL     1      -6.961  -0.537 123.206  0.00  0.00    +0.000 C 
BRANCH   3   5
ATOM      5  C   UNL     1      -5.524  -2.179 124.201  0.00  0.00    +0.000 C 
BRANCH   5   6
ATOM      6  C   UNL     1      -4.960  -3.554 123.878  0.00  0.00    +0.000 C 
ATOM      7  C   UNL     1      -4.477  -4.732 123.601  0.00  0.00    +0.000 C 
ENDBRANCH   5   6
ENDBRANCH   3   5
ENDBRANCH   2   3
BRANCH   2   8
ATOM      8  C   UNL     1      -8.373  -1.749 125.278  0.00  0.00    +0.000 C 
BRANCH   8   9
ATOM      9  C   UNL     1      -8.272  -2.406 126.636  0.00  0.00    +0.000 A 
ATOM     10  C   UNL     1      -8.967  -3.575 126.990  0.00  0.00    +0.000 A 
ATOM     11  C   UNL     1      -8.999  -4.012 128.309  0.00  0.00    +0.000 A 
ATOM     12  C   UNL     1      -8.280  -3.331 129.275  0.00  0.00    +0.000 A 
ATOM     13  C   UNL     1      -7.518  -2.215 128.928  0.00  0.00    +0.000 A 
ATOM     14  C   UNL     1      -7.516  -1.755 127.611  0.00  0.00    +0.000 A 
ENDBRANCH   8   9
ENDBRANCH   2   8
TORSDOF 5
ENDMDL
MODEL 2
REMARK VINA RESULT:      -5.8     11.221     12.744
REMARK  Name = Selegiline
REMARK  7 active torsions:
REMARK  status: ('A' for Active; 'I' for Inactive)
REMARK    1  A    between atoms: C_1  and  C_2
REMARK    2  A    between atoms: C_2  and  C_3
REMARK    3  A    between atoms: C_2  and  N_10
REMARK    4  A    between atoms: C_3  and  C_4
REMARK    5  A    between atoms: N_10  and  C_11
REMARK    6  A    between atoms: N_10  and  C_12
REMARK    7  A    between atoms: C_12  and  C_13
REMARK                            x       y       z     vdW  Elec       q    Type
REMARK                         _______ _______ _______ _____ _____    ______ ____
ROOT
ATOM      1  C   UNL     1     -10.864   7.972 126.946  0.00  0.00    +0.000 C 
ATOM      2  C   UNL     1     -11.404   8.234 128.368  0.00  0.00    +0.000 C 
ENDROOT
BRANCH   2   3
ATOM      3  N   UNL     1     -12.678   8.972 128.397  0.00  0.00    +0.000 NA
ATOM      4  C   UNL     1     -13.797   8.109 127.943  0.00  0.00    +0.000 C 
BRANCH   3   5
ATOM      5  C   UNL     1     -12.925   9.364 129.790  0.00  0.00    +0.000 C 
BRANCH   5   6
ATOM      6  C   UNL     1     -13.432  10.797 129.780  0.00  0.00    +0.000 C 
ATOM      7  C   UNL     1     -13.866  12.027 129.772  0.00  0.00    +0.000 C 
ENDBRANCH   5   6
ENDBRANCH   3   5
ENDBRANCH   2   3
BRANCH   2   8
ATOM      8  C   UNL     1     -11.467   6.883 129.110  0.00  0.00    +0.000 C 
BRANCH   8   9
ATOM      9  C   UNL     1     -10.500   6.758 130.265  0.00  0.00    +0.000 A 
ATOM     10  C   UNL     1      -9.139   7.102 130.184  0.00  0.00    +0.000 A 
ATOM     11  C   UNL     1      -8.259   6.772 131.207  0.00  0.00    +0.000 A 
ATOM     12  C   UNL     1      -8.738   6.162 132.353  0.00  0.00    +0.000 A 
ATOM     13  C   UNL     1     -10.099   5.886 132.487  0.00  0.00    +0.000 A 
ATOM     14  C   UNL     1     -10.976   6.184 131.444  0.00  0.00    +0.000 A 
ENDBRANCH   8   9
ENDBRANCH   2   8
TORSDOF 5
ENDMDL
MODEL 3
REMARK VINA RESULT:      -5.4      9.832     11.525
REMARK  Name = Selegiline
REMARK  7 active torsions:
REMARK  status: ('A' for Active; 'I' for Inactive)
REMARK    1  A    between atoms: C_1  and  C_2
REMARK    2  A    between atoms: C_2  and  C_3
REMARK    3  A    between atoms: C_2  and  N_10
REMARK    4  A    between atoms: C_3  and  C_4
REMARK    5  A    between atoms: N_10  and  C_11
REMARK    6  A    between atoms: N_10  and  C_12
REMARK    7  A    between atoms: C_12  and  C_13
REMARK                            x       y       z     vdW  Elec       q    Type
REMARK                         _______ _______ _______ _____ _____    ______ ____
ROOT
ATOM      1  C   UNL     1     -11.149   4.316 130.357  0.00  0.00    +0.000 C 
ATOM      2  C   UNL     1     -11.240   5.850 130.497  0.00  0.00    +0.000 C 
ENDROOT
BRANCH   2   3
ATOM      3  N   UNL     1     -12.577   6.398 130.213  0.00  0.00    +0.000 NA
ATOM      4  C   UNL     1     -12.802   7.654 130.971  0.00  0.00    +0.000 C 
BRANCH   3   5
ATOM      5  C   UNL     1     -12.630   6.700 128.778  0.00  0.00    +0.000 C 
BRANCH   5   6
ATOM      6  C   UNL     1     -11.486   7.653 128.468  0.00  0.00    +0.000 C 
ATOM      7  C   UNL     1     -10.506   8.470 128.202  0.00  0.00    +0.000 C 
ENDBRANCH   5   6
ENDBRANCH   3   5
ENDBRANCH   2   3
BRANCH   2   8
ATOM      8  C   UNL     1     -10.710   6.232 131.895  0.00  0.00    +0.000 C 
BRANCH   8   9
ATOM      9  C   UNL     1      -9.205   6.342 131.985  0.00  0.00    +0.000 A 
ATOM     10  C   UNL     1      -8.403   6.906 130.977  0.00  0.00    +0.000 A 
ATOM     11  C   UNL     1      -7.019   6.791 131.022  0.00  0.00    +0.000 A 
ATOM     12  C   UNL     1      -6.416   6.178 132.105  0.00  0.00    +0.000 A 
ATOM     13  C   UNL     1      -7.191   5.685 133.155  0.00  0.00    +0.000 A 
ATOM     14  C   UNL     1      -8.582   5.767 133.093  0.00  0.00    +0.000 A 
ENDBRANCH   8   9
ENDBRANCH   2   8
TORSDOF 5
ENDMDL
MODEL 4
REMARK VINA RESULT:      -5.4      9.670     11.464
REMARK  Name = Selegiline
REMARK  7 active torsions:
REMARK  status: ('A' for Active; 'I' for Inactive)
REMARK    1  A    between atoms: C_1  and  C_2
REMARK    2  A    between atoms: C_2  and  C_3
REMARK    3  A    between atoms: C_2  and  N_10
REMARK    4  A    between atoms: C_3  and  C_4
REMARK    5  A    between atoms: N_10  and  C_11
REMARK    6  A    between atoms: N_10  and  C_12
REMARK    7  A    between atoms: C_12  and  C_13
REMARK                            x       y       z     vdW  Elec       q    Type
REMARK                         _______ _______ _______ _____ _____    ______ ____
ROOT
ATOM      1  C   UNL     1      -8.978   7.223 130.365  0.00  0.00    +0.000 C 
ATOM      2  C   UNL     1     -10.038   6.103 130.392  0.00  0.00    +0.000 C 
ENDROOT
BRANCH   2   3
ATOM      3  N   UNL     1      -9.601   4.882 131.090  0.00  0.00    +0.000 NA
ATOM      4  C   UNL     1      -9.666   5.064 132.561  0.00  0.00    +0.000 C 
BRANCH   3   5
ATOM      5  C   UNL     1     -10.525   3.806 130.709  0.00  0.00    +0.000 C 
BRANCH   5   6
ATOM      6  C   UNL     1     -10.039   2.528 131.375  0.00  0.00    +0.000 C 
ATOM      7  C   UNL     1      -9.623   1.433 131.947  0.00  0.00    +0.000 C 
ENDBRANCH   5   6
ENDBRANCH   3   5
ENDBRANCH   2   3
BRANCH   2   8
ATOM      8  C   UNL     1     -11.343   6.696 130.964  0.00  0.00    +0.000 C 
BRANCH   8   9
ATOM      9  C   UNL     1     -12.286   7.253 129.922  0.00  0.00    +0.000 A 
ATOM     10  C   UNL     1     -12.948   6.462 128.967  0.00  0.00    +0.000 A 
ATOM     11  C   UNL     1     -13.634   7.048 127.910  0.00  0.00    +0.000 A 
ATOM     12  C   UNL     1     -13.730   8.426 127.834  0.00  0.00    +0.000 A 
ATOM     13  C   UNL     1     -13.149   9.226 128.819  0.00  0.00    +0.000 A 
ATOM     14  C   UNL     1     -12.429   8.640 129.858  0.00  0.00    +0.000 A 
ENDBRANCH   8   9
ENDBRANCH   2   8
TORSDOF 5
ENDMDL
MODEL 5
REMARK VINA RESULT:      -5.3      4.046      7.573
REMARK  Name = Selegiline
REMARK  7 active torsions:
REMARK  status: ('A' for Active; 'I' for Inactive)
REMARK    1  A    between atoms: C_1  and  C_2
REMARK    2  A    between atoms: C_2  and  C_3
REMARK    3  A    between atoms: C_2  and  N_10
REMARK    4  A    between atoms: C_3  and  C_4
REMARK    5  A    between atoms: N_10  and  C_11
REMARK    6  A    between atoms: N_10  and  C_12
REMARK    7  A    between atoms: C_12  and  C_13
REMARK                            x       y       z     vdW  Elec       q    Type
REMARK                         _______ _______ _______ _____ _____    ______ ____
ROOT
ATOM      1  C   UNL     1      -6.594   2.094 124.411  0.00  0.00    +0.000 C 
ATOM      2  C   UNL     1      -7.553   1.621 123.299  0.00  0.00    +0.000 C 
ENDROOT
BRANCH   2   3
ATOM      3  N   UNL     1      -8.335   0.424 123.652  0.00  0.00    +0.000 NA
ATOM      4  C   UNL     1      -9.680   0.471 123.028  0.00  0.00    +0.000 C 
BRANCH   3   5
ATOM      5  C   UNL     1      -7.613  -0.741 123.125  0.00  0.00    +0.000 C 
BRANCH   5   6
ATOM      6  C   UNL     1      -8.542  -1.941 123.229  0.00  0.00    +0.000 C 
ATOM      7  C   UNL     1      -9.339  -2.968 123.319  0.00  0.00    +0.000 C 
ENDBRANCH   5   6
ENDBRANCH   3   5
ENDBRANCH   2   3
BRANCH   2   8
ATOM      8  C   UNL     1      -8.431   2.820 122.885  0.00  0.00    +0.000 C 
BRANCH   8   9
ATOM      9  C   UNL     1      -8.027   3.471 121.581  0.00  0.00    +0.000 A 
ATOM     10  C   UNL     1      -8.932   3.782 120.552  0.00  0.00    +0.000 A 
ATOM     11  C   UNL     1      -8.478   4.184 119.302  0.00  0.00    +0.000 A 
ATOM     12  C   UNL     1      -7.122   4.350 119.086  0.00  0.00    +0.000 A 
ATOM     13  C   UNL     1      -6.212   4.124 120.120  0.00  0.00    +0.000 A 
ATOM     14  C   UNL     1      -6.666   3.685 121.363  0.00  0.00    +0.000 A 
ENDBRANCH   8   9
ENDBRANCH   2   8
TORSDOF 5
ENDMDL
MODEL 6
REMARK VINA RESULT:      -5.3      1.914      2.999
REMARK  Name = Selegiline
REMARK  7 active torsions:
REMARK  status: ('A' for Active; 'I' for Inactive)
REMARK    1  A    between atoms: C_1  and  C_2
REMARK    2  A    between atoms: C_2  and  C_3
REMARK    3  A    between atoms: C_2  and  N_10
REMARK    4  A    between atoms: C_3  and  C_4
REMARK    5  A    between atoms: N_10  and  C_11
REMARK    6  A    between atoms: N_10  and  C_12
REMARK    7  A    between atoms: C_12  and  C_13
REMARK                            x       y       z     vdW  Elec       q    Type
REMARK                         _______ _______ _______ _____ _____    ______ ____
ROOT
ATOM      1  C   UNL     1      -9.451   0.760 125.751  0.00  0.00    +0.000 C 
ATOM      2  C   UNL     1      -8.666  -0.404 125.112  0.00  0.00    +0.000 C 
ENDROOT
BRANCH   2   3
ATOM      3  N   UNL     1      -8.224  -0.142 123.732  0.00  0.00    +0.000 NA
ATOM      4  C   UNL     1      -6.922  -0.802 123.462  0.00  0.00    +0.000 C 
BRANCH   3   5
ATOM      5  C   UNL     1      -9.234  -0.712 122.832  0.00  0.00    +0.000 C 
BRANCH   5   6
ATOM      6  C   UNL     1      -9.376  -2.186 123.180  0.00  0.00    +0.000 C 
ATOM      7  C   UNL     1      -9.499  -3.449 123.477  0.00  0.00    +0.000 C 
ENDBRANCH   5   6
ENDBRANCH   3   5
ENDBRANCH   2   3
BRANCH   2   8
ATOM      8  C   UNL     1      -7.508  -0.774 126.062  0.00  0.00    +0.000 C 
BRANCH   8   9
ATOM      9  C   UNL     1      -7.909  -1.654 127.224  0.00  0.00    +0.000 A 
ATOM     10  C   UNL     1      -7.598  -1.366 128.564  0.00  0.00    +0.000 A 
ATOM     11  C   UNL     1      -7.808  -2.310 129.562  0.00  0.00    +0.000 A 
ATOM     12  C   UNL     1      -8.398  -3.521 129.248  0.00  0.00    +0.000 A 
ATOM     13  C   UNL     1      -8.789  -3.793 127.937  0.00  0.00    +0.000 A 
ATOM     14  C   UNL     1      -8.543  -2.862 126.929  0.00  0.00    +0.000 A 
ENDBRANCH   8   9
ENDBRANCH   2   8
TORSDOF 5
ENDMDL
MODEL 7
REMARK VINA RESULT:      -5.2      1.659      2.409
REMARK  Name = Selegiline
REMARK  7 active torsions:
REMARK  status: ('A' for Active; 'I' for Inactive)
REMARK    1  A    between atoms: C_1  and  C_2
REMARK    2  A    between atoms: C_2  and  C_3
REMARK    3  A    between atoms: C_2  and  N_10
REMARK    4  A    between atoms: C_3  and  C_4
REMARK    5  A    between atoms: N_10  and  C_11
REMARK    6  A    between atoms: N_10  and  C_12
REMARK    7  A    between atoms: C_12  and  C_13
REMARK                            x       y       z     vdW  Elec       q    Type
REMARK                         _______ _______ _______ _____ _____    ______ ____
ROOT
ATOM      1  C   UNL     1      -9.153  -2.425 125.889  0.00  0.00    +0.000 C 
ATOM      2  C   UNL     1      -7.653  -2.769 125.791  0.00  0.00    +0.000 C 
ENDROOT
BRANCH   2   3
ATOM      3  N   UNL     1      -7.135  -2.803 124.413  0.00  0.00    +0.000 NA
ATOM      4  C   UNL     1      -7.815  -1.787 123.570  0.00  0.00    +0.000 C 
BRANCH   3   5
ATOM      5  C   UNL     1      -5.704  -2.478 124.475  0.00  0.00    +0.000 C 
BRANCH   5   6
ATOM      6  C   UNL     1      -4.938  -3.693 123.976  0.00  0.00    +0.000 C 
ATOM      7  C   UNL     1      -4.280  -4.734 123.547  0.00  0.00    +0.000 C 
ENDBRANCH   5   6
ENDBRANCH   3   5
ENDBRANCH   2   3
BRANCH   2   8
ATOM      8  C   UNL     1      -6.881  -1.796 126.707  0.00  0.00    +0.000 C 
BRANCH   8   9
ATOM      9  C   UNL     1      -6.335  -2.425 127.969  0.00  0.00    +0.000 A 
ATOM     10  C   UNL     1      -4.963  -2.538 128.254  0.00  0.00    +0.000 A 
ATOM     11  C   UNL     1      -4.520  -3.307 129.323  0.00  0.00    +0.000 A 
ATOM     12  C   UNL     1      -5.439  -3.911 130.161  0.00  0.00    +0.000 A 
ATOM     13  C   UNL     1      -6.806  -3.743 129.943  0.00  0.00    +0.000 A 
ATOM     14  C   UNL     1      -7.251  -3.002 128.849  0.00  0.00    +0.000 A 
ENDBRANCH   8   9
ENDBRANCH   2   8
TORSDOF 5
ENDMDL
MODEL 8
REMARK VINA RESULT:      -5.1      2.933      5.218
REMARK  Name = Selegiline
REMARK  7 active torsions:
REMARK  status: ('A' for Active; 'I' for Inactive)
REMARK    1  A    between atoms: C_1  and  C_2
REMARK    2  A    between atoms: C_2  and  C_3
REMARK    3  A    between atoms: C_2  and  N_10
REMARK    4  A    between atoms: C_3  and  C_4
REMARK    5  A    between atoms: N_10  and  C_11
REMARK    6  A    between atoms: N_10  and  C_12
REMARK    7  A    between atoms: C_12  and  C_13
REMARK                            x       y       z     vdW  Elec       q    Type
REMARK                         _______ _______ _______ _____ _____    ______ ____
ROOT
ATOM      1  C   UNL     1      -6.456   1.526 125.000  0.00  0.00    +0.000 C 
ATOM      2  C   UNL     1      -7.318   1.152 123.777  0.00  0.00    +0.000 C 
ENDROOT
BRANCH   2   3
ATOM      3  N   UNL     1      -7.371   2.196 122.739  0.00  0.00    +0.000 NA
ATOM      4  C   UNL     1      -8.745   2.741 122.611  0.00  0.00    +0.000 C 
BRANCH   3   5
ATOM      5  C   UNL     1      -6.474   3.279 123.163  0.00  0.00    +0.000 C 
BRANCH   5   6
ATOM      6  C   UNL     1      -5.796   3.826 121.917  0.00  0.00    +0.000 C 
ATOM      7  C   UNL     1      -5.215   4.294 120.848  0.00  0.00    +0.000 C 
ENDBRANCH   5   6
ENDBRANCH   3   5
ENDBRANCH   2   3
BRANCH   2   8
ATOM      8  C   UNL     1      -6.823  -0.209 123.244  0.00  0.00    +0.000 C 
BRANCH   8   9
ATOM      9  C   UNL     1      -7.612  -1.399 123.741  0.00  0.00    +0.000 A 
ATOM     10  C   UNL     1      -7.242  -2.170 124.857  0.00  0.00    +0.000 A 
ATOM     11  C   UNL     1      -7.886  -3.369 125.140  0.00  0.00    +0.000 A 
ATOM     12  C   UNL     1      -8.951  -3.776 124.357  0.00  0.00    +0.000 A 
ATOM     13  C   UNL     1      -9.386  -2.984 123.294  0.00  0.00    +0.000 A 
ATOM     14  C   UNL     1      -8.716  -1.800 122.988  0.00  0.00    +0.000 A 
ENDBRANCH   8   9
ENDBRANCH   2   8
TORSDOF 5
ENDMDL
MODEL 9
REMARK VINA RESULT:      -5.1      9.667     11.564
REMARK  Name = Selegiline
REMARK  7 active torsions:
REMARK  status: ('A' for Active; 'I' for Inactive)
REMARK    1  A    between atoms: C_1  and  C_2
REMARK    2  A    between atoms: C_2  and  C_3
REMARK    3  A    between atoms: C_2  and  N_10
REMARK    4  A    between atoms: C_3  and  C_4
REMARK    5  A    between atoms: N_10  and  C_11
REMARK    6  A    between atoms: N_10  and  C_12
REMARK    7  A    between atoms: C_12  and  C_13
REMARK                            x       y       z     vdW  Elec       q    Type
REMARK                         _______ _______ _______ _____ _____    ______ ____
ROOT
ATOM      1  C   UNL     1      -8.673   4.970 129.437  0.00  0.00    +0.000 C 
ATOM      2  C   UNL     1      -8.717   5.824 130.721  0.00  0.00    +0.000 C 
ENDROOT
BRANCH   2   3
ATOM      3  N   UNL     1      -7.520   5.692 131.569  0.00  0.00    +0.000 NA
ATOM      4  C   UNL     1      -6.558   6.788 131.294  0.00  0.00    +0.000 C 
BRANCH   3   5
ATOM      5  C   UNL     1      -7.960   5.794 132.966  0.00  0.00    +0.000 C 
BRANCH   5   6
ATOM      6  C   UNL     1      -8.660   4.492 133.321  0.00  0.00    +0.000 C 
ATOM      7  C   UNL     1      -9.260   3.376 133.626  0.00  0.00    +0.000 C 
ENDBRANCH   5   6
ENDBRANCH   3   5
ENDBRANCH   2   3
BRANCH   2   8
ATOM      8  C   UNL     1      -9.015   7.282 130.312  0.00  0.00    +0.000 C 
BRANCH   8   9
ATOM      9  C   UNL     1     -10.392   7.498 129.726  0.00  0.00    +0.000 A 
ATOM     10  C   UNL     1     -10.626   8.162 128.510  0.00  0.00    +0.000 A 
ATOM     11  C   UNL     1     -11.916   8.513 128.127  0.00  0.00    +0.000 A 
ATOM     12  C   UNL     1     -12.990   8.140 128.914  0.00  0.00    +0.000 A 
ATOM     13  C   UNL     1     -12.784   7.408 130.084  0.00  0.00    +0.000 A 
ATOM     14  C   UNL     1     -11.488   7.089 130.487  0.00  0.00    +0.000 A 
ENDBRANCH   8   9
ENDBRANCH   2   8
TORSDOF 5
ENDMDL
