MODEL 1
REMARK VINA RESULT:      -4.2      0.000      0.000
REMARK  Name = Selenomethionine
REMARK  7 active torsions:
REMARK  status: ('A' for Active; 'I' for Inactive)
REMARK    1  A    between atoms: C_1  and  SE_2
REMARK    2  A    between atoms: SE_2  and  C_3
REMARK    3  A    between atoms: C_3  and  C_4
REMARK    4  A    between atoms: C_4  and  CA_5
REMARK    5  A    between atoms: CA_5  and  N_6
REMARK    6  A    between atoms: CA_5  and  C_7
REMARK    7  A    between atoms: C_7  and  O_8
REMARK                            x       y       z     vdW  Elec       q    Type
REMARK                         _______ _______ _______ _____ _____    ______ ____
ROOT
ATOM      1  CA  UNL     1     -11.664   7.785 127.125  0.00  0.00    +0.000 C 
ENDROOT
BRANCH   1   2
ATOM      2  N   UNL     1     -12.103   6.674 126.269  0.00  0.00    +0.000 NA
ATOM      3  H1  UNL     1     -13.110   6.740 126.117  0.00  0.00    +0.000 HD
ATOM      4  H2  UNL     1     -11.884   5.787 126.723  0.00  0.00    +0.000 HD
ENDBRANCH   1   2
BRANCH   1   5
ATOM      5  C   UNL     1     -10.386   7.392 127.849  0.00  0.00    +0.000 C 
ATOM      6  OXT UNL     1      -9.805   6.299 127.563  0.00  0.00    +0.000 OA
BRANCH   5   7
ATOM      7  O   UNL     1      -9.843   8.246 128.844  0.00  0.00    +0.000 OA
ATOM      8  H   UNL     1     -10.239   9.079 129.015  0.00  0.00    +0.000 HD
ENDBRANCH   5   7
ENDBRANCH   1   5
BRANCH   1   9
ATOM      9  C   UNL     1     -12.747   8.099 128.143  0.00  0.00    +0.000 C 
BRANCH   9  10
ATOM     10  C   UNL     1     -13.029   6.878 129.004  0.00  0.00    +0.000 C 
BRANCH  10  12
ATOM     11  C   UNL     1     -11.271   6.348 131.626  0.00  0.00    +0.000 C 
ATOM     12 SE   UNL     1     -12.793   7.343 130.893  0.00  0.00    +0.000 Se
ENDBRANCH  10  12
ENDBRANCH   9  10
ENDBRANCH   1   9
TORSDOF 6
ENDMDL
MODEL 2
REMARK VINA RESULT:      -4.2      2.033      2.347
REMARK  Name = Selenomethionine
REMARK  7 active torsions:
REMARK  status: ('A' for Active; 'I' for Inactive)
REMARK    1  A    between atoms: C_1  and  SE_2
REMARK    2  A    between atoms: SE_2  and  C_3
REMARK    3  A    between atoms: C_3  and  C_4
REMARK    4  A    between atoms: C_4  and  CA_5
REMARK    5  A    between atoms: CA_5  and  N_6
REMARK    6  A    between atoms: CA_5  and  C_7
REMARK    7  A    between atoms: C_7  and  O_8
REMARK                            x       y       z     vdW  Elec       q    Type
REMARK                         _______ _______ _______ _____ _____    ______ ____
ROOT
ATOM      1  CA  UNL     1     -10.977   7.145 127.854  0.00  0.00    +0.000 C 
ENDROOT
BRANCH   1   2
ATOM      2  N   UNL     1      -9.671   6.474 127.915  0.00  0.00    +0.000 NA
ATOM      3  H1  UNL     1      -9.365   6.413 128.887  0.00  0.00    +0.000 HD
ATOM      4  H2  UNL     1      -8.988   7.008 127.376  0.00  0.00    +0.000 HD
ENDBRANCH   1   2
BRANCH   1   5
ATOM      5  C   UNL     1     -11.406   7.288 126.403  0.00  0.00    +0.000 C 
ATOM      6  OXT UNL     1     -10.764   8.058 125.624  0.00  0.00    +0.000 OA
BRANCH   5   7
ATOM      7  O   UNL     1     -12.526   6.562 125.920  0.00  0.00    +0.000 OA
ATOM      8  H   UNL     1     -12.396   5.778 125.420  0.00  0.00    +0.000 HD
ENDBRANCH   5   7
ENDBRANCH   1   5
BRANCH   1   9
ATOM      9  C   UNL     1     -10.869   8.522 128.489  0.00  0.00    +0.000 C 
BRANCH   9  10
ATOM     10  C   UNL     1     -12.153   8.862 129.229  0.00  0.00    +0.000 C 
BRANCH  10  12
ATOM     11  C   UNL     1     -11.903   6.643 131.522  0.00  0.00    +0.000 C 
ATOM     12 SE   UNL     1     -12.938   7.222 129.961  0.00  0.00    +0.000 Se
ENDBRANCH  10  12
ENDBRANCH   9  10
ENDBRANCH   1   9
TORSDOF 6
ENDMDL
MODEL 3
REMARK VINA RESULT:      -4.1      1.893      2.129
REMARK  Name = Selenomethionine
REMARK  7 active torsions:
REMARK  status: ('A' for Active; 'I' for Inactive)
REMARK    1  A    between atoms: C_1  and  SE_2
REMARK    2  A    between atoms: SE_2  and  C_3
REMARK    3  A    between atoms: C_3  and  C_4
REMARK    4  A    between atoms: C_4  and  CA_5
REMARK    5  A    between atoms: CA_5  and  N_6
REMARK    6  A    between atoms: CA_5  and  C_7
REMARK    7  A    between atoms: C_7  and  O_8
REMARK                            x       y       z     vdW  Elec       q    Type
REMARK                         _______ _______ _______ _____ _____    ______ ____
ROOT
ATOM      1  CA  UNL     1     -10.612   8.052 127.885  0.00  0.00    +0.000 C 
ENDROOT
BRANCH   1   2
ATOM      2  N   UNL     1     -11.891   8.768 128.003  0.00  0.00    +0.000 NA
ATOM      3  H1  UNL     1     -12.548   8.404 127.312  0.00  0.00    +0.000 HD
ATOM      4  H2  UNL     1     -11.740   9.764 127.839  0.00  0.00    +0.000 HD
ENDBRANCH   1   2
BRANCH   1   5
ATOM      5  C   UNL     1     -10.705   7.029 126.765  0.00  0.00    +0.000 C 
ATOM      6  OXT UNL     1      -9.665   6.404 126.388  0.00  0.00    +0.000 OA
BRANCH   5   7
ATOM      7  O   UNL     1     -11.953   6.773 126.140  0.00  0.00    +0.000 OA
ATOM      8  H   UNL     1     -12.727   7.210 126.440  0.00  0.00    +0.000 HD
ENDBRANCH   5   7
ENDBRANCH   1   5
BRANCH   1   9
ATOM      9  C   UNL     1     -10.305   7.344 129.194  0.00  0.00    +0.000 C 
BRANCH   9  10
ATOM     10  C   UNL     1     -11.448   6.416 129.570  0.00  0.00    +0.000 C 
BRANCH  10  12
ATOM     11  C   UNL     1     -10.158   5.970 132.466  0.00  0.00    +0.000 C 
ATOM     12 SE   UNL     1     -11.771   6.526 131.500  0.00  0.00    +0.000 Se
ENDBRANCH  10  12
ENDBRANCH   9  10
ENDBRANCH   1   9
TORSDOF 6
ENDMDL
MODEL 4
REMARK VINA RESULT:      -3.8      2.314      2.661
REMARK  Name = Selenomethionine
REMARK  7 active torsions:
REMARK  status: ('A' for Active; 'I' for Inactive)
REMARK    1  A    between atoms: C_1  and  SE_2
REMARK    2  A    between atoms: SE_2  and  C_3
REMARK    3  A    between atoms: C_3  and  C_4
REMARK    4  A    between atoms: C_4  and  CA_5
REMARK    5  A    between atoms: CA_5  and  N_6
REMARK    6  A    between atoms: CA_5  and  C_7
REMARK    7  A    between atoms: C_7  and  O_8
REMARK                            x       y       z     vdW  Elec       q    Type
REMARK                         _______ _______ _______ _____ _____    ______ ____
ROOT
ATOM      1  CA  UNL     1     -11.480   7.750 127.610  0.00  0.00    +0.000 C 
ENDROOT
BRANCH   1   2
ATOM      2  N   UNL     1     -12.213   6.565 128.081  0.00  0.00    +0.000 NA
ATOM      3  H1  UNL     1     -12.570   6.739 129.021  0.00  0.00    +0.000 HD
ATOM      4  H2  UNL     1     -11.585   5.761 128.098  0.00  0.00    +0.000 HD
ENDBRANCH   1   2
BRANCH   1   5
ATOM      5  C   UNL     1     -10.701   7.397 126.354  0.00  0.00    +0.000 C 
ATOM      6  OXT UNL     1     -10.893   8.051 125.282  0.00  0.00    +0.000 OA
BRANCH   5   7
ATOM      7  O   UNL     1      -9.758   6.335 126.378  0.00  0.00    +0.000 OA
ATOM      8  H   UNL     1      -9.290   6.106 125.598  0.00  0.00    +0.000 HD
ENDBRANCH   5   7
ENDBRANCH   1   5
BRANCH   1   9
ATOM      9  C   UNL     1     -10.518   8.213 128.691  0.00  0.00    +0.000 C 
BRANCH   9  10
ATOM     10  C   UNL     1     -10.752   7.431 129.974  0.00  0.00    +0.000 C 
BRANCH  10  12
ATOM     11  C   UNL     1      -8.611   5.066 129.702  0.00  0.00    +0.000 C 
ATOM     12 SE   UNL     1      -9.043   6.735 130.635  0.00  0.00    +0.000 Se
ENDBRANCH  10  12
ENDBRANCH   9  10
ENDBRANCH   1   9
TORSDOF 6
ENDMDL
MODEL 5
REMARK VINA RESULT:      -3.8      2.950      3.809
REMARK  Name = Selenomethionine
REMARK  7 active torsions:
REMARK  status: ('A' for Active; 'I' for Inactive)
REMARK    1  A    between atoms: C_1  and  SE_2
REMARK    2  A    between atoms: SE_2  and  C_3
REMARK    3  A    between atoms: C_3  and  C_4
REMARK    4  A    between atoms: C_4  and  CA_5
REMARK    5  A    between atoms: CA_5  and  N_6
REMARK    6  A    between atoms: CA_5  and  C_7
REMARK    7  A    between atoms: C_7  and  O_8
REMARK                            x       y       z     vdW  Elec       q    Type
REMARK                         _______ _______ _______ _____ _____    ______ ____
ROOT
ATOM      1  CA  UNL     1     -10.448   6.108 130.469  0.00  0.00    +0.000 C 
ENDROOT
BRANCH   1   2
ATOM      2  N   UNL     1     -11.206   5.114 129.695  0.00  0.00    +0.000 NA
ATOM      3  H1  UNL     1     -10.653   4.817 128.890  0.00  0.00    +0.000 HD
ATOM      4  H2  UNL     1     -12.081   5.529 129.372  0.00  0.00    +0.000 HD
ENDBRANCH   1   2
BRANCH   1   5
ATOM      5  C   UNL     1     -11.161   6.376 131.784  0.00  0.00    +0.000 C 
ATOM      6  OXT UNL     1     -12.421   6.542 131.802  0.00  0.00    +0.000 OA
BRANCH   5   7
ATOM      7  O   UNL     1     -10.420   6.441 132.993  0.00  0.00    +0.000 OA
ATOM      8  H   UNL     1     -10.750   6.935 133.719  0.00  0.00    +0.000 HD
ENDBRANCH   5   7
ENDBRANCH   1   5
BRANCH   1   9
ATOM      9  C   UNL     1     -10.348   7.400 129.675  0.00  0.00    +0.000 C 
BRANCH   9  10
ATOM     10  C   UNL     1     -10.930   7.208 128.283  0.00  0.00    +0.000 C 
BRANCH  10  12
ATOM     11  C   UNL     1     -12.810   9.388 129.683  0.00  0.00    +0.000 C 
ATOM     12 SE   UNL     1     -12.618   8.192 128.141  0.00  0.00    +0.000 Se
ENDBRANCH  10  12
ENDBRANCH   9  10
ENDBRANCH   1   9
TORSDOF 6
ENDMDL
MODEL 6
REMARK VINA RESULT:      -3.8      2.349      2.958
REMARK  Name = Selenomethionine
REMARK  7 active torsions:
REMARK  status: ('A' for Active; 'I' for Inactive)
REMARK    1  A    between atoms: C_1  and  SE_2
REMARK    2  A    between atoms: SE_2  and  C_3
REMARK    3  A    between atoms: C_3  and  C_4
REMARK    4  A    between atoms: C_4  and  CA_5
REMARK    5  A    between atoms: CA_5  and  N_6
REMARK    6  A    between atoms: CA_5  and  C_7
REMARK    7  A    between atoms: C_7  and  O_8
REMARK                            x       y       z     vdW  Elec       q    Type
REMARK                         _______ _______ _______ _____ _____    ______ ____
ROOT
ATOM      1  CA  UNL     1     -10.579   6.917 128.438  0.00  0.00    +0.000 C 
ENDROOT
BRANCH   1   2
ATOM      2  N   UNL     1      -9.869   8.180 128.689  0.00  0.00    +0.000 NA
ATOM      3  H1  UNL     1     -10.059   8.833 127.928  0.00  0.00    +0.000 HD
ATOM      4  H2  UNL     1      -8.866   8.002 128.742  0.00  0.00    +0.000 HD
ENDBRANCH   1   2
BRANCH   1   5
ATOM      5  C   UNL     1     -10.608   6.640 126.944  0.00  0.00    +0.000 C 
ATOM      6  OXT UNL     1      -9.556   6.247 126.351  0.00  0.00    +0.000 OA
BRANCH   5   7
ATOM      7  O   UNL     1     -11.811   6.821 126.212  0.00  0.00    +0.000 OA
ATOM      8  H   UNL     1     -12.615   6.987 126.665  0.00  0.00    +0.000 HD
ENDBRANCH   5   7
ENDBRANCH   1   5
BRANCH   1   9
ATOM      9  C   UNL     1     -12.002   7.024 128.962  0.00  0.00    +0.000 C 
BRANCH   9  10
ATOM     10  C   UNL     1     -12.159   8.280 129.804  0.00  0.00    +0.000 C 
BRANCH  10  12
ATOM     11  C   UNL     1     -13.539  11.164 129.959  0.00  0.00    +0.000 C 
ATOM     12 SE   UNL     1     -13.308   9.558 128.860  0.00  0.00    +0.000 Se
ENDBRANCH  10  12
ENDBRANCH   9  10
ENDBRANCH   1   9
TORSDOF 6
ENDMDL
MODEL 7
REMARK VINA RESULT:      -3.8      3.005      3.807
REMARK  Name = Selenomethionine
REMARK  7 active torsions:
REMARK  status: ('A' for Active; 'I' for Inactive)
REMARK    1  A    between atoms: C_1  and  SE_2
REMARK    2  A    between atoms: SE_2  and  C_3
REMARK    3  A    between atoms: C_3  and  C_4
REMARK    4  A    between atoms: C_4  and  CA_5
REMARK    5  A    between atoms: CA_5  and  N_6
REMARK    6  A    between atoms: CA_5  and  C_7
REMARK    7  A    between atoms: C_7  and  O_8
REMARK                            x       y       z     vdW  Elec       q    Type
REMARK                         _______ _______ _______ _____ _____    ______ ____
ROOT
ATOM      1  CA  UNL     1     -12.749   7.057 130.487  0.00  0.00    +0.000 C 
ENDROOT
BRANCH   1   2
ATOM      2  N   UNL     1     -13.172   7.570 131.798  0.00  0.00    +0.000 NA
ATOM      3  H1  UNL     1     -12.361   7.638 132.414  0.00  0.00    +0.000 HD
ATOM      4  H2  UNL     1     -13.859   6.936 132.207  0.00  0.00    +0.000 HD
ENDBRANCH   1   2
BRANCH   1   5
ATOM      5  C   UNL     1     -11.697   5.977 130.682  0.00  0.00    +0.000 C 
ATOM      6  OXT UNL     1     -11.245   5.343 129.678  0.00  0.00    +0.000 OA
BRANCH   5   7
ATOM      7  O   UNL     1     -11.220   5.677 131.985  0.00  0.00    +0.000 OA
ATOM      8  H   UNL     1     -10.345   5.363 132.102  0.00  0.00    +0.000 HD
ENDBRANCH   5   7
ENDBRANCH   1   5
BRANCH   1   9
ATOM      9  C   UNL     1     -12.165   8.192 129.663  0.00  0.00    +0.000 C 
BRANCH   9  10
ATOM     10  C   UNL     1     -13.065   8.498 128.477  0.00  0.00    +0.000 C 
BRANCH  10  12
ATOM     11  C   UNL     1     -10.755   7.349 126.583  0.00  0.00    +0.000 C 
ATOM     12 SE   UNL     1     -12.665   7.255 127.016  0.00  0.00    +0.000 Se
ENDBRANCH  10  12
ENDBRANCH   9  10
ENDBRANCH   1   9
TORSDOF 6
ENDMDL
MODEL 8
REMARK VINA RESULT:      -3.7      2.161      2.755
REMARK  Name = Selenomethionine
REMARK  7 active torsions:
REMARK  status: ('A' for Active; 'I' for Inactive)
REMARK    1  A    between atoms: C_1  and  SE_2
REMARK    2  A    between atoms: SE_2  and  C_3
REMARK    3  A    between atoms: C_3  and  C_4
REMARK    4  A    between atoms: C_4  and  CA_5
REMARK    5  A    between atoms: CA_5  and  N_6
REMARK    6  A    between atoms: CA_5  and  C_7
REMARK    7  A    between atoms: C_7  and  O_8
REMARK                            x       y       z     vdW  Elec       q    Type
REMARK                         _______ _______ _______ _____ _____    ______ ____
ROOT
ATOM      1  CA  UNL     1     -12.780   7.497 129.327  0.00  0.00    +0.000 C 
ENDROOT
BRANCH   1   2
ATOM      2  N   UNL     1     -12.257   6.325 128.610  0.00  0.00    +0.000 NA
ATOM      3  H1  UNL     1     -12.386   5.491 129.184  0.00  0.00    +0.000 HD
ATOM      4  H2  UNL     1     -11.263   6.458 128.420  0.00  0.00    +0.000 HD
ENDBRANCH   1   2
BRANCH   1   5
ATOM      5  C   UNL     1     -12.152   8.760 128.760  0.00  0.00    +0.000 C 
ATOM      6  OXT UNL     1     -11.009   8.707 128.207  0.00  0.00    +0.000 OA
BRANCH   5   7
ATOM      7  O   UNL     1     -12.840   9.998 128.850  0.00  0.00    +0.000 OA
ATOM      8  H   UNL     1     -13.284  10.343 128.099  0.00  0.00    +0.000 HD
ENDBRANCH   5   7
ENDBRANCH   1   5
BRANCH   1   9
ATOM      9  C   UNL     1     -12.441   7.381 130.804  0.00  0.00    +0.000 C 
BRANCH   9  10
ATOM     10  C   UNL     1     -11.891   5.997 131.109  0.00  0.00    +0.000 C 
BRANCH  10  12
ATOM     11  C   UNL     1      -8.908   7.036 130.589  0.00  0.00    +0.000 C 
ATOM     12 SE   UNL     1     -10.097   6.163 131.880  0.00  0.00    +0.000 Se
ENDBRANCH  10  12
ENDBRANCH   9  10
ENDBRANCH   1   9
TORSDOF 6
ENDMDL
MODEL 9
REMARK VINA RESULT:      -3.7      2.615      3.659
REMARK  Name = Selenomethionine
REMARK  7 active torsions:
REMARK  status: ('A' for Active; 'I' for Inactive)
REMARK    1  A    between atoms: C_1  and  SE_2
REMARK    2  A    between atoms: SE_2  and  C_3
REMARK    3  A    between atoms: C_3  and  C_4
REMARK    4  A    between atoms: C_4  and  CA_5
REMARK    5  A    between atoms: CA_5  and  N_6
REMARK    6  A    between atoms: CA_5  and  C_7
REMARK    7  A    between atoms: C_7  and  O_8
REMARK                            x       y       z     vdW  Elec       q    Type
REMARK                         _______ _______ _______ _____ _____    ______ ____
ROOT
ATOM      1  CA  UNL     1     -11.010   6.126 130.553  0.00  0.00    +0.000 C 
ENDROOT
BRANCH   1   2
ATOM      2  N   UNL     1     -11.165   4.737 131.006  0.00  0.00    +0.000 NA
ATOM      3  H1  UNL     1     -10.402   4.171 130.634  0.00  0.00    +0.000 HD
ATOM      4  H2  UNL     1     -12.056   4.367 130.673  0.00  0.00    +0.000 HD
ENDBRANCH   1   2
BRANCH   1   5
ATOM      5  C   UNL     1      -9.686   6.678 131.054  0.00  0.00    +0.000 C 
ATOM      6  OXT UNL     1      -9.340   6.498 132.263  0.00  0.00    +0.000 OA
BRANCH   5   7
ATOM      7  O   UNL     1      -8.836   7.396 130.172  0.00  0.00    +0.000 OA
ATOM      8  H   UNL     1      -9.202   7.863 129.445  0.00  0.00    +0.000 HD
ENDBRANCH   5   7
ENDBRANCH   1   5
BRANCH   1   9
ATOM      9  C   UNL     1     -12.151   6.968 131.102  0.00  0.00    +0.000 C 
BRANCH   9  10
ATOM     10  C   UNL     1     -12.645   7.939 130.041  0.00  0.00    +0.000 C 
BRANCH  10  12
ATOM     11  C   UNL     1     -10.881   8.155 127.379  0.00  0.00    +0.000 C 
ATOM     12 SE   UNL     1     -12.332   7.177 128.263  0.00  0.00    +0.000 Se
ENDBRANCH  10  12
ENDBRANCH   9  10
ENDBRANCH   1   9
TORSDOF 6
ENDMDL
