MODEL 1
REMARK VINA RESULT:      -1.7      0.000      0.000
REMARK  Name = Selenium Sulfide
REMARK  0 active torsions:
REMARK  status: ('A' for Active; 'I' for Inactive)
REMARK                            x       y       z     vdW  Elec       q    Type
REMARK                         _______ _______ _______ _____ _____    ______ ____
ROOT
ATOM      1  S   UNL     1     -11.085   7.513 126.560  0.00  0.00    +0.000 S 
ATOM      2 SE   UNL     1     -10.854   8.368 128.369  0.00  0.00    +0.000 Se
ATOM      3  S   UNL     1     -12.644   8.985 129.053  0.00  0.00    +0.000 S 
ENDROOT
TORSDOF 0
ENDMDL
MODEL 2
REMARK VINA RESULT:      -1.7      1.339      2.982
REMARK  Name = Selenium Sulfide
REMARK  0 active torsions:
REMARK  status: ('A' for Active; 'I' for Inactive)
REMARK                            x       y       z     vdW  Elec       q    Type
REMARK                         _______ _______ _______ _____ _____    ______ ____
ROOT
ATOM      1  S   UNL     1     -12.704   7.274 130.552  0.00  0.00    +0.000 S 
ATOM      2 SE   UNL     1     -12.433   8.736 129.194  0.00  0.00    +0.000 Se
ATOM      3  S   UNL     1     -10.785   8.345 128.107  0.00  0.00    +0.000 S 
ENDROOT
TORSDOF 0
ENDMDL
MODEL 3
REMARK VINA RESULT:      -1.7      1.343      1.986
REMARK  Name = Selenium Sulfide
REMARK  0 active torsions:
REMARK  status: ('A' for Active; 'I' for Inactive)
REMARK                            x       y       z     vdW  Elec       q    Type
REMARK                         _______ _______ _______ _____ _____    ______ ____
ROOT
ATOM      1  S   UNL     1     -10.843   8.344 128.101  0.00  0.00    +0.000 S 
ATOM      2 SE   UNL     1     -12.483   8.736 129.203  0.00  0.00    +0.000 Se
ATOM      3  S   UNL     1     -12.690   7.325 130.624  0.00  0.00    +0.000 S 
ENDROOT
TORSDOF 0
ENDMDL
MODEL 4
REMARK VINA RESULT:      -1.6      1.109      2.613
REMARK  Name = Selenium Sulfide
REMARK  0 active torsions:
REMARK  status: ('A' for Active; 'I' for Inactive)
REMARK                            x       y       z     vdW  Elec       q    Type
REMARK                         _______ _______ _______ _____ _____    ______ ____
ROOT
ATOM      1  S   UNL     1     -12.732   8.989 128.899  0.00  0.00    +0.000 S 
ATOM      2 SE   UNL     1     -10.934   8.349 128.256  0.00  0.00    +0.000 Se
ATOM      3  S   UNL     1     -10.030   7.304 129.720  0.00  0.00    +0.000 S 
ENDROOT
TORSDOF 0
ENDMDL
MODEL 5
REMARK VINA RESULT:      -1.5     13.018     14.108
REMARK  Name = Selenium Sulfide
REMARK  0 active torsions:
REMARK  status: ('A' for Active; 'I' for Inactive)
REMARK                            x       y       z     vdW  Elec       q    Type
REMARK                         _______ _______ _______ _____ _____    ______ ____
ROOT
ATOM      1  S   UNL     1      -7.294  -3.381 124.351  0.00  0.00    +0.000 S 
ATOM      2 SE   UNL     1      -5.427  -2.883 123.784  0.00  0.00    +0.000 Se
ATOM      3  S   UNL     1      -4.307  -4.548 123.623  0.00  0.00    +0.000 S 
ENDROOT
TORSDOF 0
ENDMDL
MODEL 6
REMARK VINA RESULT:      -1.5      2.111      2.950
REMARK  Name = Selenium Sulfide
REMARK  0 active torsions:
REMARK  status: ('A' for Active; 'I' for Inactive)
REMARK                            x       y       z     vdW  Elec       q    Type
REMARK                         _______ _______ _______ _____ _____    ______ ____
ROOT
ATOM      1  S   UNL     1     -11.619   6.240 130.495  0.00  0.00    +0.000 S 
ATOM      2 SE   UNL     1     -10.075   7.292 129.743  0.00  0.00    +0.000 Se
ATOM      3  S   UNL     1     -10.694   8.333 128.135  0.00  0.00    +0.000 S 
ENDROOT
TORSDOF 0
ENDMDL
MODEL 7
REMARK VINA RESULT:      -1.5      3.321      3.850
REMARK  Name = Selenium Sulfide
REMARK  0 active torsions:
REMARK  status: ('A' for Active; 'I' for Inactive)
REMARK                            x       y       z     vdW  Elec       q    Type
REMARK                         _______ _______ _______ _____ _____    ______ ____
ROOT
ATOM      1  S   UNL     1      -9.505   6.505 131.088  0.00  0.00    +0.000 S 
ATOM      2 SE   UNL     1     -11.406   6.360 131.737  0.00  0.00    +0.000 Se
ATOM      3  S   UNL     1     -12.630   7.296 130.442  0.00  0.00    +0.000 S 
ENDROOT
TORSDOF 0
ENDMDL
MODEL 8
REMARK VINA RESULT:      -1.5     11.761     12.237
REMARK  Name = Selenium Sulfide
REMARK  0 active torsions:
REMARK  status: ('A' for Active; 'I' for Inactive)
REMARK                            x       y       z     vdW  Elec       q    Type
REMARK                         _______ _______ _______ _____ _____    ______ ____
ROOT
ATOM      1  S   UNL     1      -9.244  -2.926 125.705  0.00  0.00    +0.000 S 
ATOM      2 SE   UNL     1      -9.266  -3.102 123.699  0.00  0.00    +0.000 Se
ATOM      3  S   UNL     1      -7.828  -1.937 122.907  0.00  0.00    +0.000 S 
ENDROOT
TORSDOF 0
ENDMDL
MODEL 9
REMARK VINA RESULT:      -1.4      2.858      3.548
REMARK  Name = Selenium Sulfide
REMARK  0 active torsions:
REMARK  status: ('A' for Active; 'I' for Inactive)
REMARK                            x       y       z     vdW  Elec       q    Type
REMARK                         _______ _______ _______ _____ _____    ______ ____
ROOT
ATOM      1  S   UNL     1     -12.730   6.828 129.306  0.00  0.00    +0.000 S 
ATOM      2 SE   UNL     1     -11.631   6.413 130.941  0.00  0.00    +0.000 Se
ATOM      3  S   UNL     1      -9.685   6.740 130.543  0.00  0.00    +0.000 S 
ENDROOT
TORSDOF 0
ENDMDL
