MODEL 1
REMARK VINA RESULT:      -8.2      0.000      0.000
REMARK  Name = Selexipag
REMARK  14 active torsions:
REMARK  status: ('A' for Active; 'I' for Inactive)
REMARK    1  A    between atoms: C_1  and  C_2
REMARK    2  A    between atoms: C_2  and  C_3
REMARK    3  A    between atoms: C_2  and  N_4
REMARK    4  A    between atoms: N_4  and  C_5
REMARK    5  A    between atoms: C_5  and  C_6
REMARK    6  A    between atoms: C_6  and  C_7
REMARK    7  A    between atoms: C_7  and  C_8
REMARK    8  A    between atoms: C_8  and  O_9
REMARK    9  A    between atoms: O_9  and  C_10
REMARK   10  A    between atoms: C_10  and  C_11
REMARK   11  A    between atoms: N_13  and  S_14
REMARK   12  A    between atoms: S_14  and  C_15
REMARK   13  A    between atoms: C_20  and  C_21
REMARK   14  A    between atoms: C_27  and  C_30
REMARK                            x       y       z     vdW  Elec       q    Type
REMARK                         _______ _______ _______ _____ _____    ______ ____
ROOT
ATOM      1  N   UNL     1      -7.539   2.554 128.103  0.00  0.00    +0.000 N 
ATOM      2  C   UNL     1      -7.491   2.688 126.694  0.00  0.00    +0.000 A 
ATOM      3  N   UNL     1      -7.675   1.607 125.896  0.00  0.00    +0.000 NA
ATOM      4  C   UNL     1      -7.602   1.761 124.542  0.00  0.00    +0.000 A 
ATOM      5  C   UNL     1      -7.373   3.025 123.967  0.00  0.00    +0.000 A 
ATOM      6  N   UNL     1      -7.175   4.124 124.731  0.00  0.00    +0.000 NA
ATOM      7  C   UNL     1      -7.247   3.920 126.075  0.00  0.00    +0.000 A 
ENDROOT
BRANCH   4   8
ATOM      8  C   UNL     1      -7.792   0.544 123.711  0.00  0.00    +0.000 A 
ATOM      9  C   UNL     1      -9.085   0.104 123.354  0.00  0.00    +0.000 A 
ATOM     10  C   UNL     1      -9.304  -1.187 122.863  0.00  0.00    +0.000 A 
ATOM     11  C   UNL     1      -8.224  -2.021 122.600  0.00  0.00    +0.000 A 
ATOM     12  C   UNL     1      -6.930  -1.584 122.880  0.00  0.00    +0.000 A 
ATOM     13  C   UNL     1      -6.716  -0.315 123.437  0.00  0.00    +0.000 A 
ENDBRANCH   4   8
BRANCH   5  14
ATOM     14  C   UNL     1      -7.287   3.224 122.513  0.00  0.00    +0.000 A 
ATOM     15  C   UNL     1      -6.042   3.385 121.877  0.00  0.00    +0.000 A 
ATOM     16  C   UNL     1      -5.965   3.857 120.568  0.00  0.00    +0.000 A 
ATOM     17  C   UNL     1      -7.131   4.060 119.837  0.00  0.00    +0.000 A 
ATOM     18  C   UNL     1      -8.375   3.848 120.431  0.00  0.00    +0.000 A 
ATOM     19  C   UNL     1      -8.452   3.441 121.763  0.00  0.00    +0.000 A 
ENDBRANCH   5  14
BRANCH   1  21
ATOM     20  C   UNL     1      -7.493  -0.021 128.520  0.00  0.00    +0.000 C 
ATOM     21  C   UNL     1      -6.840   1.360 128.681  0.00  0.00    +0.000 C 
ATOM     22  C   UNL     1      -5.434   1.159 128.114  0.00  0.00    +0.000 C 
ENDBRANCH   1  21
BRANCH   1  23
ATOM     23  C   UNL     1      -8.304   3.613 128.809  0.00  0.00    +0.000 C 
BRANCH  23  24
ATOM     24  C   UNL     1      -7.503   4.399 129.814  0.00  0.00    +0.000 C 
BRANCH  24  25
ATOM     25  C   UNL     1      -7.720   4.256 131.291  0.00  0.00    +0.000 C 
BRANCH  25  26
ATOM     26  C   UNL     1      -9.184   3.820 131.486  0.00  0.00    +0.000 C 
BRANCH  26  27
ATOM     27  O   UNL     1      -9.712   4.596 132.539  0.00  0.00    +0.000 OA
BRANCH  27  28
ATOM     28  C   UNL     1      -9.664   6.000 132.307  0.00  0.00    +0.000 C 
BRANCH  28  29
ATOM     29  C   UNL     1     -10.837   6.361 131.384  0.00  0.00    +0.000 C 
ATOM     30  O   UNL     1     -11.999   6.110 131.669  0.00  0.00    +0.000 OA
ATOM     31  N   UNL     1     -10.510   6.945 130.144  0.00  0.00    +0.000 N 
ATOM     32  H   UNL     1      -9.559   7.171 129.870  0.00  0.00    +0.000 HD
BRANCH  31  33
ATOM     33  S   UNL     1     -11.674   7.513 129.090  0.00  0.00    +0.000 S 
ATOM     34  C   UNL     1     -10.728   8.284 127.780  0.00  0.00    +0.000 C 
ATOM     35  O   UNL     1     -12.417   6.397 128.566  0.00  0.00    +0.000 OA
ATOM     36  O   UNL     1     -12.353   8.572 129.818  0.00  0.00    +0.000 OA
ENDBRANCH  31  33
ENDBRANCH  28  29
ENDBRANCH  27  28
ENDBRANCH  26  27
ENDBRANCH  25  26
ENDBRANCH  24  25
ENDBRANCH  23  24
ENDBRANCH   1  23
TORSDOF 11
ENDMDL
MODEL 2
REMARK VINA RESULT:      -8.1      2.447      5.514
REMARK  Name = Selexipag
REMARK  14 active torsions:
REMARK  status: ('A' for Active; 'I' for Inactive)
REMARK    1  A    between atoms: C_1  and  C_2
REMARK    2  A    between atoms: C_2  and  C_3
REMARK    3  A    between atoms: C_2  and  N_4
REMARK    4  A    between atoms: N_4  and  C_5
REMARK    5  A    between atoms: C_5  and  C_6
REMARK    6  A    between atoms: C_6  and  C_7
REMARK    7  A    between atoms: C_7  and  C_8
REMARK    8  A    between atoms: C_8  and  O_9
REMARK    9  A    between atoms: O_9  and  C_10
REMARK   10  A    between atoms: C_10  and  C_11
REMARK   11  A    between atoms: N_13  and  S_14
REMARK   12  A    between atoms: S_14  and  C_15
REMARK   13  A    between atoms: C_20  and  C_21
REMARK   14  A    between atoms: C_27  and  C_30
REMARK                            x       y       z     vdW  Elec       q    Type
REMARK                         _______ _______ _______ _____ _____    ______ ____
ROOT
ATOM      1  N   UNL     1      -7.085   3.305 123.769  0.00  0.00    +0.000 N 
ATOM      2  C   UNL     1      -7.389   2.115 124.473  0.00  0.00    +0.000 A 
ATOM      3  N   UNL     1      -6.796   0.945 124.130  0.00  0.00    +0.000 NA
ATOM      4  C   UNL     1      -7.125  -0.191 124.811  0.00  0.00    +0.000 A 
ATOM      5  C   UNL     1      -8.041  -0.157 125.880  0.00  0.00    +0.000 A 
ATOM      6  N   UNL     1      -8.660   0.990 126.244  0.00  0.00    +0.000 NA
ATOM      7  C   UNL     1      -8.308   2.094 125.531  0.00  0.00    +0.000 A 
ENDROOT
BRANCH   4   8
ATOM      8  C   UNL     1      -6.463  -1.451 124.386  0.00  0.00    +0.000 A 
ATOM      9  C   UNL     1      -5.657  -2.185 125.282  0.00  0.00    +0.000 A 
ATOM     10  C   UNL     1      -4.777  -3.173 124.829  0.00  0.00    +0.000 A 
ATOM     11  C   UNL     1      -4.775  -3.536 123.487  0.00  0.00    +0.000 A 
ATOM     12  C   UNL     1      -5.613  -2.872 122.592  0.00  0.00    +0.000 A 
ATOM     13  C   UNL     1      -6.444  -1.834 123.035  0.00  0.00    +0.000 A 
ENDBRANCH   4   8
BRANCH   5  14
ATOM     14  C   UNL     1      -8.418  -1.363 126.632  0.00  0.00    +0.000 A 
ATOM     15  C   UNL     1      -7.852  -1.637 127.891  0.00  0.00    +0.000 A 
ATOM     16  C   UNL     1      -7.978  -2.898 128.471  0.00  0.00    +0.000 A 
ATOM     17  C   UNL     1      -8.772  -3.864 127.859  0.00  0.00    +0.000 A 
ATOM     18  C   UNL     1      -9.390  -3.590 126.639  0.00  0.00    +0.000 A 
ATOM     19  C   UNL     1      -9.207  -2.351 126.025  0.00  0.00    +0.000 A 
ENDBRANCH   5  14
BRANCH   1  21
ATOM     20  C   UNL     1      -8.223   3.569 121.436  0.00  0.00    +0.000 C 
ATOM     21  C   UNL     1      -6.994   3.190 122.277  0.00  0.00    +0.000 C 
ATOM     22  C   UNL     1      -5.875   4.043 121.679  0.00  0.00    +0.000 C 
ENDBRANCH   1  21
BRANCH   1  23
ATOM     23  C   UNL     1      -6.872   4.502 124.622  0.00  0.00    +0.000 C 
BRANCH  23  24
ATOM     24  C   UNL     1      -5.488   4.616 125.206  0.00  0.00    +0.000 C 
BRANCH  24  25
ATOM     25  C   UNL     1      -5.050   3.794 126.381  0.00  0.00    +0.000 C 
BRANCH  25  26
ATOM     26  C   UNL     1      -4.972   4.748 127.587  0.00  0.00    +0.000 C 
BRANCH  26  27
ATOM     27  O   UNL     1      -6.250   4.769 128.183  0.00  0.00    +0.000 OA
BRANCH  27  28
ATOM     28  C   UNL     1      -6.794   3.479 128.441  0.00  0.00    +0.000 C 
BRANCH  28  29
ATOM     29  C   UNL     1      -8.095   3.671 129.234  0.00  0.00    +0.000 C 
ATOM     30  O   UNL     1      -8.704   2.737 129.733  0.00  0.00    +0.000 OA
ATOM     31  N   UNL     1      -8.602   4.984 129.310  0.00  0.00    +0.000 N 
ATOM     32  H   UNL     1      -8.126   5.786 128.912  0.00  0.00    +0.000 HD
BRANCH  31  33
ATOM     33  S   UNL     1      -9.930   5.375 130.243  0.00  0.00    +0.000 S 
ATOM     34  C   UNL     1     -10.027   7.159 130.127  0.00  0.00    +0.000 C 
ATOM     35  O   UNL     1     -11.105   4.781 129.659  0.00  0.00    +0.000 OA
ATOM     36  O   UNL     1      -9.540   5.049 131.605  0.00  0.00    +0.000 OA
ENDBRANCH  31  33
ENDBRANCH  28  29
ENDBRANCH  27  28
ENDBRANCH  26  27
ENDBRANCH  25  26
ENDBRANCH  24  25
ENDBRANCH  23  24
ENDBRANCH   1  23
TORSDOF 11
ENDMDL
MODEL 3
REMARK VINA RESULT:      -8.1      2.370      3.483
REMARK  Name = Selexipag
REMARK  14 active torsions:
REMARK  status: ('A' for Active; 'I' for Inactive)
REMARK    1  A    between atoms: C_1  and  C_2
REMARK    2  A    between atoms: C_2  and  C_3
REMARK    3  A    between atoms: C_2  and  N_4
REMARK    4  A    between atoms: N_4  and  C_5
REMARK    5  A    between atoms: C_5  and  C_6
REMARK    6  A    between atoms: C_6  and  C_7
REMARK    7  A    between atoms: C_7  and  C_8
REMARK    8  A    between atoms: C_8  and  O_9
REMARK    9  A    between atoms: O_9  and  C_10
REMARK   10  A    between atoms: C_10  and  C_11
REMARK   11  A    between atoms: N_13  and  S_14
REMARK   12  A    between atoms: S_14  and  C_15
REMARK   13  A    between atoms: C_20  and  C_21
REMARK   14  A    between atoms: C_27  and  C_30
REMARK                            x       y       z     vdW  Elec       q    Type
REMARK                         _______ _______ _______ _____ _____    ______ ____
ROOT
ATOM      1  N   UNL     1      -7.635   0.161 131.012  0.00  0.00    +0.000 N 
ATOM      2  C   UNL     1      -7.884   0.352 129.631  0.00  0.00    +0.000 A 
ATOM      3  N   UNL     1      -7.674  -0.657 128.751  0.00  0.00    +0.000 NA
ATOM      4  C   UNL     1      -7.902  -0.439 127.423  0.00  0.00    +0.000 A 
ATOM      5  C   UNL     1      -8.380   0.803 126.964  0.00  0.00    +0.000 A 
ATOM      6  N   UNL     1      -8.591   1.837 127.811  0.00  0.00    +0.000 NA
ATOM      7  C   UNL     1      -8.343   1.575 129.123  0.00  0.00    +0.000 A 
ENDROOT
BRANCH   4   8
ATOM      8  C   UNL     1      -7.639  -1.569 126.496  0.00  0.00    +0.000 A 
ATOM      9  C   UNL     1      -6.404  -1.683 125.822  0.00  0.00    +0.000 A 
ATOM     10  C   UNL     1      -6.251  -2.532 124.721  0.00  0.00    +0.000 A 
ATOM     11  C   UNL     1      -7.290  -3.377 124.349  0.00  0.00    +0.000 A 
ATOM     12  C   UNL     1      -8.498  -3.334 125.043  0.00  0.00    +0.000 A 
ATOM     13  C   UNL     1      -8.674  -2.433 126.103  0.00  0.00    +0.000 A 
ENDBRANCH   4   8
BRANCH   5  14
ATOM     14  C   UNL     1      -8.633   1.071 125.541  0.00  0.00    +0.000 A 
ATOM     15  C   UNL     1      -7.642   1.651 124.726  0.00  0.00    +0.000 A 
ATOM     16  C   UNL     1      -7.963   2.170 123.473  0.00  0.00    +0.000 A 
ATOM     17  C   UNL     1      -9.249   2.008 122.966  0.00  0.00    +0.000 A 
ATOM     18  C   UNL     1     -10.230   1.381 123.735  0.00  0.00    +0.000 A 
ATOM     19  C   UNL     1      -9.926   0.924 125.017  0.00  0.00    +0.000 A 
ENDBRANCH   5  14
BRANCH   1  21
ATOM     20  C   UNL     1      -5.028   0.102 131.101  0.00  0.00    +0.000 C 
ATOM     21  C   UNL     1      -6.380  -0.579 131.365  0.00  0.00    +0.000 C 
ATOM     22  C   UNL     1      -6.306  -0.959 132.844  0.00  0.00    +0.000 C 
ENDBRANCH   1  21
BRANCH   1  23
ATOM     23  C   UNL     1      -8.678   0.705 131.919  0.00  0.00    +0.000 C 
BRANCH  23  24
ATOM     24  C   UNL     1      -8.271   1.951 132.664  0.00  0.00    +0.000 C 
BRANCH  24  25
ATOM     25  C   UNL     1      -9.282   2.915 133.211  0.00  0.00    +0.000 C 
BRANCH  25  26
ATOM     26  C   UNL     1      -8.876   4.314 132.713  0.00  0.00    +0.000 C 
BRANCH  26  27
ATOM     27  O   UNL     1      -9.820   4.696 131.736  0.00  0.00    +0.000 OA
BRANCH  27  28
ATOM     28  C   UNL     1     -10.241   6.053 131.833  0.00  0.00    +0.000 C 
BRANCH  28  29
ATOM     29  C   UNL     1      -9.912   6.740 130.500  0.00  0.00    +0.000 C 
ATOM     30  O   UNL     1      -8.843   7.296 130.294  0.00  0.00    +0.000 OA
ATOM     31  N   UNL     1     -10.933   6.761 129.529  0.00  0.00    +0.000 N 
ATOM     32  H   UNL     1     -11.833   6.310 129.661  0.00  0.00    +0.000 HD
BRANCH  31  33
ATOM     33  S   UNL     1     -10.687   7.351 127.987  0.00  0.00    +0.000 S 
ATOM     34  C   UNL     1     -12.267   7.117 127.180  0.00  0.00    +0.000 C 
ATOM     35  O   UNL     1     -10.380   8.756 128.065  0.00  0.00    +0.000 OA
ATOM     36  O   UNL     1      -9.746   6.425 127.378  0.00  0.00    +0.000 OA
ENDBRANCH  31  33
ENDBRANCH  28  29
ENDBRANCH  27  28
ENDBRANCH  26  27
ENDBRANCH  25  26
ENDBRANCH  24  25
ENDBRANCH  23  24
ENDBRANCH   1  23
TORSDOF 11
ENDMDL
MODEL 4
REMARK VINA RESULT:      -7.9      2.901      4.491
REMARK  Name = Selexipag
REMARK  14 active torsions:
REMARK  status: ('A' for Active; 'I' for Inactive)
REMARK    1  A    between atoms: C_1  and  C_2
REMARK    2  A    between atoms: C_2  and  C_3
REMARK    3  A    between atoms: C_2  and  N_4
REMARK    4  A    between atoms: N_4  and  C_5
REMARK    5  A    between atoms: C_5  and  C_6
REMARK    6  A    between atoms: C_6  and  C_7
REMARK    7  A    between atoms: C_7  and  C_8
REMARK    8  A    between atoms: C_8  and  O_9
REMARK    9  A    between atoms: O_9  and  C_10
REMARK   10  A    between atoms: C_10  and  C_11
REMARK   11  A    between atoms: N_13  and  S_14
REMARK   12  A    between atoms: S_14  and  C_15
REMARK   13  A    between atoms: C_20  and  C_21
REMARK   14  A    between atoms: C_27  and  C_30
REMARK                            x       y       z     vdW  Elec       q    Type
REMARK                         _______ _______ _______ _____ _____    ______ ____
ROOT
ATOM      1  N   UNL     1      -6.693  -2.643 129.954  0.00  0.00    +0.000 N 
ATOM      2  C   UNL     1      -7.137  -1.818 128.892  0.00  0.00    +0.000 A 
ATOM      3  N   UNL     1      -7.371  -2.346 127.665  0.00  0.00    +0.000 NA
ATOM      4  C   UNL     1      -7.777  -1.523 126.654  0.00  0.00    +0.000 A 
ATOM      5  C   UNL     1      -7.985  -0.149 126.877  0.00  0.00    +0.000 A 
ATOM      6  N   UNL     1      -7.752   0.416 128.084  0.00  0.00    +0.000 NA
ATOM      7  C   UNL     1      -7.340  -0.442 129.058  0.00  0.00    +0.000 A 
ENDROOT
BRANCH   4   8
ATOM      8  C   UNL     1      -8.002  -2.145 125.325  0.00  0.00    +0.000 A 
ATOM      9  C   UNL     1      -7.150  -1.861 124.237  0.00  0.00    +0.000 A 
ATOM     10  C   UNL     1      -7.519  -2.166 122.923  0.00  0.00    +0.000 A 
ATOM     11  C   UNL     1      -8.690  -2.874 122.680  0.00  0.00    +0.000 A 
ATOM     12  C   UNL     1      -9.517  -3.228 123.745  0.00  0.00    +0.000 A 
ATOM     13  C   UNL     1      -9.180  -2.861 125.055  0.00  0.00    +0.000 A 
ENDBRANCH   4   8
BRANCH   5  14
ATOM     14  C   UNL     1      -8.419   0.764 125.810  0.00  0.00    +0.000 A 
ATOM     15  C   UNL     1      -9.764   0.810 125.398  0.00  0.00    +0.000 A 
ATOM     16  C   UNL     1     -10.127   1.446 124.213  0.00  0.00    +0.000 A 
ATOM     17  C   UNL     1      -9.171   2.148 123.485  0.00  0.00    +0.000 A 
ATOM     18  C   UNL     1      -7.842   2.165 123.909  0.00  0.00    +0.000 A 
ATOM     19  C   UNL     1      -7.467   1.470 125.059  0.00  0.00    +0.000 A 
ENDBRANCH   5  14
BRANCH   1  21
ATOM     20  C   UNL     1      -4.186  -3.169 129.459  0.00  0.00    +0.000 C 
ATOM     21  C   UNL     1      -5.637  -3.651 129.615  0.00  0.00    +0.000 C 
ATOM     22  C   UNL     1      -5.531  -4.775 130.646  0.00  0.00    +0.000 C 
ENDBRANCH   1  21
BRANCH   1  23
ATOM     23  C   UNL     1      -7.365  -2.405 131.257  0.00  0.00    +0.000 C 
BRANCH  23  24
ATOM     24  C   UNL     1      -6.523  -1.672 132.270  0.00  0.00    +0.000 C 
BRANCH  24  25
ATOM     25  C   UNL     1      -6.891  -0.307 132.771  0.00  0.00    +0.000 C 
BRANCH  25  26
ATOM     26  C   UNL     1      -8.332  -0.035 132.305  0.00  0.00    +0.000 C 
BRANCH  26  27
ATOM     27  O   UNL     1      -8.662   1.274 132.715  0.00  0.00    +0.000 OA
BRANCH  27  28
ATOM     28  C   UNL     1      -9.704   1.877 131.955  0.00  0.00    +0.000 C 
BRANCH  28  29
ATOM     29  C   UNL     1      -9.355   3.362 131.781  0.00  0.00    +0.000 C 
ATOM     30  O   UNL     1      -8.202   3.763 131.712  0.00  0.00    +0.000 OA
ATOM     31  N   UNL     1     -10.434   4.269 131.768  0.00  0.00    +0.000 N 
ATOM     32  H   UNL     1     -11.404   3.977 131.822  0.00  0.00    +0.000 HD
BRANCH  31  33
ATOM     33  S   UNL     1     -10.229   5.896 131.457  0.00  0.00    +0.000 S 
ATOM     34  C   UNL     1     -11.876   6.577 131.625  0.00  0.00    +0.000 C 
ATOM     35  O   UNL     1      -9.361   6.460 132.457  0.00  0.00    +0.000 OA
ATOM     36  O   UNL     1      -9.873   5.965 130.049  0.00  0.00    +0.000 OA
ENDBRANCH  31  33
ENDBRANCH  28  29
ENDBRANCH  27  28
ENDBRANCH  26  27
ENDBRANCH  25  26
ENDBRANCH  24  25
ENDBRANCH  23  24
ENDBRANCH   1  23
TORSDOF 11
ENDMDL
MODEL 5
REMARK VINA RESULT:      -7.9      3.035      4.863
REMARK  Name = Selexipag
REMARK  14 active torsions:
REMARK  status: ('A' for Active; 'I' for Inactive)
REMARK    1  A    between atoms: C_1  and  C_2
REMARK    2  A    between atoms: C_2  and  C_3
REMARK    3  A    between atoms: C_2  and  N_4
REMARK    4  A    between atoms: N_4  and  C_5
REMARK    5  A    between atoms: C_5  and  C_6
REMARK    6  A    between atoms: C_6  and  C_7
REMARK    7  A    between atoms: C_7  and  C_8
REMARK    8  A    between atoms: C_8  and  O_9
REMARK    9  A    between atoms: O_9  and  C_10
REMARK   10  A    between atoms: C_10  and  C_11
REMARK   11  A    between atoms: N_13  and  S_14
REMARK   12  A    between atoms: S_14  and  C_15
REMARK   13  A    between atoms: C_20  and  C_21
REMARK   14  A    between atoms: C_27  and  C_30
REMARK                            x       y       z     vdW  Elec       q    Type
REMARK                         _______ _______ _______ _____ _____    ______ ____
ROOT
ATOM      1  N   UNL     1      -5.977   3.127 128.640  0.00  0.00    +0.000 N 
ATOM      2  C   UNL     1      -6.392   1.962 127.949  0.00  0.00    +0.000 A 
ATOM      3  N   UNL     1      -6.216   0.737 128.504  0.00  0.00    +0.000 NA
ATOM      4  C   UNL     1      -6.606  -0.370 127.807  0.00  0.00    +0.000 A 
ATOM      5  C   UNL     1      -7.213  -0.254 126.542  0.00  0.00    +0.000 A 
ATOM      6  N   UNL     1      -7.395   0.950 125.952  0.00  0.00    +0.000 NA
ATOM      7  C   UNL     1      -6.983   2.024 126.681  0.00  0.00    +0.000 A 
ENDROOT
BRANCH   4   8
ATOM      8  C   UNL     1      -6.376  -1.689 128.449  0.00  0.00    +0.000 A 
ATOM      9  C   UNL     1      -7.388  -2.312 129.210  0.00  0.00    +0.000 A 
ATOM     10  C   UNL     1      -7.099  -3.371 130.077  0.00  0.00    +0.000 A 
ATOM     11  C   UNL     1      -5.820  -3.912 130.107  0.00  0.00    +0.000 A 
ATOM     12  C   UNL     1      -4.817  -3.359 129.312  0.00  0.00    +0.000 A 
ATOM     13  C   UNL     1      -5.090  -2.253 128.496  0.00  0.00    +0.000 A 
ENDBRANCH   4   8
BRANCH   5  14
ATOM     14  C   UNL     1      -7.641  -1.426 125.765  0.00  0.00    +0.000 A 
ATOM     15  C   UNL     1      -8.944  -1.944 125.893  0.00  0.00    +0.000 A 
ATOM     16  C   UNL     1      -9.263  -3.204 125.392  0.00  0.00    +0.000 A 
ATOM     17  C   UNL     1      -8.322  -3.912 124.651  0.00  0.00    +0.000 A 
ATOM     18  C   UNL     1      -7.043  -3.388 124.461  0.00  0.00    +0.000 A 
ATOM     19  C   UNL     1      -6.702  -2.157 125.022  0.00  0.00    +0.000 A 
ENDBRANCH   5  14
BRANCH   1  21
ATOM     20  C   UNL     1      -3.378   2.987 128.455  0.00  0.00    +0.000 C 
ATOM     21  C   UNL     1      -4.644   3.055 129.322  0.00  0.00    +0.000 C 
ATOM     22  C   UNL     1      -4.381   4.245 130.245  0.00  0.00    +0.000 C 
ENDBRANCH   1  21
BRANCH   1  23
ATOM     23  C   UNL     1      -6.944   4.253 128.608  0.00  0.00    +0.000 C 
BRANCH  23  24
ATOM     24  C   UNL     1      -8.082   4.129 129.588  0.00  0.00    +0.000 C 
BRANCH  24  25
ATOM     25  C   UNL     1      -8.136   4.939 130.850  0.00  0.00    +0.000 C 
BRANCH  25  26
ATOM     26  C   UNL     1      -9.369   4.456 131.636  0.00  0.00    +0.000 C 
BRANCH  26  27
ATOM     27  O   UNL     1     -10.505   5.008 131.006  0.00  0.00    +0.000 OA
BRANCH  27  28
ATOM     28  C   UNL     1     -10.755   6.368 131.346  0.00  0.00    +0.000 C 
BRANCH  28  29
ATOM     29  C   UNL     1     -11.158   7.104 130.060  0.00  0.00    +0.000 C 
ATOM     30  O   UNL     1     -11.907   8.069 130.063  0.00  0.00    +0.000 OA
ATOM     31  N   UNL     1     -10.671   6.574 128.849  0.00  0.00    +0.000 N 
ATOM     32  H   UNL     1     -10.045   5.776 128.804  0.00  0.00    +0.000 HD
BRANCH  31  33
ATOM     33  S   UNL     1     -10.911   7.333 127.381  0.00  0.00    +0.000 S 
ATOM     34  C   UNL     1     -12.656   7.100 127.056  0.00  0.00    +0.000 C 
ATOM     35  O   UNL     1     -10.622   8.736 127.526  0.00  0.00    +0.000 OA
ATOM     36  O   UNL     1     -10.178   6.527 126.419  0.00  0.00    +0.000 OA
ENDBRANCH  31  33
ENDBRANCH  28  29
ENDBRANCH  27  28
ENDBRANCH  26  27
ENDBRANCH  25  26
ENDBRANCH  24  25
ENDBRANCH  23  24
ENDBRANCH   1  23
TORSDOF 11
ENDMDL
MODEL 6
REMARK VINA RESULT:      -7.8      2.294      3.269
REMARK  Name = Selexipag
REMARK  14 active torsions:
REMARK  status: ('A' for Active; 'I' for Inactive)
REMARK    1  A    between atoms: C_1  and  C_2
REMARK    2  A    between atoms: C_2  and  C_3
REMARK    3  A    between atoms: C_2  and  N_4
REMARK    4  A    between atoms: N_4  and  C_5
REMARK    5  A    between atoms: C_5  and  C_6
REMARK    6  A    between atoms: C_6  and  C_7
REMARK    7  A    between atoms: C_7  and  C_8
REMARK    8  A    between atoms: C_8  and  O_9
REMARK    9  A    between atoms: O_9  and  C_10
REMARK   10  A    between atoms: C_10  and  C_11
REMARK   11  A    between atoms: N_13  and  S_14
REMARK   12  A    between atoms: S_14  and  C_15
REMARK   13  A    between atoms: C_20  and  C_21
REMARK   14  A    between atoms: C_27  and  C_30
REMARK                            x       y       z     vdW  Elec       q    Type
REMARK                         _______ _______ _______ _____ _____    ______ ____
ROOT
ATOM      1  N   UNL     1      -6.596  -0.373 130.535  0.00  0.00    +0.000 N 
ATOM      2  C   UNL     1      -6.935   0.094 129.243  0.00  0.00    +0.000 A 
ATOM      3  N   UNL     1      -7.226  -0.784 128.251  0.00  0.00    +0.000 NA
ATOM      4  C   UNL     1      -7.529  -0.306 127.009  0.00  0.00    +0.000 A 
ATOM      5  C   UNL     1      -7.575   1.078 126.755  0.00  0.00    +0.000 A 
ATOM      6  N   UNL     1      -7.281   1.983 127.717  0.00  0.00    +0.000 NA
ATOM      7  C   UNL     1      -6.977   1.460 128.936  0.00  0.00    +0.000 A 
ENDROOT
BRANCH   4   8
ATOM      8  C   UNL     1      -7.821  -1.307 125.952  0.00  0.00    +0.000 A 
ATOM      9  C   UNL     1      -9.092  -1.914 125.858  0.00  0.00    +0.000 A 
ATOM     10  C   UNL     1      -9.293  -3.071 125.099  0.00  0.00    +0.000 A 
ATOM     11  C   UNL     1      -8.260  -3.575 124.318  0.00  0.00    +0.000 A 
ATOM     12  C   UNL     1      -7.012  -2.953 124.339  0.00  0.00    +0.000 A 
ATOM     13  C   UNL     1      -6.792  -1.833 125.154  0.00  0.00    +0.000 A 
ENDBRANCH   4   8
BRANCH   5  14
ATOM     14  C   UNL     1      -7.896   1.624 125.429  0.00  0.00    +0.000 A 
ATOM     15  C   UNL     1      -9.228   1.713 124.984  0.00  0.00    +0.000 A 
ATOM     16  C   UNL     1      -9.518   1.952 123.643  0.00  0.00    +0.000 A 
ATOM     17  C   UNL     1      -8.486   2.226 122.750  0.00  0.00    +0.000 A 
ATOM     18  C   UNL     1      -7.161   2.202 123.185  0.00  0.00    +0.000 A 
ATOM     19  C   UNL     1      -6.867   1.895 124.513  0.00  0.00    +0.000 A 
ENDBRANCH   5  14
BRANCH   1  21
ATOM     20  C   UNL     1      -4.178  -1.289 130.892  0.00  0.00    +0.000 C 
ATOM     21  C   UNL     1      -5.663  -1.546 130.594  0.00  0.00    +0.000 C 
ATOM     22  C   UNL     1      -6.066  -2.576 131.650  0.00  0.00    +0.000 C 
ENDBRANCH   1  21
BRANCH   1  23
ATOM     23  C   UNL     1      -7.239   0.358 131.656  0.00  0.00    +0.000 C 
BRANCH  23  24
ATOM     24  C   UNL     1      -8.703   0.053 131.844  0.00  0.00    +0.000 C 
BRANCH  24  25
ATOM     25  C   UNL     1      -9.742   1.135 131.882  0.00  0.00    +0.000 C 
BRANCH  25  26
ATOM     26  C   UNL     1      -8.987   2.474 131.959  0.00  0.00    +0.000 C 
BRANCH  26  27
ATOM     27  O   UNL     1      -9.316   3.203 130.797  0.00  0.00    +0.000 OA
BRANCH  27  28
ATOM     28  C   UNL     1      -9.486   4.600 131.014  0.00  0.00    +0.000 C 
BRANCH  28  29
ATOM     29  C   UNL     1     -10.744   5.041 130.253  0.00  0.00    +0.000 C 
ATOM     30  O   UNL     1     -11.651   4.269 129.979  0.00  0.00    +0.000 OA
ATOM     31  N   UNL     1     -10.784   6.381 129.819  0.00  0.00    +0.000 N 
ATOM     32  H   UNL     1     -10.053   7.054 130.027  0.00  0.00    +0.000 HD
BRANCH  31  33
ATOM     33  S   UNL     1     -12.134   7.046 129.097  0.00  0.00    +0.000 S 
ATOM     34  C   UNL     1     -11.691   8.764 128.855  0.00  0.00    +0.000 C 
ATOM     35  O   UNL     1     -12.346   6.411 127.822  0.00  0.00    +0.000 OA
ATOM     36  O   UNL     1     -13.165   7.004 130.121  0.00  0.00    +0.000 OA
ENDBRANCH  31  33
ENDBRANCH  28  29
ENDBRANCH  27  28
ENDBRANCH  26  27
ENDBRANCH  25  26
ENDBRANCH  24  25
ENDBRANCH  23  24
ENDBRANCH   1  23
TORSDOF 11
ENDMDL
MODEL 7
REMARK VINA RESULT:      -7.7      3.317      6.194
REMARK  Name = Selexipag
REMARK  14 active torsions:
REMARK  status: ('A' for Active; 'I' for Inactive)
REMARK    1  A    between atoms: C_1  and  C_2
REMARK    2  A    between atoms: C_2  and  C_3
REMARK    3  A    between atoms: C_2  and  N_4
REMARK    4  A    between atoms: N_4  and  C_5
REMARK    5  A    between atoms: C_5  and  C_6
REMARK    6  A    between atoms: C_6  and  C_7
REMARK    7  A    between atoms: C_7  and  C_8
REMARK    8  A    between atoms: C_8  and  O_9
REMARK    9  A    between atoms: O_9  and  C_10
REMARK   10  A    between atoms: C_10  and  C_11
REMARK   11  A    between atoms: N_13  and  S_14
REMARK   12  A    between atoms: S_14  and  C_15
REMARK   13  A    between atoms: C_20  and  C_21
REMARK   14  A    between atoms: C_27  and  C_30
REMARK                            x       y       z     vdW  Elec       q    Type
REMARK                         _______ _______ _______ _____ _____    ______ ____
ROOT
ATOM      1  N   UNL     1      -4.963   3.134 125.852  0.00  0.00    +0.000 N 
ATOM      2  C   UNL     1      -5.196   1.879 126.465  0.00  0.00    +0.000 A 
ATOM      3  N   UNL     1      -5.680   0.841 125.740  0.00  0.00    +0.000 NA
ATOM      4  C   UNL     1      -5.916  -0.351 126.362  0.00  0.00    +0.000 A 
ATOM      5  C   UNL     1      -5.633  -0.524 127.730  0.00  0.00    +0.000 A 
ATOM      6  N   UNL     1      -5.159   0.492 128.488  0.00  0.00    +0.000 NA
ATOM      7  C   UNL     1      -4.948   1.663 127.827  0.00  0.00    +0.000 A 
ENDROOT
BRANCH   4   8
ATOM      8  C   UNL     1      -6.464  -1.452 125.529  0.00  0.00    +0.000 A 
ATOM      9  C   UNL     1      -7.846  -1.735 125.519  0.00  0.00    +0.000 A 
ATOM     10  C   UNL     1      -8.339  -2.942 125.013  0.00  0.00    +0.000 A 
ATOM     11  C   UNL     1      -7.475  -3.838 124.395  0.00  0.00    +0.000 A 
ATOM     12  C   UNL     1      -6.112  -3.550 124.330  0.00  0.00    +0.000 A 
ATOM     13  C   UNL     1      -5.610  -2.371 124.899  0.00  0.00    +0.000 A 
ENDBRANCH   4   8
BRANCH   5  14
ATOM     14  C   UNL     1      -5.877  -1.793 128.430  0.00  0.00    +0.000 A 
ATOM     15  C   UNL     1      -7.154  -2.111 128.930  0.00  0.00    +0.000 A 
ATOM     16  C   UNL     1      -7.326  -3.158 129.833  0.00  0.00    +0.000 A 
ATOM     17  C   UNL     1      -6.249  -3.978 130.155  0.00  0.00    +0.000 A 
ATOM     18  C   UNL     1      -4.987  -3.715 129.622  0.00  0.00    +0.000 A 
ATOM     19  C   UNL     1      -4.800  -2.625 128.772  0.00  0.00    +0.000 A 
ENDBRANCH   5  14
BRANCH   1  21
ATOM     20  C   UNL     1      -7.075   4.604 125.419  0.00  0.00    +0.000 C 
ATOM     21  C   UNL     1      -6.019   3.615 124.902  0.00  0.00    +0.000 C 
ATOM     22  C   UNL     1      -5.441   4.319 123.674  0.00  0.00    +0.000 C 
ENDBRANCH   1  21
BRANCH   1  23
ATOM     23  C   UNL     1      -3.682   3.786 126.223  0.00  0.00    +0.000 C 
BRANCH  23  24
ATOM     24  C   UNL     1      -3.829   4.993 127.114  0.00  0.00    +0.000 C 
BRANCH  24  25
ATOM     25  C   UNL     1      -3.526   4.939 128.582  0.00  0.00    +0.000 C 
BRANCH  25  26
ATOM     26  C   UNL     1      -4.438   5.975 129.263  0.00  0.00    +0.000 C 
BRANCH  26  27
ATOM     27  O   UNL     1      -5.649   5.322 129.572  0.00  0.00    +0.000 OA
BRANCH  27  28
ATOM     28  C   UNL     1      -5.598   4.529 130.753  0.00  0.00    +0.000 C 
BRANCH  28  29
ATOM     29  C   UNL     1      -6.862   3.658 130.785  0.00  0.00    +0.000 C 
ATOM     30  O   UNL     1      -7.504   3.468 131.808  0.00  0.00    +0.000 OA
ATOM     31  N   UNL     1      -7.223   3.022 129.581  0.00  0.00    +0.000 N 
ATOM     32  H   UNL     1      -6.718   3.154 128.710  0.00  0.00    +0.000 HD
BRANCH  31  33
ATOM     33  S   UNL     1      -8.639   2.151 129.420  0.00  0.00    +0.000 S 
ATOM     34  C   UNL     1      -8.658   1.675 127.694  0.00  0.00    +0.000 C 
ATOM     35  O   UNL     1      -8.565   0.978 130.251  0.00  0.00    +0.000 OA
ATOM     36  O   UNL     1      -9.701   3.125 129.614  0.00  0.00    +0.000 OA
ENDBRANCH  31  33
ENDBRANCH  28  29
ENDBRANCH  27  28
ENDBRANCH  26  27
ENDBRANCH  25  26
ENDBRANCH  24  25
ENDBRANCH  23  24
ENDBRANCH   1  23
TORSDOF 11
ENDMDL
MODEL 8
REMARK VINA RESULT:      -7.6      3.181      4.706
REMARK  Name = Selexipag
REMARK  14 active torsions:
REMARK  status: ('A' for Active; 'I' for Inactive)
REMARK    1  A    between atoms: C_1  and  C_2
REMARK    2  A    between atoms: C_2  and  C_3
REMARK    3  A    between atoms: C_2  and  N_4
REMARK    4  A    between atoms: N_4  and  C_5
REMARK    5  A    between atoms: C_5  and  C_6
REMARK    6  A    between atoms: C_6  and  C_7
REMARK    7  A    between atoms: C_7  and  C_8
REMARK    8  A    between atoms: C_8  and  O_9
REMARK    9  A    between atoms: O_9  and  C_10
REMARK   10  A    between atoms: C_10  and  C_11
REMARK   11  A    between atoms: N_13  and  S_14
REMARK   12  A    between atoms: S_14  and  C_15
REMARK   13  A    between atoms: C_20  and  C_21
REMARK   14  A    between atoms: C_27  and  C_30
REMARK                            x       y       z     vdW  Elec       q    Type
REMARK                         _______ _______ _______ _____ _____    ______ ____
ROOT
ATOM      1  N   UNL     1      -5.518  -1.916 129.896  0.00  0.00    +0.000 N 
ATOM      2  C   UNL     1      -6.117  -1.214 128.822  0.00  0.00    +0.000 A 
ATOM      3  N   UNL     1      -6.633  -1.889 127.765  0.00  0.00    +0.000 NA
ATOM      4  C   UNL     1      -7.185  -1.185 126.733  0.00  0.00    +0.000 A 
ATOM      5  C   UNL     1      -7.254   0.220 126.768  0.00  0.00    +0.000 A 
ATOM      6  N   UNL     1      -6.739   0.928 127.801  0.00  0.00    +0.000 NA
ATOM      7  C   UNL     1      -6.192   0.185 128.801  0.00  0.00    +0.000 A 
ENDROOT
BRANCH   4   8
ATOM      8  C   UNL     1      -7.720  -1.968 125.591  0.00  0.00    +0.000 A 
ATOM      9  C   UNL     1      -7.128  -1.884 124.312  0.00  0.00    +0.000 A 
ATOM     10  C   UNL     1      -7.792  -2.343 123.170  0.00  0.00    +0.000 A 
ATOM     11  C   UNL     1      -9.006  -3.008 123.295  0.00  0.00    +0.000 A 
ATOM     12  C   UNL     1      -9.580  -3.165 124.555  0.00  0.00    +0.000 A 
ATOM     13  C   UNL     1      -8.947  -2.644 125.692  0.00  0.00    +0.000 A 
ENDBRANCH   4   8
BRANCH   5  14
ATOM     14  C   UNL     1      -7.839   1.007 125.673  0.00  0.00    +0.000 A 
ATOM     15  C   UNL     1      -9.232   1.065 125.487  0.00  0.00    +0.000 A 
ATOM     16  C   UNL     1      -9.774   1.558 124.302  0.00  0.00    +0.000 A 
ATOM     17  C   UNL     1      -8.938   2.113 123.338  0.00  0.00    +0.000 A 
ATOM     18  C   UNL     1      -7.556   2.121 123.531  0.00  0.00    +0.000 A 
ATOM     19  C   UNL     1      -7.010   1.563 124.687  0.00  0.00    +0.000 A 
ENDBRANCH   5  14
BRANCH   1  21
ATOM     20  C   UNL     1      -3.101  -2.857 129.609  0.00  0.00    +0.000 C 
ATOM     21  C   UNL     1      -4.622  -3.060 129.524  0.00  0.00    +0.000 C 
ATOM     22  C   UNL     1      -4.864  -4.308 130.374  0.00  0.00    +0.000 C 
ENDBRANCH   1  21
BRANCH   1  23
ATOM     23  C   UNL     1      -5.889  -1.430 131.249  0.00  0.00    +0.000 C 
BRANCH  23  24
ATOM     24  C   UNL     1      -7.345  -1.598 131.597  0.00  0.00    +0.000 C 
BRANCH  24  25
ATOM     25  C   UNL     1      -8.101  -0.564 132.379  0.00  0.00    +0.000 C 
BRANCH  25  26
ATOM     26  C   UNL     1      -8.972   0.207 131.370  0.00  0.00    +0.000 C 
BRANCH  26  27
ATOM     27  O   UNL     1      -8.489   1.533 131.333  0.00  0.00    +0.000 OA
BRANCH  27  28
ATOM     28  C   UNL     1      -9.443   2.486 130.878  0.00  0.00    +0.000 C 
BRANCH  28  29
ATOM     29  C   UNL     1      -8.707   3.491 129.981  0.00  0.00    +0.000 C 
ATOM     30  O   UNL     1      -9.291   4.355 129.344  0.00  0.00    +0.000 OA
ATOM     31  N   UNL     1      -7.311   3.335 129.869  0.00  0.00    +0.000 N 
ATOM     32  H   UNL     1      -6.788   2.633 130.383  0.00  0.00    +0.000 HD
BRANCH  31  33
ATOM     33  S   UNL     1      -6.354   4.424 129.041  0.00  0.00    +0.000 S 
ATOM     34  C   UNL     1      -4.704   3.742 129.181  0.00  0.00    +0.000 C 
ATOM     35  O   UNL     1      -6.758   4.448 127.659  0.00  0.00    +0.000 OA
ATOM     36  O   UNL     1      -6.391   5.639 129.839  0.00  0.00    +0.000 OA
ENDBRANCH  31  33
ENDBRANCH  28  29
ENDBRANCH  27  28
ENDBRANCH  26  27
ENDBRANCH  25  26
ENDBRANCH  24  25
ENDBRANCH  23  24
ENDBRANCH   1  23
TORSDOF 11
ENDMDL
MODEL 9
REMARK VINA RESULT:      -7.6      3.542      5.701
REMARK  Name = Selexipag
REMARK  14 active torsions:
REMARK  status: ('A' for Active; 'I' for Inactive)
REMARK    1  A    between atoms: C_1  and  C_2
REMARK    2  A    between atoms: C_2  and  C_3
REMARK    3  A    between atoms: C_2  and  N_4
REMARK    4  A    between atoms: N_4  and  C_5
REMARK    5  A    between atoms: C_5  and  C_6
REMARK    6  A    between atoms: C_6  and  C_7
REMARK    7  A    between atoms: C_7  and  C_8
REMARK    8  A    between atoms: C_8  and  O_9
REMARK    9  A    between atoms: O_9  and  C_10
REMARK   10  A    between atoms: C_10  and  C_11
REMARK   11  A    between atoms: N_13  and  S_14
REMARK   12  A    between atoms: S_14  and  C_15
REMARK   13  A    between atoms: C_20  and  C_21
REMARK   14  A    between atoms: C_27  and  C_30
REMARK                            x       y       z     vdW  Elec       q    Type
REMARK                         _______ _______ _______ _____ _____    ______ ____
ROOT
ATOM      1  N   UNL     1      -8.133   2.745 129.956  0.00  0.00    +0.000 N 
ATOM      2  C   UNL     1      -8.108   1.779 128.921  0.00  0.00    +0.000 A 
ATOM      3  N   UNL     1      -8.425   2.128 127.650  0.00  0.00    +0.000 NA
ATOM      4  C   UNL     1      -8.414   1.172 126.676  0.00  0.00    +0.000 A 
ATOM      5  C   UNL     1      -8.048  -0.156 126.967  0.00  0.00    +0.000 A 
ATOM      6  N   UNL     1      -7.735  -0.544 128.226  0.00  0.00    +0.000 NA
ATOM      7  C   UNL     1      -7.769   0.442 129.164  0.00  0.00    +0.000 A 
ENDROOT
BRANCH   4   8
ATOM      8  C   UNL     1      -8.786   1.599 125.304  0.00  0.00    +0.000 A 
ATOM      9  C   UNL     1     -10.018   1.213 124.733  0.00  0.00    +0.000 A 
ATOM     10  C   UNL     1     -10.249   1.322 123.357  0.00  0.00    +0.000 A 
ATOM     11  C   UNL     1      -9.304   1.934 122.543  0.00  0.00    +0.000 A 
ATOM     12  C   UNL     1      -8.107   2.388 123.095  0.00  0.00    +0.000 A 
ATOM     13  C   UNL     1      -7.847   2.215 124.461  0.00  0.00    +0.000 A 
ENDBRANCH   4   8
BRANCH   5  14
ATOM     14  C   UNL     1      -8.028  -1.210 125.943  0.00  0.00    +0.000 A 
ATOM     15  C   UNL     1      -7.015  -1.252 124.966  0.00  0.00    +0.000 A 
ATOM     16  C   UNL     1      -7.146  -2.056 123.837  0.00  0.00    +0.000 A 
ATOM     17  C   UNL     1      -8.232  -2.920 123.725  0.00  0.00    +0.000 A 
ATOM     18  C   UNL     1      -9.217  -2.937 124.713  0.00  0.00    +0.000 A 
ATOM     19  C   UNL     1      -9.120  -2.081 125.810  0.00  0.00    +0.000 A 
ENDBRANCH   5  14
BRANCH   1  21
ATOM     20  C   UNL     1     -10.508   3.364 130.842  0.00  0.00    +0.000 C 
ATOM     21  C   UNL     1      -9.297   3.690 129.955  0.00  0.00    +0.000 C 
ATOM     22  C   UNL     1      -8.915   5.108 130.380  0.00  0.00    +0.000 C 
ENDBRANCH   1  21
BRANCH   1  23
ATOM     23  C   UNL     1      -6.977   2.698 130.887  0.00  0.00    +0.000 C 
BRANCH  23  24
ATOM     24  C   UNL     1      -5.693   3.246 130.320  0.00  0.00    +0.000 C 
BRANCH  24  25
ATOM     25  C   UNL     1      -4.519   2.365 130.013  0.00  0.00    +0.000 C 
BRANCH  25  26
ATOM     26  C   UNL     1      -4.087   2.686 128.570  0.00  0.00    +0.000 C 
BRANCH  26  27
ATOM     27  O   UNL     1      -2.997   3.578 128.652  0.00  0.00    +0.000 OA
BRANCH  27  28
ATOM     28  C   UNL     1      -2.985   4.576 127.637  0.00  0.00    +0.000 C 
BRANCH  28  29
ATOM     29  C   UNL     1      -3.707   5.813 128.191  0.00  0.00    +0.000 C 
ATOM     30  O   UNL     1      -4.310   6.598 127.474  0.00  0.00    +0.000 OA
ATOM     31  N   UNL     1      -3.592   6.047 129.575  0.00  0.00    +0.000 N 
ATOM     32  H   UNL     1      -3.103   5.419 130.205  0.00  0.00    +0.000 HD
BRANCH  31  33
ATOM     33  S   UNL     1      -4.426   7.270 130.347  0.00  0.00    +0.000 S 
ATOM     34  C   UNL     1      -3.978   7.076 132.070  0.00  0.00    +0.000 C 
ATOM     35  O   UNL     1      -3.955   8.540 129.859  0.00  0.00    +0.000 OA
ATOM     36  O   UNL     1      -5.828   6.907 130.219  0.00  0.00    +0.000 OA
ENDBRANCH  31  33
ENDBRANCH  28  29
ENDBRANCH  27  28
ENDBRANCH  26  27
ENDBRANCH  25  26
ENDBRANCH  24  25
ENDBRANCH  23  24
ENDBRANCH   1  23
TORSDOF 11
ENDMDL
