MODEL 1
REMARK VINA RESULT:      -9.0      0.000      0.000
REMARK  Name = Selinexor
REMARK  6 active torsions:
REMARK  status: ('A' for Active; 'I' for Inactive)
REMARK    1  A    between atoms: C_2  and  C_5
REMARK    2  A    between atoms: C_7  and  C_28
REMARK    3  A    between atoms: C_9  and  C_11
REMARK    4  A    between atoms: N_13  and  C_14
REMARK    5  A    between atoms: C_15  and  C_16
REMARK    6  A    between atoms: N_18  and  N_19
REMARK                            x       y       z     vdW  Elec       q    Type
REMARK                         _______ _______ _______ _____ _____    ______ ____
ROOT
ATOM      1  C   UNL     1      -6.061   3.755 126.108  0.00  0.00    +0.000 A 
ATOM      2  N   UNL     1      -6.640   3.265 127.210  0.00  0.00    +0.000 NA
ATOM      3  N   UNL     1      -5.865   3.798 128.214  0.00  0.00    +0.000 N 
ATOM      4  C   UNL     1      -4.953   4.602 127.569  0.00  0.00    +0.000 A 
ATOM      5  N   UNL     1      -5.027   4.571 126.279  0.00  0.00    +0.000 NA
ENDROOT
BRANCH   1  10
ATOM      6  C   UNL     1      -7.972   2.666 123.155  0.00  0.00    +0.000 A 
ATOM      7  C   UNL     1      -7.187   3.218 122.127  0.00  0.00    +0.000 A 
ATOM      8  C   UNL     1      -6.010   3.928 122.424  0.00  0.00    +0.000 A 
ATOM      9  C   UNL     1      -5.693   4.172 123.753  0.00  0.00    +0.000 A 
ATOM     10  C   UNL     1      -6.435   3.550 124.755  0.00  0.00    +0.000 A 
ATOM     11  C   UNL     1      -7.585   2.842 124.477  0.00  0.00    +0.000 A 
BRANCH   6  13
ATOM     12  F   UNL     1      -8.869   0.481 122.931  0.00  0.00    +0.000 F 
ATOM     13  C   UNL     1      -9.175   1.807 122.920  0.00  0.00    +0.000 C 
ATOM     14  F   UNL     1      -9.730   2.051 121.699  0.00  0.00    +0.000 F 
ATOM     15  F   UNL     1     -10.164   1.986 123.832  0.00  0.00    +0.000 F 
ENDBRANCH   6  13
BRANCH   8  16
ATOM     16  C   UNL     1      -5.011   4.278 121.357  0.00  0.00    +0.000 C 
ATOM     17  F   UNL     1      -3.927   4.907 121.894  0.00  0.00    +0.000 F 
ATOM     18  F   UNL     1      -4.535   3.198 120.688  0.00  0.00    +0.000 F 
ATOM     19  F   UNL     1      -5.498   5.132 120.413  0.00  0.00    +0.000 F 
ENDBRANCH   8  16
ENDBRANCH   1  10
BRANCH   3  20
ATOM     20  C   UNL     1      -6.056   3.521 129.590  0.00  0.00    +0.000 C 
ATOM     21  C   UNL     1      -7.142   3.620 130.394  0.00  0.00    +0.000 C 
BRANCH  21  22
ATOM     22  C   UNL     1      -8.477   4.083 129.964  0.00  0.00    +0.000 C 
ATOM     23  O   UNL     1      -9.307   3.336 129.443  0.00  0.00    +0.000 OA
ATOM     24  N   UNL     1      -8.922   5.350 130.122  0.00  0.00    +0.000 N 
ATOM     25  H   UNL     1      -8.485   6.123 130.609  0.00  0.00    +0.000 HD
BRANCH  24  26
ATOM     26  N   UNL     1     -10.333   5.396 129.959  0.00  0.00    +0.000 N 
ATOM     27  C   UNL     1     -10.875   6.500 129.315  0.00  0.00    +0.000 A 
ATOM     28  N   UNL     1     -10.090   7.325 128.591  0.00  0.00    +0.000 NA
ATOM     29  C   UNL     1     -10.684   8.459 128.164  0.00  0.00    +0.000 A 
ATOM     30  C   UNL     1     -11.991   8.788 128.486  0.00  0.00    +0.000 A 
ATOM     31  N   UNL     1     -12.794   7.969 129.195  0.00  0.00    +0.000 NA
ATOM     32  C   UNL     1     -12.213   6.812 129.580  0.00  0.00    +0.000 A 
ATOM     33  H   UNL     1     -10.732   4.485 129.681  0.00  0.00    +0.000 HD
ENDBRANCH  24  26
ENDBRANCH  21  22
ENDBRANCH   3  20
TORSDOF 6
ENDMDL
MODEL 2
REMARK VINA RESULT:      -9.0      3.989      5.778
REMARK  Name = Selinexor
REMARK  6 active torsions:
REMARK  status: ('A' for Active; 'I' for Inactive)
REMARK    1  A    between atoms: C_2  and  C_5
REMARK    2  A    between atoms: C_7  and  C_28
REMARK    3  A    between atoms: C_9  and  C_11
REMARK    4  A    between atoms: N_13  and  C_14
REMARK    5  A    between atoms: C_15  and  C_16
REMARK    6  A    between atoms: N_18  and  N_19
REMARK                            x       y       z     vdW  Elec       q    Type
REMARK                         _______ _______ _______ _____ _____    ______ ____
ROOT
ATOM      1  C   UNL     1      -7.982   0.611 126.750  0.00  0.00    +0.000 A 
ATOM      2  N   UNL     1      -7.030   1.020 127.597  0.00  0.00    +0.000 NA
ATOM      3  N   UNL     1      -7.164   2.388 127.555  0.00  0.00    +0.000 N 
ATOM      4  C   UNL     1      -8.239   2.615 126.725  0.00  0.00    +0.000 A 
ATOM      5  N   UNL     1      -8.740   1.549 126.192  0.00  0.00    +0.000 NA
ENDROOT
BRANCH   1  10
ATOM      6  C   UNL     1      -8.894  -2.312 124.705  0.00  0.00    +0.000 A 
ATOM      7  C   UNL     1      -8.921  -3.313 125.691  0.00  0.00    +0.000 A 
ATOM      8  C   UNL     1      -8.660  -3.003 127.038  0.00  0.00    +0.000 A 
ATOM      9  C   UNL     1      -8.266  -1.713 127.363  0.00  0.00    +0.000 A 
ATOM     10  C   UNL     1      -8.325  -0.717 126.390  0.00  0.00    +0.000 A 
ATOM     11  C   UNL     1      -8.590  -1.007 125.067  0.00  0.00    +0.000 A 
BRANCH   6  13
ATOM     12  F   UNL     1     -10.088  -3.611 123.119  0.00  0.00    +0.000 F 
ATOM     13  C   UNL     1      -9.266  -2.538 123.273  0.00  0.00    +0.000 C 
ATOM     14  F   UNL     1      -8.169  -2.797 122.507  0.00  0.00    +0.000 F 
ATOM     15  F   UNL     1      -9.893  -1.481 122.696  0.00  0.00    +0.000 F 
ENDBRANCH   6  13
BRANCH   8  16
ATOM     16  C   UNL     1      -8.957  -3.978 128.143  0.00  0.00    +0.000 C 
ATOM     17  F   UNL     1      -8.712  -3.420 129.362  0.00  0.00    +0.000 F 
ATOM     18  F   UNL     1     -10.247  -4.394 128.163  0.00  0.00    +0.000 F 
ATOM     19  F   UNL     1      -8.189  -5.103 128.098  0.00  0.00    +0.000 F 
ENDBRANCH   8  16
ENDBRANCH   1  10
BRANCH   3  20
ATOM     20  C   UNL     1      -6.324   3.285 128.261  0.00  0.00    +0.000 C 
ATOM     21  C   UNL     1      -6.535   4.051 129.359  0.00  0.00    +0.000 C 
BRANCH  21  22
ATOM     22  C   UNL     1      -7.801   4.118 130.118  0.00  0.00    +0.000 C 
ATOM     23  O   UNL     1      -7.962   3.550 131.199  0.00  0.00    +0.000 OA
ATOM     24  N   UNL     1      -8.883   4.823 129.716  0.00  0.00    +0.000 N 
ATOM     25  H   UNL     1      -8.977   5.454 128.930  0.00  0.00    +0.000 HD
BRANCH  24  26
ATOM     26  N   UNL     1      -9.783   4.994 130.802  0.00  0.00    +0.000 N 
ATOM     27  C   UNL     1     -10.994   5.623 130.547  0.00  0.00    +0.000 A 
ATOM     28  N   UNL     1     -11.437   5.770 129.280  0.00  0.00    +0.000 NA
ATOM     29  C   UNL     1     -12.526   6.552 129.137  0.00  0.00    +0.000 A 
ATOM     30  C   UNL     1     -13.125   7.208 130.201  0.00  0.00    +0.000 A 
ATOM     31  N   UNL     1     -12.706   7.061 131.475  0.00  0.00    +0.000 NA
ATOM     32  C   UNL     1     -11.644   6.238 131.622  0.00  0.00    +0.000 A 
ATOM     33  H   UNL     1      -9.841   4.159 131.408  0.00  0.00    +0.000 HD
ENDBRANCH  24  26
ENDBRANCH  21  22
ENDBRANCH   3  20
TORSDOF 6
ENDMDL
MODEL 3
REMARK VINA RESULT:      -8.9      4.908      7.029
REMARK  Name = Selinexor
REMARK  6 active torsions:
REMARK  status: ('A' for Active; 'I' for Inactive)
REMARK    1  A    between atoms: C_2  and  C_5
REMARK    2  A    between atoms: C_7  and  C_28
REMARK    3  A    between atoms: C_9  and  C_11
REMARK    4  A    between atoms: N_13  and  C_14
REMARK    5  A    between atoms: C_15  and  C_16
REMARK    6  A    between atoms: N_18  and  N_19
REMARK                            x       y       z     vdW  Elec       q    Type
REMARK                         _______ _______ _______ _____ _____    ______ ____
ROOT
ATOM      1  C   UNL     1      -5.809  -0.214 126.245  0.00  0.00    +0.000 A 
ATOM      2  N   UNL     1      -4.954   0.760 125.910  0.00  0.00    +0.000 NA
ATOM      3  N   UNL     1      -5.033   1.608 126.992  0.00  0.00    +0.000 N 
ATOM      4  C   UNL     1      -5.888   0.982 127.871  0.00  0.00    +0.000 A 
ATOM      5  N   UNL     1      -6.404  -0.118 127.429  0.00  0.00    +0.000 NA
ENDROOT
BRANCH   1  10
ATOM      6  C   UNL     1      -5.450  -3.316 124.295  0.00  0.00    +0.000 A 
ATOM      7  C   UNL     1      -6.800  -3.678 124.143  0.00  0.00    +0.000 A 
ATOM      8  C   UNL     1      -7.825  -2.871 124.669  0.00  0.00    +0.000 A 
ATOM      9  C   UNL     1      -7.478  -1.769 125.439  0.00  0.00    +0.000 A 
ATOM     10  C   UNL     1      -6.143  -1.379 125.509  0.00  0.00    +0.000 A 
ATOM     11  C   UNL     1      -5.129  -2.157 124.988  0.00  0.00    +0.000 A 
BRANCH   6  13
ATOM     12  F   UNL     1      -3.614  -4.791 124.584  0.00  0.00    +0.000 F 
ATOM     13  C   UNL     1      -4.310  -4.060 123.672  0.00  0.00    +0.000 C 
ATOM     14  F   UNL     1      -3.406  -3.207 123.111  0.00  0.00    +0.000 F 
ATOM     15  F   UNL     1      -4.685  -4.918 122.690  0.00  0.00    +0.000 F 
ENDBRANCH   6  13
BRANCH   8  16
ATOM     16  C   UNL     1      -9.264  -3.073 124.285  0.00  0.00    +0.000 C 
ATOM     17  F   UNL     1     -10.083  -2.904 125.361  0.00  0.00    +0.000 F 
ATOM     18  F   UNL     1      -9.694  -2.206 123.334  0.00  0.00    +0.000 F 
ATOM     19  F   UNL     1      -9.532  -4.324 123.816  0.00  0.00    +0.000 F 
ENDBRANCH   8  16
ENDBRANCH   1  10
BRANCH   3  20
ATOM     20  C   UNL     1      -4.334   2.836 127.084  0.00  0.00    +0.000 C 
ATOM     21  C   UNL     1      -4.465   4.007 126.414  0.00  0.00    +0.000 C 
BRANCH  21  22
ATOM     22  C   UNL     1      -5.453   4.270 125.348  0.00  0.00    +0.000 C 
ATOM     23  O   UNL     1      -5.139   4.398 124.164  0.00  0.00    +0.000 OA
ATOM     24  N   UNL     1      -6.785   4.367 125.563  0.00  0.00    +0.000 N 
ATOM     25  H   UNL     1      -7.307   4.199 126.414  0.00  0.00    +0.000 HD
BRANCH  24  26
ATOM     26  N   UNL     1      -7.486   4.254 124.333  0.00  0.00    +0.000 N 
ATOM     27  C   UNL     1      -8.383   3.203 124.193  0.00  0.00    +0.000 A 
ATOM     28  N   UNL     1      -8.813   2.521 125.275  0.00  0.00    +0.000 NA
ATOM     29  C   UNL     1      -9.534   1.412 125.009  0.00  0.00    +0.000 A 
ATOM     30  C   UNL     1      -9.775   0.965 123.720  0.00  0.00    +0.000 A 
ATOM     31  N   UNL     1      -9.366   1.642 122.627  0.00  0.00    +0.000 NA
ATOM     32  C   UNL     1      -8.686   2.779 122.895  0.00  0.00    +0.000 A 
ATOM     33  H   UNL     1      -7.817   5.165 123.977  0.00  0.00    +0.000 HD
ENDBRANCH  24  26
ENDBRANCH  21  22
ENDBRANCH   3  20
TORSDOF 6
ENDMDL
MODEL 4
REMARK VINA RESULT:      -8.8      4.694      8.018
REMARK  Name = Selinexor
REMARK  6 active torsions:
REMARK  status: ('A' for Active; 'I' for Inactive)
REMARK    1  A    between atoms: C_2  and  C_5
REMARK    2  A    between atoms: C_7  and  C_28
REMARK    3  A    between atoms: C_9  and  C_11
REMARK    4  A    between atoms: N_13  and  C_14
REMARK    5  A    between atoms: C_15  and  C_16
REMARK    6  A    between atoms: N_18  and  N_19
REMARK                            x       y       z     vdW  Elec       q    Type
REMARK                         _______ _______ _______ _____ _____    ______ ____
ROOT
ATOM      1  C   UNL     1      -8.080   0.786 126.833  0.00  0.00    +0.000 A 
ATOM      2  N   UNL     1      -7.443   1.680 126.067  0.00  0.00    +0.000 NA
ATOM      3  N   UNL     1      -7.528   2.829 126.819  0.00  0.00    +0.000 N 
ATOM      4  C   UNL     1      -8.157   2.445 127.983  0.00  0.00    +0.000 A 
ATOM      5  N   UNL     1      -8.535   1.210 128.007  0.00  0.00    +0.000 NA
ENDROOT
BRANCH   1  10
ATOM      6  C   UNL     1      -8.754  -2.346 125.018  0.00  0.00    +0.000 A 
ATOM      7  C   UNL     1      -8.668  -3.273 126.072  0.00  0.00    +0.000 A 
ATOM      8  C   UNL     1      -8.412  -2.846 127.387  0.00  0.00    +0.000 A 
ATOM      9  C   UNL     1      -8.134  -1.504 127.612  0.00  0.00    +0.000 A 
ATOM     10  C   UNL     1      -8.304  -0.590 126.574  0.00  0.00    +0.000 A 
ATOM     11  C   UNL     1      -8.566  -0.996 125.282  0.00  0.00    +0.000 A 
BRANCH   6  13
ATOM     12  F   UNL     1      -8.049  -3.054 122.866  0.00  0.00    +0.000 F 
ATOM     13  C   UNL     1      -9.130  -2.706 123.615  0.00  0.00    +0.000 C 
ATOM     14  F   UNL     1      -9.709  -1.655 122.969  0.00  0.00    +0.000 F 
ATOM     15  F   UNL     1     -10.009  -3.737 123.530  0.00  0.00    +0.000 F 
ENDBRANCH   6  13
BRANCH   8  16
ATOM     16  C   UNL     1      -8.596  -3.762 128.564  0.00  0.00    +0.000 C 
ATOM     17  F   UNL     1      -8.901  -3.055 129.688  0.00  0.00    +0.000 F 
ATOM     18  F   UNL     1      -9.596  -4.663 128.394  0.00  0.00    +0.000 F 
ATOM     19  F   UNL     1      -7.480  -4.479 128.876  0.00  0.00    +0.000 F 
ENDBRANCH   8  16
ENDBRANCH   1  10
BRANCH   3  20
ATOM     20  C   UNL     1      -7.034   4.087 126.397  0.00  0.00    +0.000 C 
ATOM     21  C   UNL     1      -6.830   4.614 125.165  0.00  0.00    +0.000 C 
BRANCH  21  22
ATOM     22  C   UNL     1      -7.103   3.923 123.889  0.00  0.00    +0.000 C 
ATOM     23  O   UNL     1      -8.242   3.650 123.508  0.00  0.00    +0.000 OA
ATOM     24  N   UNL     1      -6.143   3.551 123.013  0.00  0.00    +0.000 N 
ATOM     25  H   UNL     1      -5.150   3.748 123.035  0.00  0.00    +0.000 HD
BRANCH  24  26
ATOM     26  N   UNL     1      -6.722   3.255 121.750  0.00  0.00    +0.000 N 
ATOM     27  C   UNL     1      -6.345   4.036 120.665  0.00  0.00    +0.000 A 
ATOM     28  N   UNL     1      -5.246   4.816 120.732  0.00  0.00    +0.000 NA
ATOM     29  C   UNL     1      -5.077   5.664 119.697  0.00  0.00    +0.000 A 
ATOM     30  C   UNL     1      -5.990   5.775 118.660  0.00  0.00    +0.000 A 
ATOM     31  N   UNL     1      -7.086   4.993 118.570  0.00  0.00    +0.000 NA
ATOM     32  C   UNL     1      -7.227   4.110 119.582  0.00  0.00    +0.000 A 
ATOM     33  H   UNL     1      -6.777   2.241 121.564  0.00  0.00    +0.000 HD
ENDBRANCH  24  26
ENDBRANCH  21  22
ENDBRANCH   3  20
TORSDOF 6
ENDMDL
MODEL 5
REMARK VINA RESULT:      -8.8      3.884      5.409
REMARK  Name = Selinexor
REMARK  6 active torsions:
REMARK  status: ('A' for Active; 'I' for Inactive)
REMARK    1  A    between atoms: C_2  and  C_5
REMARK    2  A    between atoms: C_7  and  C_28
REMARK    3  A    between atoms: C_9  and  C_11
REMARK    4  A    between atoms: N_13  and  C_14
REMARK    5  A    between atoms: C_15  and  C_16
REMARK    6  A    between atoms: N_18  and  N_19
REMARK                            x       y       z     vdW  Elec       q    Type
REMARK                         _______ _______ _______ _____ _____    ______ ____
ROOT
ATOM      1  C   UNL     1      -7.759   0.940 126.645  0.00  0.00    +0.000 A 
ATOM      2  N   UNL     1      -6.909   1.409 127.567  0.00  0.00    +0.000 NA
ATOM      3  N   UNL     1      -6.949   2.767 127.343  0.00  0.00    +0.000 N 
ATOM      4  C   UNL     1      -7.883   2.934 126.345  0.00  0.00    +0.000 A 
ATOM      5  N   UNL     1      -8.372   1.833 125.876  0.00  0.00    +0.000 NA
ENDROOT
BRANCH   1  10
ATOM      6  C   UNL     1      -8.475  -2.627 127.207  0.00  0.00    +0.000 A 
ATOM      7  C   UNL     1      -8.924  -3.001 125.928  0.00  0.00    +0.000 A 
ATOM      8  C   UNL     1      -8.961  -2.066 124.878  0.00  0.00    +0.000 A 
ATOM      9  C   UNL     1      -8.652  -0.741 125.151  0.00  0.00    +0.000 A 
ATOM     10  C   UNL     1      -8.131  -0.406 126.399  0.00  0.00    +0.000 A 
ATOM     11  C   UNL     1      -8.080  -1.316 127.435  0.00  0.00    +0.000 A 
BRANCH   6  13
ATOM     12  F   UNL     1      -9.021  -3.215 129.440  0.00  0.00    +0.000 F 
ATOM     13  C   UNL     1      -8.302  -3.584 128.346  0.00  0.00    +0.000 C 
ATOM     14  F   UNL     1      -7.003  -3.642 128.754  0.00  0.00    +0.000 F 
ATOM     15  F   UNL     1      -8.667  -4.858 128.052  0.00  0.00    +0.000 F 
ENDBRANCH   6  13
BRANCH   8  16
ATOM     16  C   UNL     1      -9.159  -2.492 123.450  0.00  0.00    +0.000 C 
ATOM     17  F   UNL     1      -9.958  -3.595 123.379  0.00  0.00    +0.000 F 
ATOM     18  F   UNL     1      -9.746  -1.543 122.681  0.00  0.00    +0.000 F 
ATOM     19  F   UNL     1      -8.002  -2.840 122.819  0.00  0.00    +0.000 F 
ENDBRANCH   8  16
ENDBRANCH   1  10
BRANCH   3  20
ATOM     20  C   UNL     1      -6.162   3.707 128.051  0.00  0.00    +0.000 C 
ATOM     21  C   UNL     1      -6.401   4.429 129.172  0.00  0.00    +0.000 C 
BRANCH  21  22
ATOM     22  C   UNL     1      -7.649   4.385 129.961  0.00  0.00    +0.000 C 
ATOM     23  O   UNL     1      -7.731   3.817 131.051  0.00  0.00    +0.000 OA
ATOM     24  N   UNL     1      -8.803   4.980 129.580  0.00  0.00    +0.000 N 
ATOM     25  H   UNL     1      -8.974   5.591 128.791  0.00  0.00    +0.000 HD
BRANCH  24  26
ATOM     26  N   UNL     1      -9.689   5.077 130.686  0.00  0.00    +0.000 N 
ATOM     27  C   UNL     1     -10.925   5.675 130.475  0.00  0.00    +0.000 A 
ATOM     28  N   UNL     1     -11.393   5.856 129.223  0.00  0.00    +0.000 NA
ATOM     29  C   UNL     1     -12.511   6.606 129.129  0.00  0.00    +0.000 A 
ATOM     30  C   UNL     1     -13.112   7.199 130.227  0.00  0.00    +0.000 A 
ATOM     31  N   UNL     1     -12.666   7.016 131.487  0.00  0.00    +0.000 NA
ATOM     32  C   UNL     1     -11.576   6.224 131.585  0.00  0.00    +0.000 A 
ATOM     33  H   UNL     1      -9.708   4.218 131.259  0.00  0.00    +0.000 HD
ENDBRANCH  24  26
ENDBRANCH  21  22
ENDBRANCH   3  20
TORSDOF 6
ENDMDL
MODEL 6
REMARK VINA RESULT:      -8.8      5.060      7.576
REMARK  Name = Selinexor
REMARK  6 active torsions:
REMARK  status: ('A' for Active; 'I' for Inactive)
REMARK    1  A    between atoms: C_2  and  C_5
REMARK    2  A    between atoms: C_7  and  C_28
REMARK    3  A    between atoms: C_9  and  C_11
REMARK    4  A    between atoms: N_13  and  C_14
REMARK    5  A    between atoms: C_15  and  C_16
REMARK    6  A    between atoms: N_18  and  N_19
REMARK                            x       y       z     vdW  Elec       q    Type
REMARK                         _______ _______ _______ _____ _____    ______ ____
ROOT
ATOM      1  C   UNL     1      -8.001   0.993 123.245  0.00  0.00    +0.000 A 
ATOM      2  N   UNL     1      -7.638  -0.295 123.210  0.00  0.00    +0.000 NA
ATOM      3  N   UNL     1      -8.835  -0.934 122.983  0.00  0.00    +0.000 N 
ATOM      4  C   UNL     1      -9.757   0.078 122.844  0.00  0.00    +0.000 A 
ATOM      5  N   UNL     1      -9.284   1.266 123.031  0.00  0.00    +0.000 NA
ENDROOT
BRANCH   1  10
ATOM      6  C   UNL     1      -5.799   3.858 122.537  0.00  0.00    +0.000 A 
ATOM      7  C   UNL     1      -5.644   4.384 123.831  0.00  0.00    +0.000 A 
ATOM      8  C   UNL     1      -6.254   3.766 124.937  0.00  0.00    +0.000 A 
ATOM      9  C   UNL     1      -7.103   2.690 124.717  0.00  0.00    +0.000 A 
ATOM     10  C   UNL     1      -7.180   2.132 123.443  0.00  0.00    +0.000 A 
ATOM     11  C   UNL     1      -6.578   2.723 122.352  0.00  0.00    +0.000 A 
BRANCH   6  13
ATOM     12  F   UNL     1      -4.389   3.426 120.678  0.00  0.00    +0.000 F 
ATOM     13  C   UNL     1      -5.097   4.390 121.327  0.00  0.00    +0.000 C 
ATOM     14  F   UNL     1      -4.193   5.355 121.660  0.00  0.00    +0.000 F 
ATOM     15  F   UNL     1      -5.929   4.946 120.410  0.00  0.00    +0.000 F 
ENDBRANCH   6  13
BRANCH   8  16
ATOM     16  C   UNL     1      -5.882   4.128 126.347  0.00  0.00    +0.000 C 
ATOM     17  F   UNL     1      -6.993   4.392 127.091  0.00  0.00    +0.000 F 
ATOM     18  F   UNL     1      -5.209   3.146 126.997  0.00  0.00    +0.000 F 
ATOM     19  F   UNL     1      -5.110   5.249 126.437  0.00  0.00    +0.000 F 
ENDBRANCH   8  16
ENDBRANCH   1  10
BRANCH   3  20
ATOM     20  C   UNL     1      -8.977  -2.342 122.917  0.00  0.00    +0.000 C 
ATOM     21  C   UNL     1      -9.112  -3.287 123.879  0.00  0.00    +0.000 C 
BRANCH  21  22
ATOM     22  C   UNL     1      -9.139  -3.022 125.332  0.00  0.00    +0.000 C 
ATOM     23  O   UNL     1     -10.111  -2.523 125.901  0.00  0.00    +0.000 OA
ATOM     24  N   UNL     1      -8.123  -3.322 126.172  0.00  0.00    +0.000 N 
ATOM     25  H   UNL     1      -7.266  -3.827 125.980  0.00  0.00    +0.000 HD
BRANCH  24  26
ATOM     26  N   UNL     1      -8.578  -3.295 127.517  0.00  0.00    +0.000 N 
ATOM     27  C   UNL     1      -7.700  -2.833 128.489  0.00  0.00    +0.000 A 
ATOM     28  N   UNL     1      -6.597  -2.138 128.141  0.00  0.00    +0.000 NA
ATOM     29  C   UNL     1      -5.727  -1.898 129.143  0.00  0.00    +0.000 A 
ATOM     30  C   UNL     1      -5.915  -2.373 130.431  0.00  0.00    +0.000 A 
ATOM     31  N   UNL     1      -7.019  -3.056 130.800  0.00  0.00    +0.000 NA
ATOM     32  C   UNL     1      -7.912  -3.253 129.806  0.00  0.00    +0.000 A 
ATOM     33  H   UNL     1      -9.549  -2.954 127.603  0.00  0.00    +0.000 HD
ENDBRANCH  24  26
ENDBRANCH  21  22
ENDBRANCH   3  20
TORSDOF 6
ENDMDL
MODEL 7
REMARK VINA RESULT:      -8.7      0.280      3.177
REMARK  Name = Selinexor
REMARK  6 active torsions:
REMARK  status: ('A' for Active; 'I' for Inactive)
REMARK    1  A    between atoms: C_2  and  C_5
REMARK    2  A    between atoms: C_7  and  C_28
REMARK    3  A    between atoms: C_9  and  C_11
REMARK    4  A    between atoms: N_13  and  C_14
REMARK    5  A    between atoms: C_15  and  C_16
REMARK    6  A    between atoms: N_18  and  N_19
REMARK                            x       y       z     vdW  Elec       q    Type
REMARK                         _______ _______ _______ _____ _____    ______ ____
ROOT
ATOM      1  C   UNL     1      -5.940   3.899 126.089  0.00  0.00    +0.000 A 
ATOM      2  N   UNL     1      -6.479   3.451 127.228  0.00  0.00    +0.000 NA
ATOM      3  N   UNL     1      -5.729   4.095 128.185  0.00  0.00    +0.000 N 
ATOM      4  C   UNL     1      -4.871   4.906 127.476  0.00  0.00    +0.000 A 
ATOM      5  N   UNL     1      -4.954   4.784 126.192  0.00  0.00    +0.000 NA
ENDROOT
BRANCH   1  10
ATOM      6  C   UNL     1      -5.889   3.727 122.411  0.00  0.00    +0.000 A 
ATOM      7  C   UNL     1      -7.001   2.900 122.180  0.00  0.00    +0.000 A 
ATOM      8  C   UNL     1      -7.779   2.424 123.252  0.00  0.00    +0.000 A 
ATOM      9  C   UNL     1      -7.365   2.694 124.549  0.00  0.00    +0.000 A 
ATOM     10  C   UNL     1      -6.311   3.581 124.757  0.00  0.00    +0.000 A 
ATOM     11  C   UNL     1      -5.548   4.063 123.714  0.00  0.00    +0.000 A 
BRANCH   6  13
ATOM     12  F   UNL     1      -4.331   3.453 120.643  0.00  0.00    +0.000 F 
ATOM     13  C   UNL     1      -5.078   4.362 121.324  0.00  0.00    +0.000 C 
ATOM     14  F   UNL     1      -4.194   5.269 121.828  0.00  0.00    +0.000 F 
ATOM     15  F   UNL     1      -5.821   5.025 120.402  0.00  0.00    +0.000 F 
ENDBRANCH   6  13
BRANCH   8  16
ATOM     16  C   UNL     1      -9.121   1.785 123.029  0.00  0.00    +0.000 C 
ATOM     17  F   UNL     1     -10.000   2.148 124.005  0.00  0.00    +0.000 F 
ATOM     18  F   UNL     1      -9.693   2.129 121.849  0.00  0.00    +0.000 F 
ATOM     19  F   UNL     1      -9.087   0.422 123.059  0.00  0.00    +0.000 F 
ENDBRANCH   8  16
ENDBRANCH   1  10
BRANCH   3  20
ATOM     20  C   UNL     1      -5.891   3.900 129.579  0.00  0.00    +0.000 C 
ATOM     21  C   UNL     1      -6.967   4.021 130.392  0.00  0.00    +0.000 C 
BRANCH  21  22
ATOM     22  C   UNL     1      -8.321   4.419 129.956  0.00  0.00    +0.000 C 
ATOM     23  O   UNL     1      -9.033   3.704 129.250  0.00  0.00    +0.000 OA
ATOM     24  N   UNL     1      -8.914   5.583 130.308  0.00  0.00    +0.000 N 
ATOM     25  H   UNL     1      -8.593   6.290 130.958  0.00  0.00    +0.000 HD
BRANCH  24  26
ATOM     26  N   UNL     1     -10.309   5.516 130.053  0.00  0.00    +0.000 N 
ATOM     27  C   UNL     1     -10.884   6.546 129.320  0.00  0.00    +0.000 A 
ATOM     28  N   UNL     1     -10.112   7.393 128.608  0.00  0.00    +0.000 NA
ATOM     29  C   UNL     1     -10.755   8.458 128.086  0.00  0.00    +0.000 A 
ATOM     30  C   UNL     1     -12.101   8.705 128.306  0.00  0.00    +0.000 A 
ATOM     31  N   UNL     1     -12.891   7.862 129.003  0.00  0.00    +0.000 NA
ATOM     32  C   UNL     1     -12.255   6.770 129.483  0.00  0.00    +0.000 A 
ATOM     33  H   UNL     1     -10.623   4.566 129.797  0.00  0.00    +0.000 HD
ENDBRANCH  24  26
ENDBRANCH  21  22
ENDBRANCH   3  20
TORSDOF 6
ENDMDL
MODEL 8
REMARK VINA RESULT:      -8.7      5.021      6.964
REMARK  Name = Selinexor
REMARK  6 active torsions:
REMARK  status: ('A' for Active; 'I' for Inactive)
REMARK    1  A    between atoms: C_2  and  C_5
REMARK    2  A    between atoms: C_7  and  C_28
REMARK    3  A    between atoms: C_9  and  C_11
REMARK    4  A    between atoms: N_13  and  C_14
REMARK    5  A    between atoms: C_15  and  C_16
REMARK    6  A    between atoms: N_18  and  N_19
REMARK                            x       y       z     vdW  Elec       q    Type
REMARK                         _______ _______ _______ _____ _____    ______ ____
ROOT
ATOM      1  C   UNL     1      -5.668   0.603 126.860  0.00  0.00    +0.000 A 
ATOM      2  N   UNL     1      -5.401   1.473 125.878  0.00  0.00    +0.000 NA
ATOM      3  N   UNL     1      -4.716   2.466 126.540  0.00  0.00    +0.000 N 
ATOM      4  C   UNL     1      -4.606   2.017 127.837  0.00  0.00    +0.000 A 
ATOM      5  N   UNL     1      -5.206   0.897 128.071  0.00  0.00    +0.000 NA
ENDROOT
BRANCH   1  10
ATOM      6  C   UNL     1      -7.620  -2.364 127.828  0.00  0.00    +0.000 A 
ATOM      7  C   UNL     1      -7.750  -3.000 126.581  0.00  0.00    +0.000 A 
ATOM      8  C   UNL     1      -7.163  -2.449 125.427  0.00  0.00    +0.000 A 
ATOM      9  C   UNL     1      -6.548  -1.208 125.519  0.00  0.00    +0.000 A 
ATOM     10  C   UNL     1      -6.356  -0.634 126.773  0.00  0.00    +0.000 A 
ATOM     11  C   UNL     1      -6.917  -1.170 127.913  0.00  0.00    +0.000 A 
BRANCH   6  13
ATOM     12  F   UNL     1      -8.387  -1.977 130.039  0.00  0.00    +0.000 F 
ATOM     13  C   UNL     1      -8.118  -2.940 129.117  0.00  0.00    +0.000 C 
ATOM     14  F   UNL     1      -7.189  -3.757 129.689  0.00  0.00    +0.000 F 
ATOM     15  F   UNL     1      -9.248  -3.680 128.986  0.00  0.00    +0.000 F 
ENDBRANCH   6  13
BRANCH   8  16
ATOM     16  C   UNL     1      -7.040  -3.235 124.153  0.00  0.00    +0.000 C 
ATOM     17  F   UNL     1      -7.415  -4.532 124.344  0.00  0.00    +0.000 F 
ATOM     18  F   UNL     1      -7.814  -2.757 123.147  0.00  0.00    +0.000 F 
ATOM     19  F   UNL     1      -5.768  -3.292 123.668  0.00  0.00    +0.000 F 
ENDBRANCH   8  16
ENDBRANCH   1  10
BRANCH   3  20
ATOM     20  C   UNL     1      -4.258   3.656 125.922  0.00  0.00    +0.000 C 
ATOM     21  C   UNL     1      -4.748   4.391 124.894  0.00  0.00    +0.000 C 
BRANCH  21  22
ATOM     22  C   UNL     1      -5.974   4.076 124.133  0.00  0.00    +0.000 C 
ATOM     23  O   UNL     1      -5.951   3.625 122.987  0.00  0.00    +0.000 OA
ATOM     24  N   UNL     1      -7.225   4.225 124.624  0.00  0.00    +0.000 N 
ATOM     25  H   UNL     1      -7.516   4.473 125.562  0.00  0.00    +0.000 HD
BRANCH  24  26
ATOM     26  N   UNL     1      -8.153   3.509 123.821  0.00  0.00    +0.000 N 
ATOM     27  C   UNL     1      -8.822   2.439 124.400  0.00  0.00    +0.000 A 
ATOM     28  N   UNL     1      -8.841   2.289 125.741  0.00  0.00    +0.000 NA
ATOM     29  C   UNL     1      -9.360   1.125 126.183  0.00  0.00    +0.000 A 
ATOM     30  C   UNL     1      -9.795   0.124 125.329  0.00  0.00    +0.000 A 
ATOM     31  N   UNL     1      -9.797   0.263 123.987  0.00  0.00    +0.000 NA
ATOM     32  C   UNL     1      -9.323   1.450 123.548  0.00  0.00    +0.000 A 
ATOM     33  H   UNL     1      -8.737   4.129 123.238  0.00  0.00    +0.000 HD
ENDBRANCH  24  26
ENDBRANCH  21  22
ENDBRANCH   3  20
TORSDOF 6
ENDMDL
MODEL 9
REMARK VINA RESULT:      -8.7      5.479      8.439
REMARK  Name = Selinexor
REMARK  6 active torsions:
REMARK  status: ('A' for Active; 'I' for Inactive)
REMARK    1  A    between atoms: C_2  and  C_5
REMARK    2  A    between atoms: C_7  and  C_28
REMARK    3  A    between atoms: C_9  and  C_11
REMARK    4  A    between atoms: N_13  and  C_14
REMARK    5  A    between atoms: C_15  and  C_16
REMARK    6  A    between atoms: N_18  and  N_19
REMARK                            x       y       z     vdW  Elec       q    Type
REMARK                         _______ _______ _______ _____ _____    ______ ____
ROOT
ATOM      1  C   UNL     1      -5.514   6.618 131.258  0.00  0.00    +0.000 A 
ATOM      2  N   UNL     1      -4.994   6.705 130.028  0.00  0.00    +0.000 NA
ATOM      3  N   UNL     1      -3.678   7.017 130.283  0.00  0.00    +0.000 N 
ATOM      4  C   UNL     1      -3.572   7.008 131.656  0.00  0.00    +0.000 A 
ATOM      5  N   UNL     1      -4.685   6.799 132.280  0.00  0.00    +0.000 NA
ENDROOT
BRANCH   1  10
ATOM      6  C   UNL     1      -8.379   5.217 133.098  0.00  0.00    +0.000 A 
ATOM      7  C   UNL     1      -9.444   5.783 132.377  0.00  0.00    +0.000 A 
ATOM      8  C   UNL     1      -9.202   6.608 131.264  0.00  0.00    +0.000 A 
ATOM      9  C   UNL     1      -7.892   6.946 130.956  0.00  0.00    +0.000 A 
ATOM     10  C   UNL     1      -6.849   6.312 131.627  0.00  0.00    +0.000 A 
ATOM     11  C   UNL     1      -7.073   5.492 132.713  0.00  0.00    +0.000 A 
BRANCH   6  13
ATOM     12  F   UNL     1      -8.328   4.814 135.436  0.00  0.00    +0.000 F 
ATOM     13  C   UNL     1      -8.552   4.243 134.222  0.00  0.00    +0.000 C 
ATOM     14  F   UNL     1      -7.667   3.210 134.127  0.00  0.00    +0.000 F 
ATOM     15  F   UNL     1      -9.787   3.683 134.277  0.00  0.00    +0.000 F 
ENDBRANCH   6  13
BRANCH   8  16
ATOM     16  C   UNL     1     -10.301   6.991 130.313  0.00  0.00    +0.000 C 
ATOM     17  F   UNL     1      -9.928   8.051 129.542  0.00  0.00    +0.000 F 
ATOM     18  F   UNL     1     -10.645   5.996 129.458  0.00  0.00    +0.000 F 
ATOM     19  F   UNL     1     -11.450   7.380 130.935  0.00  0.00    +0.000 F 
ENDBRANCH   8  16
ENDBRANCH   1  10
BRANCH   3  20
ATOM     20  C   UNL     1      -2.716   7.267 129.274  0.00  0.00    +0.000 C 
ATOM     21  C   UNL     1      -2.375   6.581 128.157  0.00  0.00    +0.000 C 
BRANCH  21  22
ATOM     22  C   UNL     1      -2.990   5.312 127.717  0.00  0.00    +0.000 C 
ATOM     23  O   UNL     1      -2.397   4.233 127.759  0.00  0.00    +0.000 OA
ATOM     24  N   UNL     1      -4.258   5.209 127.257  0.00  0.00    +0.000 N 
ATOM     25  H   UNL     1      -4.982   5.916 127.223  0.00  0.00    +0.000 HD
BRANCH  24  26
ATOM     26  N   UNL     1      -4.671   3.850 127.268  0.00  0.00    +0.000 N 
ATOM     27  C   UNL     1      -5.930   3.560 127.776  0.00  0.00    +0.000 A 
ATOM     28  N   UNL     1      -6.843   4.539 127.945  0.00  0.00    +0.000 NA
ATOM     29  C   UNL     1      -7.959   4.177 128.611  0.00  0.00    +0.000 A 
ATOM     30  C   UNL     1      -8.142   2.908 129.136  0.00  0.00    +0.000 A 
ATOM     31  N   UNL     1      -7.247   1.914 128.964  0.00  0.00    +0.000 NA
ATOM     32  C   UNL     1      -6.152   2.264 128.254  0.00  0.00    +0.000 A 
ATOM     33  H   UNL     1      -4.421   3.351 126.399  0.00  0.00    +0.000 HD
ENDBRANCH  24  26
ENDBRANCH  21  22
ENDBRANCH   3  20
TORSDOF 6
ENDMDL
