MODEL 1
REMARK VINA RESULT:      -8.9      0.000      0.000
REMARK  Name = Selpercatinib
REMARK  13 active torsions:
REMARK  status: ('A' for Active; 'I' for Inactive)
REMARK    1  A    between atoms: C_1  and  O_2
REMARK    2  A    between atoms: O_2  and  C_3
REMARK    3  A    between atoms: C_6  and  C_7
REMARK    4  A    between atoms: C_7  and  N_8
REMARK    5  A    between atoms: N_13  and  C_15
REMARK    6  A    between atoms: C_18  and  C_21
REMARK    7  A    between atoms: C_23  and  O_24
REMARK    8  A    between atoms: O_24  and  C_25
REMARK    9  A    between atoms: C_25  and  C_26
REMARK   10  A    between atoms: C_26  and  C_27
REMARK   11  A    between atoms: C_26  and  C_28
REMARK   12  A    between atoms: C_26  and  O_29
REMARK   13  A    between atoms: C_34  and  C_35
REMARK                            x       y       z     vdW  Elec       q    Type
REMARK                         _______ _______ _______ _____ _____    ______ ____
ROOT
ATOM      1  C   UNL     1      -6.973   2.120 130.405  0.00  0.00    +0.000 A 
ATOM      2  C   UNL     1      -5.758   1.735 129.846  0.00  0.00    +0.000 A 
ATOM      3  C   UNL     1      -5.662   1.502 128.462  0.00  0.00    +0.000 A 
ATOM      4  C   UNL     1      -6.774   1.679 127.637  0.00  0.00    +0.000 A 
ATOM      5  C   UNL     1      -7.954   2.011 128.300  0.00  0.00    +0.000 A 
ATOM      6  N   UNL     1      -8.081   2.190 129.642  0.00  0.00    +0.000 NA
ENDROOT
BRANCH   4   7
ATOM      7  C   UNL     1      -6.703   1.535 126.149  0.00  0.00    +0.000 A 
ATOM      8  C   UNL     1      -7.146   0.364 125.614  0.00  0.00    +0.000 A 
ATOM      9  C   UNL     1      -7.196   0.155 124.162  0.00  0.00    +0.000 A 
ATOM     10  C   UNL     1      -6.924   1.150 123.333  0.00  0.00    +0.000 A 
ATOM     11  N   UNL     1      -6.657   2.352 123.871  0.00  0.00    +0.000 N 
ATOM     12  N   UNL     1      -6.878   3.543 123.294  0.00  0.00    +0.000 NA
ATOM     13  C   UNL     1      -5.763   4.175 123.683  0.00  0.00    +0.000 A 
ATOM     14  C   UNL     1      -5.639   3.756 125.073  0.00  0.00    +0.000 A 
ATOM     15  C   UNL     1      -6.304   2.540 125.183  0.00  0.00    +0.000 A 
BRANCH  14  16
ATOM     16  C   UNL     1      -5.337   4.379 126.297  0.00  0.00    +0.000 C 
ATOM     17  N   UNL     1      -5.416   5.029 127.289  0.00  0.00    +0.000 NA
ENDBRANCH  14  16
BRANCH   9  18
ATOM     18  O   UNL     1      -7.697  -0.946 123.563  0.00  0.00    +0.000 OA
BRANCH  18  19
ATOM     19  C   UNL     1      -9.048  -1.265 123.741  0.00  0.00    +0.000 C 
BRANCH  19  20
ATOM     20  C   UNL     1      -9.065  -2.692 124.283  0.00  0.00    +0.000 C 
ATOM     21  C   UNL     1      -7.690  -3.349 124.112  0.00  0.00    +0.000 C 
ATOM     22  C   UNL     1      -9.437  -2.684 125.769  0.00  0.00    +0.000 C 
BRANCH  20  23
ATOM     23  O   UNL     1     -10.042  -3.435 123.560  0.00  0.00    +0.000 OA
ATOM     24  H   UNL     1      -9.658  -3.659 122.694  0.00  0.00    +0.000 HD
ENDBRANCH  20  23
ENDBRANCH  19  20
ENDBRANCH  18  19
ENDBRANCH   9  18
ENDBRANCH   4   7
BRANCH   1  30
ATOM     25  N   UNL     1      -9.101   4.388 132.202  0.00  0.00    +0.000 NA
ATOM     26  C   UNL     1      -7.721   4.613 132.719  0.00  0.00    +0.000 C 
ATOM     27  C   UNL     1      -8.223   3.852 134.071  0.00  0.00    +0.000 C 
ATOM     28  C   UNL     1      -9.110   3.136 133.080  0.00  0.00    +0.000 C 
ATOM     29  C   UNL     1      -8.207   1.992 132.569  0.00  0.00    +0.000 C 
ATOM     30  N   UNL     1      -7.122   2.487 131.716  0.00  0.00    +0.000 N 
ATOM     31  C   UNL     1      -6.595   3.793 132.079  0.00  0.00    +0.000 C 
BRANCH  25  32
ATOM     32  C   UNL     1     -10.002   5.530 132.601  0.00  0.00    +0.000 C 
BRANCH  32  36
ATOM     33  C   UNL     1     -12.061   7.707 129.512  0.00  0.00    +0.000 A 
ATOM     34  N   UNL     1     -10.705   7.619 129.444  0.00  0.00    +0.000 NA
ATOM     35  C   UNL     1     -10.055   6.933 130.443  0.00  0.00    +0.000 A 
ATOM     36  C   UNL     1     -10.690   6.442 131.566  0.00  0.00    +0.000 A 
ATOM     37  C   UNL     1     -12.016   6.869 131.627  0.00  0.00    +0.000 A 
ATOM     38  C   UNL     1     -12.760   7.190 130.540  0.00  0.00    +0.000 A 
BRANCH  33  40
ATOM     39  C   UNL     1     -13.553   7.608 127.713  0.00  0.00    +0.000 C 
ATOM     40  O   UNL     1     -12.739   8.440 128.566  0.00  0.00    +0.000 OA
ENDBRANCH  33  40
ENDBRANCH  32  36
ENDBRANCH  25  32
ENDBRANCH   1  30
TORSDOF 10
ENDMDL
MODEL 2
REMARK VINA RESULT:      -8.6      1.674      2.021
REMARK  Name = Selpercatinib
REMARK  13 active torsions:
REMARK  status: ('A' for Active; 'I' for Inactive)
REMARK    1  A    between atoms: C_1  and  O_2
REMARK    2  A    between atoms: O_2  and  C_3
REMARK    3  A    between atoms: C_6  and  C_7
REMARK    4  A    between atoms: C_7  and  N_8
REMARK    5  A    between atoms: N_13  and  C_15
REMARK    6  A    between atoms: C_18  and  C_21
REMARK    7  A    between atoms: C_23  and  O_24
REMARK    8  A    between atoms: O_24  and  C_25
REMARK    9  A    between atoms: C_25  and  C_26
REMARK   10  A    between atoms: C_26  and  C_27
REMARK   11  A    between atoms: C_26  and  C_28
REMARK   12  A    between atoms: C_26  and  O_29
REMARK   13  A    between atoms: C_34  and  C_35
REMARK                            x       y       z     vdW  Elec       q    Type
REMARK                         _______ _______ _______ _____ _____    ______ ____
ROOT
ATOM      1  C   UNL     1      -5.280   3.664 129.353  0.00  0.00    +0.000 A 
ATOM      2  C   UNL     1      -4.245   3.354 128.476  0.00  0.00    +0.000 A 
ATOM      3  C   UNL     1      -4.519   2.677 127.274  0.00  0.00    +0.000 A 
ATOM      4  C   UNL     1      -5.830   2.336 126.939  0.00  0.00    +0.000 A 
ATOM      5  C   UNL     1      -6.786   2.640 127.906  0.00  0.00    +0.000 A 
ATOM      6  N   UNL     1      -6.536   3.247 129.098  0.00  0.00    +0.000 NA
ENDROOT
BRANCH   4   7
ATOM      7  C   UNL     1      -6.188   1.699 125.632  0.00  0.00    +0.000 A 
ATOM      8  C   UNL     1      -6.313   0.344 125.612  0.00  0.00    +0.000 A 
ATOM      9  C   UNL     1      -6.741  -0.369 124.402  0.00  0.00    +0.000 A 
ATOM     10  C   UNL     1      -7.132   0.305 123.332  0.00  0.00    +0.000 A 
ATOM     11  N   UNL     1      -7.169   1.645 123.420  0.00  0.00    +0.000 N 
ATOM     12  N   UNL     1      -7.982   2.459 122.732  0.00  0.00    +0.000 NA
ATOM     13  C   UNL     1      -7.116   3.447 122.467  0.00  0.00    +0.000 A 
ATOM     14  C   UNL     1      -6.413   3.589 123.735  0.00  0.00    +0.000 A 
ATOM     15  C   UNL     1      -6.513   2.365 124.386  0.00  0.00    +0.000 A 
BRANCH  14  16
ATOM     16  C   UNL     1      -5.990   4.658 124.545  0.00  0.00    +0.000 C 
ATOM     17  N   UNL     1      -5.973   5.541 125.341  0.00  0.00    +0.000 NA
ENDBRANCH  14  16
BRANCH   9  18
ATOM     18  O   UNL     1      -6.964  -1.698 124.334  0.00  0.00    +0.000 OA
BRANCH  18  19
ATOM     19  C   UNL     1      -7.228  -2.407 125.511  0.00  0.00    +0.000 C 
BRANCH  19  20
ATOM     20  C   UNL     1      -8.723  -2.713 125.481  0.00  0.00    +0.000 C 
ATOM     21  C   UNL     1      -9.093  -3.459 124.193  0.00  0.00    +0.000 C 
ATOM     22  C   UNL     1      -9.106  -3.574 126.689  0.00  0.00    +0.000 C 
BRANCH  20  23
ATOM     23  O   UNL     1      -9.436  -1.481 125.541  0.00  0.00    +0.000 OA
ATOM     24  H   UNL     1      -9.863  -1.348 124.676  0.00  0.00    +0.000 HD
ENDBRANCH  20  23
ENDBRANCH  19  20
ENDBRANCH  18  19
ENDBRANCH   9  18
ENDBRANCH   4   7
BRANCH   1  30
ATOM     25  N   UNL     1      -7.478   5.340 131.647  0.00  0.00    +0.000 NA
ATOM     26  C   UNL     1      -6.393   6.311 131.325  0.00  0.00    +0.000 C 
ATOM     27  C   UNL     1      -5.842   6.026 132.833  0.00  0.00    +0.000 C 
ATOM     28  C   UNL     1      -6.459   4.672 132.570  0.00  0.00    +0.000 C 
ATOM     29  C   UNL     1      -5.332   3.914 131.834  0.00  0.00    +0.000 C 
ATOM     30  N   UNL     1      -5.119   4.429 130.478  0.00  0.00    +0.000 N 
ATOM     31  C   UNL     1      -5.331   5.859 130.316  0.00  0.00    +0.000 C 
BRANCH  25  32
ATOM     32  C   UNL     1      -8.643   6.052 132.289  0.00  0.00    +0.000 C 
BRANCH  32  36
ATOM     33  C   UNL     1     -12.156   7.480 130.255  0.00  0.00    +0.000 A 
ATOM     34  N   UNL     1     -12.321   6.763 131.399  0.00  0.00    +0.000 NA
ATOM     35  C   UNL     1     -11.193   6.299 132.034  0.00  0.00    +0.000 A 
ATOM     36  C   UNL     1      -9.922   6.415 131.509  0.00  0.00    +0.000 A 
ATOM     37  C   UNL     1      -9.955   6.906 130.204  0.00  0.00    +0.000 A 
ATOM     38  C   UNL     1     -10.942   7.698 129.716  0.00  0.00    +0.000 A 
BRANCH  33  40
ATOM     39  C   UNL     1     -13.545   7.067 128.418  0.00  0.00    +0.000 C 
ATOM     40  O   UNL     1     -13.264   7.905 129.558  0.00  0.00    +0.000 OA
ENDBRANCH  33  40
ENDBRANCH  32  36
ENDBRANCH  25  32
ENDBRANCH   1  30
TORSDOF 10
ENDMDL
MODEL 3
REMARK VINA RESULT:      -8.3      4.173      9.561
REMARK  Name = Selpercatinib
REMARK  13 active torsions:
REMARK  status: ('A' for Active; 'I' for Inactive)
REMARK    1  A    between atoms: C_1  and  O_2
REMARK    2  A    between atoms: O_2  and  C_3
REMARK    3  A    between atoms: C_6  and  C_7
REMARK    4  A    between atoms: C_7  and  N_8
REMARK    5  A    between atoms: N_13  and  C_15
REMARK    6  A    between atoms: C_18  and  C_21
REMARK    7  A    between atoms: C_23  and  O_24
REMARK    8  A    between atoms: O_24  and  C_25
REMARK    9  A    between atoms: C_25  and  C_26
REMARK   10  A    between atoms: C_26  and  C_27
REMARK   11  A    between atoms: C_26  and  C_28
REMARK   12  A    between atoms: C_26  and  O_29
REMARK   13  A    between atoms: C_34  and  C_35
REMARK                            x       y       z     vdW  Elec       q    Type
REMARK                         _______ _______ _______ _____ _____    ______ ____
ROOT
ATOM      1  C   UNL     1      -7.681  -3.028 127.144  0.00  0.00    +0.000 A 
ATOM      2  C   UNL     1      -8.505  -3.471 128.175  0.00  0.00    +0.000 A 
ATOM      3  C   UNL     1      -8.217  -3.122 129.506  0.00  0.00    +0.000 A 
ATOM      4  C   UNL     1      -7.122  -2.308 129.802  0.00  0.00    +0.000 A 
ATOM      5  C   UNL     1      -6.329  -1.964 128.709  0.00  0.00    +0.000 A 
ATOM      6  N   UNL     1      -6.559  -2.334 127.420  0.00  0.00    +0.000 NA
ENDROOT
BRANCH   4   7
ATOM      7  C   UNL     1      -6.825  -1.830 131.189  0.00  0.00    +0.000 A 
ATOM      8  C   UNL     1      -7.218  -0.567 131.511  0.00  0.00    +0.000 A 
ATOM      9  C   UNL     1      -7.049  -0.034 132.868  0.00  0.00    +0.000 A 
ATOM     10  C   UNL     1      -6.618  -0.816 133.845  0.00  0.00    +0.000 A 
ATOM     11  N   UNL     1      -6.397  -2.109 133.555  0.00  0.00    +0.000 N 
ATOM     12  N   UNL     1      -6.484  -3.137 134.412  0.00  0.00    +0.000 NA
ATOM     13  C   UNL     1      -5.422  -3.844 134.002  0.00  0.00    +0.000 A 
ATOM     14  C   UNL     1      -5.531  -3.751 132.552  0.00  0.00    +0.000 A 
ATOM     15  C   UNL     1      -6.246  -2.590 132.279  0.00  0.00    +0.000 A 
BRANCH  14  16
ATOM     16  C   UNL     1      -5.403  -4.636 131.467  0.00  0.00    +0.000 C 
ATOM     17  N   UNL     1      -5.635  -5.455 130.637  0.00  0.00    +0.000 NA
ENDBRANCH  14  16
BRANCH   9  18
ATOM     18  O   UNL     1      -7.487   1.175 133.277  0.00  0.00    +0.000 OA
BRANCH  18  19
ATOM     19  C   UNL     1      -7.392   2.266 132.406  0.00  0.00    +0.000 C 
BRANCH  19  20
ATOM     20  C   UNL     1      -8.759   2.945 132.445  0.00  0.00    +0.000 C 
ATOM     21  C   UNL     1      -9.866   1.944 132.094  0.00  0.00    +0.000 C 
ATOM     22  C   UNL     1      -9.020   3.515 133.843  0.00  0.00    +0.000 C 
BRANCH  20  23
ATOM     23  O   UNL     1      -8.759   4.010 131.499  0.00  0.00    +0.000 OA
ATOM     24  H   UNL     1      -8.212   3.730 130.743  0.00  0.00    +0.000 HD
ENDBRANCH  20  23
ENDBRANCH  19  20
ENDBRANCH  18  19
ENDBRANCH   9  18
ENDBRANCH   4   7
BRANCH   1  30
ATOM     25  N   UNL     1      -8.277  -0.885 124.324  0.00  0.00    +0.000 NA
ATOM     26  C   UNL     1      -9.330  -1.939 124.276  0.00  0.00    +0.000 C 
ATOM     27  C   UNL     1      -8.504  -2.550 123.009  0.00  0.00    +0.000 C 
ATOM     28  C   UNL     1      -7.337  -1.949 123.757  0.00  0.00    +0.000 C 
ATOM     29  C   UNL     1      -6.956  -3.062 124.758  0.00  0.00    +0.000 C 
ATOM     30  N   UNL     1      -7.958  -3.216 125.816  0.00  0.00    +0.000 N 
ATOM     31  C   UNL     1      -9.333  -2.972 125.409  0.00  0.00    +0.000 C 
BRANCH  25  32
ATOM     32  C   UNL     1      -8.651   0.269 123.427  0.00  0.00    +0.000 C 
BRANCH  32  36
ATOM     33  C   UNL     1      -6.129   3.733 123.025  0.00  0.00    +0.000 A 
ATOM     34  N   UNL     1      -6.010   2.976 124.148  0.00  0.00    +0.000 NA
ATOM     35  C   UNL     1      -6.829   1.879 124.275  0.00  0.00    +0.000 A 
ATOM     36  C   UNL     1      -7.843   1.581 123.387  0.00  0.00    +0.000 A 
ATOM     37  C   UNL     1      -8.025   2.607 122.461  0.00  0.00    +0.000 A 
ATOM     38  C   UNL     1      -7.047   3.465 122.077  0.00  0.00    +0.000 A 
BRANCH  33  40
ATOM     39  C   UNL     1      -4.527   4.835 121.725  0.00  0.00    +0.000 C 
ATOM     40  O   UNL     1      -5.371   4.873 122.894  0.00  0.00    +0.000 OA
ENDBRANCH  33  40
ENDBRANCH  32  36
ENDBRANCH  25  32
ENDBRANCH   1  30
TORSDOF 10
ENDMDL
MODEL 4
REMARK VINA RESULT:      -8.2      2.027      4.085
REMARK  Name = Selpercatinib
REMARK  13 active torsions:
REMARK  status: ('A' for Active; 'I' for Inactive)
REMARK    1  A    between atoms: C_1  and  O_2
REMARK    2  A    between atoms: O_2  and  C_3
REMARK    3  A    between atoms: C_6  and  C_7
REMARK    4  A    between atoms: C_7  and  N_8
REMARK    5  A    between atoms: N_13  and  C_15
REMARK    6  A    between atoms: C_18  and  C_21
REMARK    7  A    between atoms: C_23  and  O_24
REMARK    8  A    between atoms: O_24  and  C_25
REMARK    9  A    between atoms: C_25  and  C_26
REMARK   10  A    between atoms: C_26  and  C_27
REMARK   11  A    between atoms: C_26  and  C_28
REMARK   12  A    between atoms: C_26  and  O_29
REMARK   13  A    between atoms: C_34  and  C_35
REMARK                            x       y       z     vdW  Elec       q    Type
REMARK                         _______ _______ _______ _____ _____    ______ ____
ROOT
ATOM      1  C   UNL     1      -7.044   1.381 130.565  0.00  0.00    +0.000 A 
ATOM      2  C   UNL     1      -6.086   0.607 129.916  0.00  0.00    +0.000 A 
ATOM      3  C   UNL     1      -6.349   0.091 128.634  0.00  0.00    +0.000 A 
ATOM      4  C   UNL     1      -7.557   0.372 127.994  0.00  0.00    +0.000 A 
ATOM      5  C   UNL     1      -8.469   1.107 128.748  0.00  0.00    +0.000 A 
ATOM      6  N   UNL     1      -8.256   1.571 130.009  0.00  0.00    +0.000 NA
ENDROOT
BRANCH   4   7
ATOM      7  C   UNL     1      -7.849  -0.074 126.594  0.00  0.00    +0.000 A 
ATOM      8  C   UNL     1      -7.848   0.881 125.623  0.00  0.00    +0.000 A 
ATOM      9  C   UNL     1      -8.041   0.535 124.209  0.00  0.00    +0.000 A 
ATOM     10  C   UNL     1      -8.100  -0.731 123.832  0.00  0.00    +0.000 A 
ATOM     11  N   UNL     1      -7.926  -1.671 124.777  0.00  0.00    +0.000 N 
ATOM     12  N   UNL     1      -7.430  -2.902 124.586  0.00  0.00    +0.000 NA
ATOM     13  C   UNL     1      -8.247  -3.587 125.397  0.00  0.00    +0.000 A 
ATOM     14  C   UNL     1      -8.320  -2.719 126.566  0.00  0.00    +0.000 A 
ATOM     15  C   UNL     1      -8.043  -1.431 126.123  0.00  0.00    +0.000 A 
BRANCH  14  16
ATOM     16  C   UNL     1      -8.269  -2.890 127.960  0.00  0.00    +0.000 C 
ATOM     17  N   UNL     1      -8.479  -3.278 129.064  0.00  0.00    +0.000 NA
ENDBRANCH  14  16
BRANCH   9  18
ATOM     18  O   UNL     1      -7.971   1.416 123.189  0.00  0.00    +0.000 OA
BRANCH  18  19
ATOM     19  C   UNL     1      -6.716   1.847 122.744  0.00  0.00    +0.000 C 
BRANCH  19  20
ATOM     20  C   UNL     1      -6.809   3.368 122.661  0.00  0.00    +0.000 C 
ATOM     21  C   UNL     1      -6.115   4.016 123.865  0.00  0.00    +0.000 C 
ATOM     22  C   UNL     1      -6.147   3.864 121.372  0.00  0.00    +0.000 C 
BRANCH  20  23
ATOM     23  O   UNL     1      -8.186   3.734 122.650  0.00  0.00    +0.000 OA
ATOM     24  H   UNL     1      -8.520   3.646 123.560  0.00  0.00    +0.000 HD
ENDBRANCH  20  23
ENDBRANCH  19  20
ENDBRANCH  18  19
ENDBRANCH   9  18
ENDBRANCH   4   7
BRANCH   1  30
ATOM     25  N   UNL     1      -8.533   4.155 132.294  0.00  0.00    +0.000 NA
ATOM     26  C   UNL     1      -7.058   4.357 132.376  0.00  0.00    +0.000 C 
ATOM     27  C   UNL     1      -7.200   3.940 133.946  0.00  0.00    +0.000 C 
ATOM     28  C   UNL     1      -8.344   3.118 133.401  0.00  0.00    +0.000 C 
ATOM     29  C   UNL     1      -7.650   1.816 132.945  0.00  0.00    +0.000 C 
ATOM     30  N   UNL     1      -6.821   2.024 131.754  0.00  0.00    +0.000 N 
ATOM     31  C   UNL     1      -6.174   3.323 131.668  0.00  0.00    +0.000 C 
BRANCH  25  32
ATOM     32  C   UNL     1      -9.255   5.432 132.646  0.00  0.00    +0.000 C 
BRANCH  32  36
ATOM     33  C   UNL     1     -11.744   7.803 130.057  0.00  0.00    +0.000 A 
ATOM     34  N   UNL     1     -12.319   7.207 131.135  0.00  0.00    +0.000 NA
ATOM     35  C   UNL     1     -11.519   6.440 131.948  0.00  0.00    +0.000 A 
ATOM     36  C   UNL     1     -10.202   6.145 131.660  0.00  0.00    +0.000 A 
ATOM     37  C   UNL     1      -9.852   6.582 130.384  0.00  0.00    +0.000 A 
ATOM     38  C   UNL     1     -10.445   7.623 129.748  0.00  0.00    +0.000 A 
BRANCH  33  40
ATOM     39  C   UNL     1     -12.121   8.345 127.812  0.00  0.00    +0.000 C 
ATOM     40  O   UNL     1     -12.526   8.525 129.185  0.00  0.00    +0.000 OA
ENDBRANCH  33  40
ENDBRANCH  32  36
ENDBRANCH  25  32
ENDBRANCH   1  30
TORSDOF 10
ENDMDL
MODEL 5
REMARK VINA RESULT:      -8.2      6.301      9.587
REMARK  Name = Selpercatinib
REMARK  13 active torsions:
REMARK  status: ('A' for Active; 'I' for Inactive)
REMARK    1  A    between atoms: C_1  and  O_2
REMARK    2  A    between atoms: O_2  and  C_3
REMARK    3  A    between atoms: C_6  and  C_7
REMARK    4  A    between atoms: C_7  and  N_8
REMARK    5  A    between atoms: N_13  and  C_15
REMARK    6  A    between atoms: C_18  and  C_21
REMARK    7  A    between atoms: C_23  and  O_24
REMARK    8  A    between atoms: O_24  and  C_25
REMARK    9  A    between atoms: C_25  and  C_26
REMARK   10  A    between atoms: C_26  and  C_27
REMARK   11  A    between atoms: C_26  and  C_28
REMARK   12  A    between atoms: C_26  and  O_29
REMARK   13  A    between atoms: C_34  and  C_35
REMARK                            x       y       z     vdW  Elec       q    Type
REMARK                         _______ _______ _______ _____ _____    ______ ____
ROOT
ATOM      1  C   UNL     1      -3.861   6.319 133.043  0.00  0.00    +0.000 A 
ATOM      2  C   UNL     1      -4.933   6.002 133.874  0.00  0.00    +0.000 A 
ATOM      3  C   UNL     1      -6.225   5.864 133.335  0.00  0.00    +0.000 A 
ATOM      4  C   UNL     1      -6.437   6.016 131.963  0.00  0.00    +0.000 A 
ATOM      5  C   UNL     1      -5.313   6.386 131.228  0.00  0.00    +0.000 A 
ATOM      6  N   UNL     1      -4.066   6.576 131.737  0.00  0.00    +0.000 NA
ENDROOT
BRANCH   4   7
ATOM      7  C   UNL     1      -7.773   5.788 131.326  0.00  0.00    +0.000 A 
ATOM      8  C   UNL     1      -8.504   6.890 130.998  0.00  0.00    +0.000 A 
ATOM      9  C   UNL     1      -9.788   6.777 130.295  0.00  0.00    +0.000 A 
ATOM     10  C   UNL     1     -10.207   5.602 129.855  0.00  0.00    +0.000 A 
ATOM     11  N   UNL     1      -9.396   4.546 130.030  0.00  0.00    +0.000 N 
ATOM     12  N   UNL     1      -9.342   3.453 129.253  0.00  0.00    +0.000 NA
ATOM     13  C   UNL     1      -9.196   2.524 130.207  0.00  0.00    +0.000 A 
ATOM     14  C   UNL     1      -8.233   3.150 131.104  0.00  0.00    +0.000 A 
ATOM     15  C   UNL     1      -8.353   4.523 130.921  0.00  0.00    +0.000 A 
BRANCH  14  16
ATOM     16  C   UNL     1      -7.078   2.743 131.796  0.00  0.00    +0.000 C 
ATOM     17  N   UNL     1      -6.009   2.292 132.052  0.00  0.00    +0.000 NA
ENDBRANCH  14  16
BRANCH   9  18
ATOM     18  O   UNL     1     -10.523   7.825 129.870  0.00  0.00    +0.000 OA
BRANCH  18  19
ATOM     19  C   UNL     1     -11.918   7.764 129.963  0.00  0.00    +0.000 C 
BRANCH  19  20
ATOM     20  C   UNL     1     -12.445   8.613 128.810  0.00  0.00    +0.000 C 
ATOM     21  C   UNL     1     -13.468   7.824 127.984  0.00  0.00    +0.000 C 
ATOM     22  C   UNL     1     -13.108   9.882 129.355  0.00  0.00    +0.000 C 
BRANCH  20  23
ATOM     23  O   UNL     1     -11.344   8.980 127.983  0.00  0.00    +0.000 OA
ATOM     24  H   UNL     1     -11.591   9.797 127.513  0.00  0.00    +0.000 HD
ENDBRANCH  20  23
ENDBRANCH  19  20
ENDBRANCH  18  19
ENDBRANCH   9  18
ENDBRANCH   4   7
BRANCH   1  30
ATOM     25  N   UNL     1      -1.369   8.867 133.484  0.00  0.00    +0.000 NA
ATOM     26  C   UNL     1      -0.692   7.739 132.782  0.00  0.00    +0.000 C 
ATOM     27  C   UNL     1       0.060   7.454 134.202  0.00  0.00    +0.000 C 
ATOM     28  C   UNL     1      -1.228   8.023 134.750  0.00  0.00    +0.000 C 
ATOM     29  C   UNL     1      -2.158   6.790 134.803  0.00  0.00    +0.000 C 
ATOM     30  N   UNL     1      -2.558   6.347 133.464  0.00  0.00    +0.000 N 
ATOM     31  C   UNL     1      -1.554   6.523 132.426  0.00  0.00    +0.000 C 
BRANCH  25  32
ATOM     32  C   UNL     1      -0.537  10.121 133.382  0.00  0.00    +0.000 C 
BRANCH  32  36
ATOM     33  C   UNL     1      -1.865  14.120 134.255  0.00  0.00    +0.000 A 
ATOM     34  N   UNL     1      -0.703  13.691 134.815  0.00  0.00    +0.000 NA
ATOM     35  C   UNL     1      -0.293  12.406 134.542  0.00  0.00    +0.000 A 
ATOM     36  C   UNL     1      -1.057  11.499 133.836  0.00  0.00    +0.000 A 
ATOM     37  C   UNL     1      -2.336  11.996 133.588  0.00  0.00    +0.000 A 
ATOM     38  C   UNL     1      -2.632  13.316 133.495  0.00  0.00    +0.000 A 
BRANCH  33  40
ATOM     39  C   UNL     1      -3.124  15.936 133.485  0.00  0.00    +0.000 C 
ATOM     40  O   UNL     1      -2.338  15.376 134.558  0.00  0.00    +0.000 OA
ENDBRANCH  33  40
ENDBRANCH  32  36
ENDBRANCH  25  32
ENDBRANCH   1  30
TORSDOF 10
ENDMDL
MODEL 6
REMARK VINA RESULT:      -8.1      2.911      8.959
REMARK  Name = Selpercatinib
REMARK  13 active torsions:
REMARK  status: ('A' for Active; 'I' for Inactive)
REMARK    1  A    between atoms: C_1  and  O_2
REMARK    2  A    between atoms: O_2  and  C_3
REMARK    3  A    between atoms: C_6  and  C_7
REMARK    4  A    between atoms: C_7  and  N_8
REMARK    5  A    between atoms: N_13  and  C_15
REMARK    6  A    between atoms: C_18  and  C_21
REMARK    7  A    between atoms: C_23  and  O_24
REMARK    8  A    between atoms: O_24  and  C_25
REMARK    9  A    between atoms: C_25  and  C_26
REMARK   10  A    between atoms: C_26  and  C_27
REMARK   11  A    between atoms: C_26  and  C_28
REMARK   12  A    between atoms: C_26  and  O_29
REMARK   13  A    between atoms: C_34  and  C_35
REMARK                            x       y       z     vdW  Elec       q    Type
REMARK                         _______ _______ _______ _____ _____    ______ ____
ROOT
ATOM      1  C   UNL     1      -7.392  -0.316 131.043  0.00  0.00    +0.000 A 
ATOM      2  C   UNL     1      -8.598  -0.004 131.665  0.00  0.00    +0.000 A 
ATOM      3  C   UNL     1      -9.011   1.337 131.767  0.00  0.00    +0.000 A 
ATOM      4  C   UNL     1      -8.231   2.360 131.225  0.00  0.00    +0.000 A 
ATOM      5  C   UNL     1      -7.019   1.949 130.673  0.00  0.00    +0.000 A 
ATOM      6  N   UNL     1      -6.576   0.665 130.611  0.00  0.00    +0.000 NA
ENDROOT
BRANCH   4   7
ATOM      7  C   UNL     1      -8.668   3.791 131.224  0.00  0.00    +0.000 A 
ATOM      8  C   UNL     1      -9.379   4.226 130.147  0.00  0.00    +0.000 A 
ATOM      9  C   UNL     1      -9.925   5.588 130.087  0.00  0.00    +0.000 A 
ATOM     10  C   UNL     1      -9.839   6.388 131.137  0.00  0.00    +0.000 A 
ATOM     11  N   UNL     1      -9.288   5.891 132.256  0.00  0.00    +0.000 N 
ATOM     12  N   UNL     1      -9.563   6.277 133.511  0.00  0.00    +0.000 NA
ATOM     13  C   UNL     1      -8.323   6.243 134.018  0.00  0.00    +0.000 A 
ATOM     14  C   UNL     1      -7.794   5.007 133.455  0.00  0.00    +0.000 A 
ATOM     15  C   UNL     1      -8.506   4.764 132.287  0.00  0.00    +0.000 A 
BRANCH  14  16
ATOM     16  C   UNL     1      -7.044   3.916 133.930  0.00  0.00    +0.000 C 
ATOM     17  N   UNL     1      -6.145   3.234 134.304  0.00  0.00    +0.000 NA
ENDBRANCH  14  16
BRANCH   9  18
ATOM     18  O   UNL     1     -10.704   6.057 129.091  0.00  0.00    +0.000 OA
BRANCH  18  19
ATOM     19  C   UNL     1     -11.734   6.954 129.395  0.00  0.00    +0.000 C 
BRANCH  19  20
ATOM     20  C   UNL     1     -11.945   7.783 128.132  0.00  0.00    +0.000 C 
ATOM     21  C   UNL     1     -10.788   7.567 127.148  0.00  0.00    +0.000 C 
ATOM     22  C   UNL     1     -13.261   7.384 127.457  0.00  0.00    +0.000 C 
BRANCH  20  23
ATOM     23  O   UNL     1     -12.007   9.158 128.500  0.00  0.00    +0.000 OA
ATOM     24  H   UNL     1     -12.268   9.662 127.709  0.00  0.00    +0.000 HD
ENDBRANCH  20  23
ENDBRANCH  19  20
ENDBRANCH  18  19
ENDBRANCH   9  18
ENDBRANCH   4   7
BRANCH   1  30
ATOM     25  N   UNL     1      -7.769  -2.640 128.330  0.00  0.00    +0.000 NA
ATOM     26  C   UNL     1      -8.044  -3.408 129.578  0.00  0.00    +0.000 C 
ATOM     27  C   UNL     1      -6.595  -4.115 129.329  0.00  0.00    +0.000 C 
ATOM     28  C   UNL     1      -6.292  -2.776 128.700  0.00  0.00    +0.000 C 
ATOM     29  C   UNL     1      -5.854  -1.916 129.906  0.00  0.00    +0.000 C 
ATOM     30  N   UNL     1      -6.978  -1.597 130.790  0.00  0.00    +0.000 N 
ATOM     31  C   UNL     1      -7.995  -2.631 130.898  0.00  0.00    +0.000 C 
BRANCH  25  32
ATOM     32  C   UNL     1      -8.263  -3.403 127.126  0.00  0.00    +0.000 C 
BRANCH  32  36
ATOM     33  C   UNL     1      -9.466  -1.422 123.500  0.00  0.00    +0.000 A 
ATOM     34  N   UNL     1      -9.423  -0.694 124.647  0.00  0.00    +0.000 NA
ATOM     35  C   UNL     1      -9.051  -1.339 125.804  0.00  0.00    +0.000 A 
ATOM     36  C   UNL     1      -8.842  -2.701 125.882  0.00  0.00    +0.000 A 
ATOM     37  C   UNL     1      -9.211  -3.339 124.699  0.00  0.00    +0.000 A 
ATOM     38  C   UNL     1      -9.205  -2.743 123.481  0.00  0.00    +0.000 A 
BRANCH  33  40
ATOM     39  C   UNL     1     -10.142   0.585 122.505  0.00  0.00    +0.000 C 
ATOM     40  O   UNL     1      -9.895  -0.827 122.337  0.00  0.00    +0.000 OA
ENDBRANCH  33  40
ENDBRANCH  32  36
ENDBRANCH  25  32
ENDBRANCH   1  30
TORSDOF 10
ENDMDL
MODEL 7
REMARK VINA RESULT:      -7.9      4.746      9.345
REMARK  Name = Selpercatinib
REMARK  13 active torsions:
REMARK  status: ('A' for Active; 'I' for Inactive)
REMARK    1  A    between atoms: C_1  and  O_2
REMARK    2  A    between atoms: O_2  and  C_3
REMARK    3  A    between atoms: C_6  and  C_7
REMARK    4  A    between atoms: C_7  and  N_8
REMARK    5  A    between atoms: N_13  and  C_15
REMARK    6  A    between atoms: C_18  and  C_21
REMARK    7  A    between atoms: C_23  and  O_24
REMARK    8  A    between atoms: O_24  and  C_25
REMARK    9  A    between atoms: C_25  and  C_26
REMARK   10  A    between atoms: C_26  and  C_27
REMARK   11  A    between atoms: C_26  and  C_28
REMARK   12  A    between atoms: C_26  and  O_29
REMARK   13  A    between atoms: C_34  and  C_35
REMARK                            x       y       z     vdW  Elec       q    Type
REMARK                         _______ _______ _______ _____ _____    ______ ____
ROOT
ATOM      1  C   UNL     1      -7.542  -2.655 126.579  0.00  0.00    +0.000 A 
ATOM      2  C   UNL     1      -8.521  -3.253 127.369  0.00  0.00    +0.000 A 
ATOM      3  C   UNL     1      -8.451  -3.158 128.770  0.00  0.00    +0.000 A 
ATOM      4  C   UNL     1      -7.418  -2.442 129.378  0.00  0.00    +0.000 A 
ATOM      5  C   UNL     1      -6.461  -1.929 128.506  0.00  0.00    +0.000 A 
ATOM      6  N   UNL     1      -6.481  -2.054 127.152  0.00  0.00    +0.000 NA
ENDROOT
BRANCH   4   7
ATOM      7  C   UNL     1      -7.349  -2.231 130.859  0.00  0.00    +0.000 A 
ATOM      8  C   UNL     1      -7.038  -3.310 131.629  0.00  0.00    +0.000 A 
ATOM      9  C   UNL     1      -6.864  -3.191 133.082  0.00  0.00    +0.000 A 
ATOM     10  C   UNL     1      -6.886  -2.002 133.662  0.00  0.00    +0.000 A 
ATOM     11  N   UNL     1      -7.020  -0.925 132.870  0.00  0.00    +0.000 N 
ATOM     12  N   UNL     1      -6.556   0.307 133.126  0.00  0.00    +0.000 NA
ATOM     13  C   UNL     1      -7.596   1.022 132.674  0.00  0.00    +0.000 A 
ATOM     14  C   UNL     1      -7.933   0.327 131.438  0.00  0.00    +0.000 A 
ATOM     15  C   UNL     1      -7.481  -0.979 131.579  0.00  0.00    +0.000 A 
BRANCH  14  16
ATOM     16  C   UNL     1      -8.265   0.701 130.123  0.00  0.00    +0.000 C 
ATOM     17  N   UNL     1      -8.240   1.201 129.045  0.00  0.00    +0.000 NA
ENDBRANCH  14  16
BRANCH   9  18
ATOM     18  O   UNL     1      -6.478  -4.198 133.892  0.00  0.00    +0.000 OA
BRANCH  18  19
ATOM     19  C   UNL     1      -5.636  -5.196 133.389  0.00  0.00    +0.000 C 
BRANCH  19  20
ATOM     20  C   UNL     1      -4.475  -5.290 134.375  0.00  0.00    +0.000 C 
ATOM     21  C   UNL     1      -3.287  -4.451 133.889  0.00  0.00    +0.000 C 
ATOM     22  C   UNL     1      -4.916  -4.787 135.753  0.00  0.00    +0.000 C 
BRANCH  20  23
ATOM     23  O   UNL     1      -4.084  -6.656 134.479  0.00  0.00    +0.000 OA
ATOM     24  H   UNL     1      -4.473  -7.131 133.723  0.00  0.00    +0.000 HD
ENDBRANCH  20  23
ENDBRANCH  19  20
ENDBRANCH  18  19
ENDBRANCH   9  18
ENDBRANCH   4   7
BRANCH   1  30
ATOM     25  N   UNL     1      -8.168  -0.076 124.159  0.00  0.00    +0.000 NA
ATOM     26  C   UNL     1      -8.983  -1.251 123.736  0.00  0.00    +0.000 C 
ATOM     27  C   UNL     1      -7.897  -1.430 122.532  0.00  0.00    +0.000 C 
ATOM     28  C   UNL     1      -6.975  -0.826 123.566  0.00  0.00    +0.000 C 
ATOM     29  C   UNL     1      -6.520  -2.053 124.386  0.00  0.00    +0.000 C 
ATOM     30  N   UNL     1      -7.603  -2.593 125.212  0.00  0.00    +0.000 N 
ATOM     31  C   UNL     1      -8.934  -2.492 124.635  0.00  0.00    +0.000 C 
BRANCH  25  32
ATOM     32  C   UNL     1      -8.637   1.169 123.448  0.00  0.00    +0.000 C 
BRANCH  32  36
ATOM     33  C   UNL     1      -5.706   4.089 122.266  0.00  0.00    +0.000 A 
ATOM     34  N   UNL     1      -5.781   3.747 123.580  0.00  0.00    +0.000 NA
ATOM     35  C   UNL     1      -6.730   2.824 123.951  0.00  0.00    +0.000 A 
ATOM     36  C   UNL     1      -7.683   2.324 123.087  0.00  0.00    +0.000 A 
ATOM     37  C   UNL     1      -7.657   2.990 121.862  0.00  0.00    +0.000 A 
ATOM     38  C   UNL     1      -6.555   3.590 121.348  0.00  0.00    +0.000 A 
BRANCH  33  40
ATOM     39  C   UNL     1      -4.891   5.324 120.454  0.00  0.00    +0.000 C 
ATOM     40  O   UNL     1      -4.812   5.057 121.869  0.00  0.00    +0.000 OA
ENDBRANCH  33  40
ENDBRANCH  32  36
ENDBRANCH  25  32
ENDBRANCH   1  30
TORSDOF 10
ENDMDL
MODEL 8
REMARK VINA RESULT:      -7.9      3.745      9.775
REMARK  Name = Selpercatinib
REMARK  13 active torsions:
REMARK  status: ('A' for Active; 'I' for Inactive)
REMARK    1  A    between atoms: C_1  and  O_2
REMARK    2  A    between atoms: O_2  and  C_3
REMARK    3  A    between atoms: C_6  and  C_7
REMARK    4  A    between atoms: C_7  and  N_8
REMARK    5  A    between atoms: N_13  and  C_15
REMARK    6  A    between atoms: C_18  and  C_21
REMARK    7  A    between atoms: C_23  and  O_24
REMARK    8  A    between atoms: O_24  and  C_25
REMARK    9  A    between atoms: C_25  and  C_26
REMARK   10  A    between atoms: C_26  and  C_27
REMARK   11  A    between atoms: C_26  and  C_28
REMARK   12  A    between atoms: C_26  and  O_29
REMARK   13  A    between atoms: C_34  and  C_35
REMARK                            x       y       z     vdW  Elec       q    Type
REMARK                         _______ _______ _______ _____ _____    ______ ____
ROOT
ATOM      1  C   UNL     1      -7.403   1.637 127.697  0.00  0.00    +0.000 A 
ATOM      2  C   UNL     1      -7.087   2.967 127.435  0.00  0.00    +0.000 A 
ATOM      3  C   UNL     1      -7.685   3.994 128.186  0.00  0.00    +0.000 A 
ATOM      4  C   UNL     1      -8.578   3.689 129.215  0.00  0.00    +0.000 A 
ATOM      5  C   UNL     1      -8.870   2.335 129.361  0.00  0.00    +0.000 A 
ATOM      6  N   UNL     1      -8.344   1.329 128.611  0.00  0.00    +0.000 NA
ENDROOT
BRANCH   4   7
ATOM      7  C   UNL     1      -9.170   4.737 130.105  0.00  0.00    +0.000 A 
ATOM      8  C   UNL     1     -10.343   5.303 129.707  0.00  0.00    +0.000 A 
ATOM      9  C   UNL     1     -11.047   6.279 130.547  0.00  0.00    +0.000 A 
ATOM     10  C   UNL     1     -10.617   6.543 131.770  0.00  0.00    +0.000 A 
ATOM     11  N   UNL     1      -9.556   5.850 132.219  0.00  0.00    +0.000 N 
ATOM     12  N   UNL     1      -9.291   5.554 133.500  0.00  0.00    +0.000 NA
ATOM     13  C   UNL     1      -7.964   5.748 133.490  0.00  0.00    +0.000 A 
ATOM     14  C   UNL     1      -7.572   5.131 132.229  0.00  0.00    +0.000 A 
ATOM     15  C   UNL     1      -8.691   5.166 131.404  0.00  0.00    +0.000 A 
BRANCH  14  16
ATOM     16  C   UNL     1      -6.541   4.280 131.794  0.00  0.00    +0.000 C 
ATOM     17  N   UNL     1      -5.946   3.336 131.385  0.00  0.00    +0.000 NA
ENDBRANCH  14  16
BRANCH   9  18
ATOM     18  O   UNL     1     -12.250   6.816 130.254  0.00  0.00    +0.000 OA
BRANCH  18  19
ATOM     19  C   UNL     1     -12.367   8.206 130.135  0.00  0.00    +0.000 C 
BRANCH  19  20
ATOM     20  C   UNL     1     -12.642   8.471 128.657  0.00  0.00    +0.000 C 
ATOM     21  C   UNL     1     -11.336   8.447 127.854  0.00  0.00    +0.000 C 
ATOM     22  C   UNL     1     -13.593   7.405 128.102  0.00  0.00    +0.000 C 
BRANCH  20  23
ATOM     23  O   UNL     1     -13.253   9.752 128.536  0.00  0.00    +0.000 OA
ATOM     24  H   UNL     1     -13.049  10.090 127.646  0.00  0.00    +0.000 HD
ENDBRANCH  20  23
ENDBRANCH  19  20
ENDBRANCH  18  19
ENDBRANCH   9  18
ENDBRANCH   4   7
BRANCH   1  30
ATOM     25  N   UNL     1      -7.284  -1.909 128.253  0.00  0.00    +0.000 NA
ATOM     26  C   UNL     1      -5.875  -1.475 128.034  0.00  0.00    +0.000 C 
ATOM     27  C   UNL     1      -5.993  -2.206 126.581  0.00  0.00    +0.000 C 
ATOM     28  C   UNL     1      -7.441  -1.802 126.736  0.00  0.00    +0.000 C 
ATOM     29  C   UNL     1      -7.457  -0.355 126.197  0.00  0.00    +0.000 C 
ATOM     30  N   UNL     1      -6.775   0.575 127.101  0.00  0.00    +0.000 N 
ATOM     31  C   UNL     1      -5.635   0.024 127.815  0.00  0.00    +0.000 C 
BRANCH  25  32
ATOM     32  C   UNL     1      -7.317  -3.288 128.865  0.00  0.00    +0.000 C 
BRANCH  32  36
ATOM     33  C   UNL     1      -5.762  -4.515 132.686  0.00  0.00    +0.000 A 
ATOM     34  N   UNL     1      -6.566  -3.420 132.639  0.00  0.00    +0.000 NA
ATOM     35  C   UNL     1      -7.047  -3.026 131.412  0.00  0.00    +0.000 A 
ATOM     36  C   UNL     1      -6.658  -3.607 130.222  0.00  0.00    +0.000 A 
ATOM     37  C   UNL     1      -5.615  -4.511 130.415  0.00  0.00    +0.000 A 
ATOM     38  C   UNL     1      -5.395  -5.180 131.574  0.00  0.00    +0.000 A 
BRANCH  33  40
ATOM     39  C   UNL     1      -3.784  -5.096 133.793  0.00  0.00    +0.000 C 
ATOM     40  O   UNL     1      -5.211  -4.899 133.886  0.00  0.00    +0.000 OA
ENDBRANCH  33  40
ENDBRANCH  32  36
ENDBRANCH  25  32
ENDBRANCH   1  30
TORSDOF 10
ENDMDL
MODEL 9
REMARK VINA RESULT:      -7.7      1.584      2.116
REMARK  Name = Selpercatinib
REMARK  13 active torsions:
REMARK  status: ('A' for Active; 'I' for Inactive)
REMARK    1  A    between atoms: C_1  and  O_2
REMARK    2  A    between atoms: O_2  and  C_3
REMARK    3  A    between atoms: C_6  and  C_7
REMARK    4  A    between atoms: C_7  and  N_8
REMARK    5  A    between atoms: N_13  and  C_15
REMARK    6  A    between atoms: C_18  and  C_21
REMARK    7  A    between atoms: C_23  and  O_24
REMARK    8  A    between atoms: O_24  and  C_25
REMARK    9  A    between atoms: C_25  and  C_26
REMARK   10  A    between atoms: C_26  and  C_27
REMARK   11  A    between atoms: C_26  and  C_28
REMARK   12  A    between atoms: C_26  and  O_29
REMARK   13  A    between atoms: C_34  and  C_35
REMARK                            x       y       z     vdW  Elec       q    Type
REMARK                         _______ _______ _______ _____ _____    ______ ____
ROOT
ATOM      1  C   UNL     1      -7.301   1.782 130.242  0.00  0.00    +0.000 A 
ATOM      2  C   UNL     1      -6.162   1.371 129.555  0.00  0.00    +0.000 A 
ATOM      3  C   UNL     1      -6.255   0.982 128.207  0.00  0.00    +0.000 A 
ATOM      4  C   UNL     1      -7.481   1.030 127.540  0.00  0.00    +0.000 A 
ATOM      5  C   UNL     1      -8.568   1.401 128.329  0.00  0.00    +0.000 A 
ATOM      6  N   UNL     1      -8.509   1.731 129.647  0.00  0.00    +0.000 NA
ENDROOT
BRANCH   4   7
ATOM      7  C   UNL     1      -7.618   0.716 126.083  0.00  0.00    +0.000 A 
ATOM      8  C   UNL     1      -7.478  -0.586 125.709  0.00  0.00    +0.000 A 
ATOM      9  C   UNL     1      -7.675  -1.009 124.317  0.00  0.00    +0.000 A 
ATOM     10  C   UNL     1      -8.114  -0.149 123.413  0.00  0.00    +0.000 A 
ATOM     11  N   UNL     1      -8.415   1.092 123.829  0.00  0.00    +0.000 N 
ATOM     12  N   UNL     1      -9.321   1.913 123.277  0.00  0.00    +0.000 NA
ATOM     13  C   UNL     1      -8.645   3.067 123.371  0.00  0.00    +0.000 A 
ATOM     14  C   UNL     1      -8.072   2.980 124.708  0.00  0.00    +0.000 A 
ATOM     15  C   UNL     1      -7.979   1.627 125.014  0.00  0.00    +0.000 A 
BRANCH  14  16
ATOM     16  C   UNL     1      -7.920   3.848 125.804  0.00  0.00    +0.000 C 
ATOM     17  N   UNL     1      -8.065   4.748 126.567  0.00  0.00    +0.000 NA
ENDBRANCH  14  16
BRANCH   9  18
ATOM     18  O   UNL     1      -7.633  -2.289 123.893  0.00  0.00    +0.000 OA
BRANCH  18  19
ATOM     19  C   UNL     1      -6.771  -3.191 124.527  0.00  0.00    +0.000 C 
BRANCH  19  20
ATOM     20  C   UNL     1      -5.438  -3.071 123.793  0.00  0.00    +0.000 C 
ATOM     21  C   UNL     1      -4.720  -4.425 123.757  0.00  0.00    +0.000 C 
ATOM     22  C   UNL     1      -5.672  -2.587 122.358  0.00  0.00    +0.000 C 
BRANCH  20  23
ATOM     23  O   UNL     1      -4.630  -2.120 124.480  0.00  0.00    +0.000 OA
ATOM     24  H   UNL     1      -4.402  -2.501 125.347  0.00  0.00    +0.000 HD
ENDBRANCH  20  23
ENDBRANCH  19  20
ENDBRANCH  18  19
ENDBRANCH   9  18
ENDBRANCH   4   7
BRANCH   1  30
ATOM     25  N   UNL     1      -9.211   4.227 132.051  0.00  0.00    +0.000 NA
ATOM     26  C   UNL     1      -7.779   4.517 132.345  0.00  0.00    +0.000 C 
ATOM     27  C   UNL     1      -8.076   3.911 133.830  0.00  0.00    +0.000 C 
ATOM     28  C   UNL     1      -9.075   3.083 133.055  0.00  0.00    +0.000 C 
ATOM     29  C   UNL     1      -8.226   1.893 132.555  0.00  0.00    +0.000 C 
ATOM     30  N   UNL     1      -7.278   2.295 131.512  0.00  0.00    +0.000 N 
ATOM     31  C   UNL     1      -6.734   3.636 131.651  0.00  0.00    +0.000 C 
BRANCH  25  32
ATOM     32  C   UNL     1     -10.073   5.402 132.441  0.00  0.00    +0.000 C 
BRANCH  32  36
ATOM     33  C   UNL     1     -12.715   7.373 129.674  0.00  0.00    +0.000 A 
ATOM     34  N   UNL     1     -12.877   7.615 131.003  0.00  0.00    +0.000 NA
ATOM     35  C   UNL     1     -12.037   6.970 131.880  0.00  0.00    +0.000 A 
ATOM     36  C   UNL     1     -11.130   6.004 131.494  0.00  0.00    +0.000 A 
ATOM     37  C   UNL     1     -11.293   5.662 130.152  0.00  0.00    +0.000 A 
ATOM     38  C   UNL     1     -11.802   6.497 129.213  0.00  0.00    +0.000 A 
BRANCH  33  40
ATOM     39  C   UNL     1     -13.374   7.459 127.431  0.00  0.00    +0.000 C 
ATOM     40  O   UNL     1     -13.578   7.950 128.772  0.00  0.00    +0.000 OA
ENDBRANCH  33  40
ENDBRANCH  32  36
ENDBRANCH  25  32
ENDBRANCH   1  30
TORSDOF 10
ENDMDL
