MODEL 1
REMARK VINA RESULT:      -8.8      0.000      0.000
REMARK  Name = Selumetinib
REMARK  8 active torsions:
REMARK  status: ('A' for Active; 'I' for Inactive)
REMARK    1  A    between atoms: C_1  and  N_2
REMARK    2  A    between atoms: C_8  and  N_9
REMARK    3  A    between atoms: N_9  and  C_10
REMARK    4  A    between atoms: C_18  and  C_21
REMARK    5  A    between atoms: N_23  and  O_24
REMARK    6  A    between atoms: O_24  and  C_25
REMARK    7  A    between atoms: C_25  and  C_26
REMARK    8  A    between atoms: C_26  and  O_27
REMARK                            x       y       z     vdW  Elec       q    Type
REMARK                         _______ _______ _______ _____ _____    ______ ____
ROOT
ATOM      1  C   UNL     1     -11.685   6.115 131.560  0.00  0.00    +0.000 C 
ATOM      2  N   UNL     1     -10.409   6.583 131.072  0.00  0.00    +0.000 N 
ATOM      3  C   UNL     1     -10.157   7.334 129.966  0.00  0.00    +0.000 A 
ATOM      4  N   UNL     1      -8.869   7.590 129.836  0.00  0.00    +0.000 NA
ATOM      5  C   UNL     1      -8.245   6.952 130.894  0.00  0.00    +0.000 A 
ATOM      6  C   UNL     1      -6.878   6.847 131.276  0.00  0.00    +0.000 A 
ATOM      7  F   UNL     1      -5.928   7.478 130.563  0.00  0.00    +0.000 F 
ATOM      8  C   UNL     1      -6.502   6.101 132.427  0.00  0.00    +0.000 A 
ATOM      9  C   UNL     1      -7.583   5.498 133.167  0.00  0.00    +0.000 A 
ATOM     10  C   UNL     1      -8.927   5.592 132.804  0.00  0.00    +0.000 A 
ATOM     11  C   UNL     1      -9.209   6.318 131.669  0.00  0.00    +0.000 A 
ENDROOT
BRANCH   9  12
ATOM     12  C   UNL     1      -7.437   4.919 134.517  0.00  0.00    +0.000 C 
ATOM     13  O   UNL     1      -6.549   4.094 134.822  0.00  0.00    +0.000 OA
ATOM     14  N   UNL     1      -8.473   5.296 135.298  0.00  0.00    +0.000 N 
ATOM     15  H   UNL     1      -9.054   5.874 134.702  0.00  0.00    +0.000 HD
BRANCH  14  16
ATOM     16  O   UNL     1      -7.947   6.134 136.417  0.00  0.00    +0.000 OA
BRANCH  16  17
ATOM     17  C   UNL     1      -8.454   7.379 137.860  0.00  0.00    +0.000 C 
BRANCH  17  18
ATOM     18  C   UNL     1      -9.658   8.479 137.687  0.00  0.00    +0.000 C 
BRANCH  18  19
ATOM     19  O   UNL     1     -10.112   8.633 136.362  0.00  0.00    +0.000 OA
ATOM     20  H   UNL     1     -10.135   9.591 136.230  0.00  0.00    +0.000 HD
ENDBRANCH  18  19
ENDBRANCH  17  18
ENDBRANCH  16  17
ENDBRANCH  14  16
ENDBRANCH   9  12
BRANCH   8  21
ATOM     21  N   UNL     1      -5.070   5.955 132.744  0.00  0.00    +0.000 N 
ATOM     22  H   UNL     1      -4.869   6.129 133.732  0.00  0.00    +0.000 HD
BRANCH  21  23
ATOM     23  C   UNL     1      -3.958   5.160 132.037  0.00  0.00    +0.000 A 
ATOM     24  C   UNL     1      -2.881   6.192 131.008  0.00  0.00    +0.000 A 
ATOM     25 CL   UNL     1      -2.998   7.919 131.240  0.00  0.00    +0.000 Cl
ATOM     26  C   UNL     1      -2.370   5.655 129.359  0.00  0.00    +0.000 A 
ATOM     27  C   UNL     1      -3.070   4.139 128.625  0.00  0.00    +0.000 A 
ATOM     28 BR   UNL     1      -2.240   3.525 126.964  0.00  0.00    +0.000 Br
ATOM     29  C   UNL     1      -4.122   3.046 129.677  0.00  0.00    +0.000 A 
ATOM     30  C   UNL     1      -4.535   3.537 131.406  0.00  0.00    +0.000 A 
ENDBRANCH  21  23
ENDBRANCH   8  21
TORSDOF 7
ENDMDL
MODEL 2
REMARK VINA RESULT:      -8.2      7.713     10.272
REMARK  Name = Selumetinib
REMARK  8 active torsions:
REMARK  status: ('A' for Active; 'I' for Inactive)
REMARK    1  A    between atoms: C_1  and  N_2
REMARK    2  A    between atoms: C_8  and  N_9
REMARK    3  A    between atoms: N_9  and  C_10
REMARK    4  A    between atoms: C_18  and  C_21
REMARK    5  A    between atoms: N_23  and  O_24
REMARK    6  A    between atoms: O_24  and  C_25
REMARK    7  A    between atoms: C_25  and  C_26
REMARK    8  A    between atoms: C_26  and  O_27
REMARK                            x       y       z     vdW  Elec       q    Type
REMARK                         _______ _______ _______ _____ _____    ______ ____
ROOT
ATOM      1  C   UNL     1      -9.467  -2.640 123.209  0.00  0.00    +0.000 C 
ATOM      2  N   UNL     1      -8.233  -2.314 123.884  0.00  0.00    +0.000 N 
ATOM      3  C   UNL     1      -7.268  -3.164 124.327  0.00  0.00    +0.000 A 
ATOM      4  N   UNL     1      -6.266  -2.513 124.885  0.00  0.00    +0.000 NA
ATOM      5  C   UNL     1      -6.604  -1.172 124.829  0.00  0.00    +0.000 A 
ATOM      6  C   UNL     1      -5.941   0.002 125.284  0.00  0.00    +0.000 A 
ATOM      7  F   UNL     1      -4.730  -0.089 125.863  0.00  0.00    +0.000 F 
ATOM      8  C   UNL     1      -6.532   1.283 125.108  0.00  0.00    +0.000 A 
ATOM      9  C   UNL     1      -7.805   1.301 124.433  0.00  0.00    +0.000 A 
ATOM     10  C   UNL     1      -8.467   0.159 123.983  0.00  0.00    +0.000 A 
ATOM     11  C   UNL     1      -7.839  -1.045 124.204  0.00  0.00    +0.000 A 
ENDROOT
BRANCH   9  12
ATOM     12  C   UNL     1      -8.451   2.526 123.919  0.00  0.00    +0.000 C 
ATOM     13  O   UNL     1      -8.602   3.564 124.600  0.00  0.00    +0.000 OA
ATOM     14  N   UNL     1      -8.966   2.298 122.691  0.00  0.00    +0.000 N 
ATOM     15  H   UNL     1      -8.751   1.329 122.492  0.00  0.00    +0.000 HD
BRANCH  14  16
ATOM     16  O   UNL     1      -8.249   3.162 121.705  0.00  0.00    +0.000 OA
BRANCH  16  17
ATOM     17  C   UNL     1      -6.478   3.828 121.151  0.00  0.00    +0.000 C 
BRANCH  17  18
ATOM     18  C   UNL     1      -5.357   4.343 122.231  0.00  0.00    +0.000 C 
BRANCH  18  19
ATOM     19  O   UNL     1      -5.887   4.698 123.487  0.00  0.00    +0.000 OA
ATOM     20  H   UNL     1      -6.839   4.764 123.332  0.00  0.00    +0.000 HD
ENDBRANCH  18  19
ENDBRANCH  17  18
ENDBRANCH  16  17
ENDBRANCH  14  16
ENDBRANCH   9  12
BRANCH   8  21
ATOM     21  N   UNL     1      -5.846   2.466 125.661  0.00  0.00    +0.000 N 
ATOM     22  H   UNL     1      -6.219   3.343 125.289  0.00  0.00    +0.000 HD
BRANCH  21  23
ATOM     23  C   UNL     1      -5.066   2.655 126.974  0.00  0.00    +0.000 A 
ATOM     24  C   UNL     1      -5.922   3.710 128.172  0.00  0.00    +0.000 A 
ATOM     25 CL   UNL     1      -7.606   4.049 127.854  0.00  0.00    +0.000 Cl
ATOM     26  C   UNL     1      -5.031   4.975 129.108  0.00  0.00    +0.000 A 
ATOM     27  C   UNL     1      -3.282   5.334 128.737  0.00  0.00    +0.000 A 
ATOM     28 BR   UNL     1      -2.363   6.522 129.990  0.00  0.00    +0.000 Br
ATOM     29  C   UNL     1      -2.378   4.233 127.563  0.00  0.00    +0.000 A 
ATOM     30  C   UNL     1      -3.262   2.860 126.708  0.00  0.00    +0.000 A 
ENDBRANCH  21  23
ENDBRANCH   8  21
TORSDOF 7
ENDMDL
MODEL 3
REMARK VINA RESULT:      -7.8      6.672      9.535
REMARK  Name = Selumetinib
REMARK  8 active torsions:
REMARK  status: ('A' for Active; 'I' for Inactive)
REMARK    1  A    between atoms: C_1  and  N_2
REMARK    2  A    between atoms: C_8  and  N_9
REMARK    3  A    between atoms: N_9  and  C_10
REMARK    4  A    between atoms: C_18  and  C_21
REMARK    5  A    between atoms: N_23  and  O_24
REMARK    6  A    between atoms: O_24  and  C_25
REMARK    7  A    between atoms: C_25  and  C_26
REMARK    8  A    between atoms: C_26  and  O_27
REMARK                            x       y       z     vdW  Elec       q    Type
REMARK                         _______ _______ _______ _____ _____    ______ ____
ROOT
ATOM      1  C   UNL     1      -7.246  -0.498 123.458  0.00  0.00    +0.000 C 
ATOM      2  N   UNL     1      -6.577  -0.487 124.737  0.00  0.00    +0.000 N 
ATOM      3  C   UNL     1      -6.174  -1.551 125.483  0.00  0.00    +0.000 A 
ATOM      4  N   UNL     1      -5.578  -1.166 126.596  0.00  0.00    +0.000 NA
ATOM      5  C   UNL     1      -5.619   0.218 126.591  0.00  0.00    +0.000 A 
ATOM      6  C   UNL     1      -5.162   1.192 127.522  0.00  0.00    +0.000 A 
ATOM      7  F   UNL     1      -4.521   0.808 128.640  0.00  0.00    +0.000 F 
ATOM      8  C   UNL     1      -5.348   2.579 127.271  0.00  0.00    +0.000 A 
ATOM      9  C   UNL     1      -5.997   2.912 126.027  0.00  0.00    +0.000 A 
ATOM     10  C   UNL     1      -6.452   1.968 125.106  0.00  0.00    +0.000 A 
ATOM     11  C   UNL     1      -6.248   0.645 125.427  0.00  0.00    +0.000 A 
ENDROOT
BRANCH   9  12
ATOM     12  C   UNL     1      -6.046   4.274 125.459  0.00  0.00    +0.000 C 
ATOM     13  O   UNL     1      -5.661   5.292 126.074  0.00  0.00    +0.000 OA
ATOM     14  N   UNL     1      -6.688   4.258 124.271  0.00  0.00    +0.000 N 
ATOM     15  H   UNL     1      -6.954   3.291 124.129  0.00  0.00    +0.000 HD
BRANCH  14  16
ATOM     16  O   UNL     1      -5.725   4.655 123.201  0.00  0.00    +0.000 OA
BRANCH  16  17
ATOM     17  C   UNL     1      -5.021   4.176 121.422  0.00  0.00    +0.000 C 
BRANCH  17  18
ATOM     18  C   UNL     1      -5.446   4.989 120.063  0.00  0.00    +0.000 C 
BRANCH  18  19
ATOM     19  O   UNL     1      -4.910   6.288 119.977  0.00  0.00    +0.000 OA
ATOM     20  H   UNL     1      -5.569   6.846 120.412  0.00  0.00    +0.000 HD
ENDBRANCH  18  19
ENDBRANCH  17  18
ENDBRANCH  16  17
ENDBRANCH  14  16
ENDBRANCH   9  12
BRANCH   8  21
ATOM     21  N   UNL     1      -4.927   3.552 128.296  0.00  0.00    +0.000 N 
ATOM     22  H   UNL     1      -5.707   3.864 128.881  0.00  0.00    +0.000 HD
BRANCH  21  23
ATOM     23  C   UNL     1      -3.553   3.801 128.944  0.00  0.00    +0.000 A 
ATOM     24  C   UNL     1      -3.541   3.512 130.733  0.00  0.00    +0.000 A 
ATOM     25 CL   UNL     1      -4.914   2.664 131.399  0.00  0.00    +0.000 Cl
ATOM     26  C   UNL     1      -2.704   4.655 131.857  0.00  0.00    +0.000 A 
ATOM     27  C   UNL     1      -2.003   6.217 131.229  0.00  0.00    +0.000 A 
ATOM     28 BR   UNL     1      -0.895   7.228 132.485  0.00  0.00    +0.000 Br
ATOM     29  C   UNL     1      -1.955   6.501 129.406  0.00  0.00    +0.000 A 
ATOM     30  C   UNL     1      -2.696   5.268 128.254  0.00  0.00    +0.000 A 
ENDBRANCH  21  23
ENDBRANCH   8  21
TORSDOF 7
ENDMDL
MODEL 4
REMARK VINA RESULT:      -7.7      8.768     11.270
REMARK  Name = Selumetinib
REMARK  8 active torsions:
REMARK  status: ('A' for Active; 'I' for Inactive)
REMARK    1  A    between atoms: C_1  and  N_2
REMARK    2  A    between atoms: C_8  and  N_9
REMARK    3  A    between atoms: N_9  and  C_10
REMARK    4  A    between atoms: C_18  and  C_21
REMARK    5  A    between atoms: N_23  and  O_24
REMARK    6  A    between atoms: O_24  and  C_25
REMARK    7  A    between atoms: C_25  and  C_26
REMARK    8  A    between atoms: C_26  and  O_27
REMARK                            x       y       z     vdW  Elec       q    Type
REMARK                         _______ _______ _______ _____ _____    ______ ____
ROOT
ATOM      1  C   UNL     1      -6.015  -3.766 129.724  0.00  0.00    +0.000 C 
ATOM      2  N   UNL     1      -6.375  -2.368 129.670  0.00  0.00    +0.000 N 
ATOM      3  C   UNL     1      -6.134  -1.402 130.597  0.00  0.00    +0.000 A 
ATOM      4  N   UNL     1      -6.593  -0.229 130.207  0.00  0.00    +0.000 NA
ATOM      5  C   UNL     1      -7.188  -0.443 128.975  0.00  0.00    +0.000 A 
ATOM      6  C   UNL     1      -7.868   0.427 128.077  0.00  0.00    +0.000 A 
ATOM      7  F   UNL     1      -7.983   1.736 128.362  0.00  0.00    +0.000 F 
ATOM      8  C   UNL     1      -8.407  -0.068 126.857  0.00  0.00    +0.000 A 
ATOM      9  C   UNL     1      -8.198  -1.471 126.600  0.00  0.00    +0.000 A 
ATOM     10  C   UNL     1      -7.535  -2.335 127.472  0.00  0.00    +0.000 A 
ATOM     11  C   UNL     1      -7.055  -1.785 128.639  0.00  0.00    +0.000 A 
ENDROOT
BRANCH   9  12
ATOM     12  C   UNL     1      -8.437  -2.116 125.293  0.00  0.00    +0.000 C 
ATOM     13  O   UNL     1      -9.271  -1.699 124.461  0.00  0.00    +0.000 OA
ATOM     14  N   UNL     1      -7.743  -3.271 125.213  0.00  0.00    +0.000 N 
ATOM     15  H   UNL     1      -7.259  -3.350 126.099  0.00  0.00    +0.000 HD
BRANCH  14  16
ATOM     16  O   UNL     1      -6.730  -3.145 124.122  0.00  0.00    +0.000 OA
BRANCH  16  17
ATOM     17  C   UNL     1      -4.806  -3.255 123.704  0.00  0.00    +0.000 C 
BRANCH  17  18
ATOM     18  C   UNL     1      -3.959  -4.653 123.829  0.00  0.00    +0.000 C 
BRANCH  18  19
ATOM     19  O   UNL     1      -4.273  -5.607 122.841  0.00  0.00    +0.000 OA
ATOM     20  H   UNL     1      -5.011  -5.213 122.357  0.00  0.00    +0.000 HD
ENDBRANCH  18  19
ENDBRANCH  17  18
ENDBRANCH  16  17
ENDBRANCH  14  16
ENDBRANCH   9  12
BRANCH   8  21
ATOM     21  N   UNL     1      -9.170   0.851 125.992  0.00  0.00    +0.000 N 
ATOM     22  H   UNL     1     -10.178   0.796 126.157  0.00  0.00    +0.000 HD
BRANCH  21  23
ATOM     23  C   UNL     1      -8.747   2.149 125.282  0.00  0.00    +0.000 A 
ATOM     24  C   UNL     1      -9.318   2.247 123.565  0.00  0.00    +0.000 A 
ATOM     25 CL   UNL     1     -10.534   1.093 123.077  0.00  0.00    +0.000 Cl
ATOM     26  C   UNL     1      -8.226   2.839 122.251  0.00  0.00    +0.000 A 
ATOM     27  C   UNL     1      -6.469   3.185 122.598  0.00  0.00    +0.000 A 
ATOM     28 BR   UNL     1      -5.469   4.070 121.169  0.00  0.00    +0.000 Br
ATOM     29  C   UNL     1      -5.885   3.147 124.348  0.00  0.00    +0.000 A 
ATOM     30  C   UNL     1      -7.039   2.667 125.704  0.00  0.00    +0.000 A 
ENDBRANCH  21  23
ENDBRANCH   8  21
TORSDOF 7
ENDMDL
MODEL 5
REMARK VINA RESULT:      -7.6      3.855      5.902
REMARK  Name = Selumetinib
REMARK  8 active torsions:
REMARK  status: ('A' for Active; 'I' for Inactive)
REMARK    1  A    between atoms: C_1  and  N_2
REMARK    2  A    between atoms: C_8  and  N_9
REMARK    3  A    between atoms: N_9  and  C_10
REMARK    4  A    between atoms: C_18  and  C_21
REMARK    5  A    between atoms: N_23  and  O_24
REMARK    6  A    between atoms: O_24  and  C_25
REMARK    7  A    between atoms: C_25  and  C_26
REMARK    8  A    between atoms: C_26  and  O_27
REMARK                            x       y       z     vdW  Elec       q    Type
REMARK                         _______ _______ _______ _____ _____    ______ ____
ROOT
ATOM      1  C   UNL     1     -10.970   7.977 126.981  0.00  0.00    +0.000 C 
ATOM      2  N   UNL     1     -11.582   7.606 128.235  0.00  0.00    +0.000 N 
ATOM      3  C   UNL     1     -12.900   7.647 128.571  0.00  0.00    +0.000 A 
ATOM      4  N   UNL     1     -13.101   7.217 129.802  0.00  0.00    +0.000 NA
ATOM      5  C   UNL     1     -11.850   6.907 130.306  0.00  0.00    +0.000 A 
ATOM      6  C   UNL     1     -11.423   6.421 131.574  0.00  0.00    +0.000 A 
ATOM      7  F   UNL     1     -12.328   6.144 132.530  0.00  0.00    +0.000 F 
ATOM      8  C   UNL     1     -10.044   6.197 131.837  0.00  0.00    +0.000 A 
ATOM      9  C   UNL     1      -9.142   6.469 130.746  0.00  0.00    +0.000 A 
ATOM     10  C   UNL     1      -9.547   6.946 129.499  0.00  0.00    +0.000 A 
ATOM     11  C   UNL     1     -10.896   7.153 129.326  0.00  0.00    +0.000 A 
ENDROOT
BRANCH   9  12
ATOM     12  C   UNL     1      -7.725   6.054 130.722  0.00  0.00    +0.000 C 
ATOM     13  O   UNL     1      -7.339   4.943 130.299  0.00  0.00    +0.000 OA
ATOM     14  N   UNL     1      -6.962   6.976 131.348  0.00  0.00    +0.000 N 
ATOM     15  H   UNL     1      -7.611   7.689 131.657  0.00  0.00    +0.000 HD
BRANCH  14  16
ATOM     16  O   UNL     1      -6.026   7.577 130.351  0.00  0.00    +0.000 OA
BRANCH  16  17
ATOM     17  C   UNL     1      -4.125   7.828 129.888  0.00  0.00    +0.000 C 
BRANCH  17  18
ATOM     18  C   UNL     1      -3.363   6.895 128.776  0.00  0.00    +0.000 C 
BRANCH  18  19
ATOM     19  O   UNL     1      -4.107   6.676 127.600  0.00  0.00    +0.000 OA
ATOM     20  H   UNL     1      -3.441   6.454 126.935  0.00  0.00    +0.000 HD
ENDBRANCH  18  19
ENDBRANCH  17  18
ENDBRANCH  16  17
ENDBRANCH  14  16
ENDBRANCH   9  12
BRANCH   8  21
ATOM     21  N   UNL     1      -9.638   5.766 133.188  0.00  0.00    +0.000 N 
ATOM     22  H   UNL     1      -9.977   6.398 133.918  0.00  0.00    +0.000 HD
BRANCH  21  23
ATOM     23  C   UNL     1      -9.251   4.378 133.729  0.00  0.00    +0.000 A 
ATOM     24  C   UNL     1      -7.764   4.399 134.764  0.00  0.00    +0.000 A 
ATOM     25 CL   UNL     1      -7.209   5.965 135.303  0.00  0.00    +0.000 Cl
ATOM     26  C   UNL     1      -6.488   3.130 134.593  0.00  0.00    +0.000 A 
ATOM     27  C   UNL     1      -6.587   1.899 133.251  0.00  0.00    +0.000 A 
ATOM     28 BR   UNL     1      -5.301   0.428 133.337  0.00  0.00    +0.000 Br
ATOM     29  C   UNL     1      -8.119   1.825 132.224  0.00  0.00    +0.000 A 
ATOM     30  C   UNL     1      -9.477   3.043 132.491  0.00  0.00    +0.000 A 
ENDBRANCH  21  23
ENDBRANCH   8  21
TORSDOF 7
ENDMDL
MODEL 6
REMARK VINA RESULT:      -7.4      3.955      4.564
REMARK  Name = Selumetinib
REMARK  8 active torsions:
REMARK  status: ('A' for Active; 'I' for Inactive)
REMARK    1  A    between atoms: C_1  and  N_2
REMARK    2  A    between atoms: C_8  and  N_9
REMARK    3  A    between atoms: N_9  and  C_10
REMARK    4  A    between atoms: C_18  and  C_21
REMARK    5  A    between atoms: N_23  and  O_24
REMARK    6  A    between atoms: O_24  and  C_25
REMARK    7  A    between atoms: C_25  and  C_26
REMARK    8  A    between atoms: C_26  and  O_27
REMARK                            x       y       z     vdW  Elec       q    Type
REMARK                         _______ _______ _______ _____ _____    ______ ____
ROOT
ATOM      1  C   UNL     1     -11.640   7.069 131.130  0.00  0.00    +0.000 C 
ATOM      2  N   UNL     1     -10.674   6.409 130.283  0.00  0.00    +0.000 N 
ATOM      3  C   UNL     1     -10.441   6.612 128.958  0.00  0.00    +0.000 A 
ATOM      4  N   UNL     1      -9.469   5.840 128.512  0.00  0.00    +0.000 NA
ATOM      5  C   UNL     1      -9.063   5.075 129.592  0.00  0.00    +0.000 A 
ATOM      6  C   UNL     1      -8.077   4.058 129.727  0.00  0.00    +0.000 A 
ATOM      7  F   UNL     1      -7.308   3.720 128.677  0.00  0.00    +0.000 F 
ATOM      8  C   UNL     1      -7.871   3.410 130.976  0.00  0.00    +0.000 A 
ATOM      9  C   UNL     1      -8.698   3.865 132.066  0.00  0.00    +0.000 A 
ATOM     10  C   UNL     1      -9.669   4.859 131.946  0.00  0.00    +0.000 A 
ATOM     11  C   UNL     1      -9.820   5.429 130.703  0.00  0.00    +0.000 A 
ENDROOT
BRANCH   9  12
ATOM     12  C   UNL     1      -8.463   3.518 133.482  0.00  0.00    +0.000 C 
ATOM     13  O   UNL     1      -7.899   2.465 133.850  0.00  0.00    +0.000 OA
ATOM     14  N   UNL     1      -9.069   4.419 134.285  0.00  0.00    +0.000 N 
ATOM     15  H   UNL     1      -9.518   5.073 133.656  0.00  0.00    +0.000 HD
BRANCH  14  16
ATOM     16  O   UNL     1      -8.022   5.143 135.067  0.00  0.00    +0.000 OA
BRANCH  16  17
ATOM     17  C   UNL     1      -7.636   6.037 136.781  0.00  0.00    +0.000 C 
BRANCH  17  18
ATOM     18  C   UNL     1      -8.364   7.439 137.223  0.00  0.00    +0.000 C 
BRANCH  18  19
ATOM     19  O   UNL     1      -9.349   7.885 136.320  0.00  0.00    +0.000 OA
ATOM     20  H   UNL     1      -9.777   8.621 136.781  0.00  0.00    +0.000 HD
ENDBRANCH  18  19
ENDBRANCH  17  18
ENDBRANCH  16  17
ENDBRANCH  14  16
ENDBRANCH   9  12
BRANCH   8  21
ATOM     21  N   UNL     1      -6.892   2.310 131.054  0.00  0.00    +0.000 N 
ATOM     22  H   UNL     1      -6.443   2.252 131.972  0.00  0.00    +0.000 HD
BRANCH  21  23
ATOM     23  C   UNL     1      -6.775   1.006 130.245  0.00  0.00    +0.000 A 
ATOM     24  C   UNL     1      -7.987  -0.250 130.730  0.00  0.00    +0.000 A 
ATOM     25 CL   UNL     1      -9.311   0.286 131.736  0.00  0.00    +0.000 Cl
ATOM     26  C   UNL     1      -7.510  -1.984 130.920  0.00  0.00    +0.000 A 
ATOM     27  C   UNL     1      -5.759  -2.477 130.797  0.00  0.00    +0.000 A 
ATOM     28 BR   UNL     1      -5.407  -4.400 130.751  0.00  0.00    +0.000 Br
ATOM     29  C   UNL     1      -4.519  -1.224 130.247  0.00  0.00    +0.000 A 
ATOM     30  C   UNL     1      -5.036   0.517 129.929  0.00  0.00    +0.000 A 
ENDBRANCH  21  23
ENDBRANCH   8  21
TORSDOF 7
ENDMDL
MODEL 7
REMARK VINA RESULT:      -7.3      4.953      6.606
REMARK  Name = Selumetinib
REMARK  8 active torsions:
REMARK  status: ('A' for Active; 'I' for Inactive)
REMARK    1  A    between atoms: C_1  and  N_2
REMARK    2  A    between atoms: C_8  and  N_9
REMARK    3  A    between atoms: N_9  and  C_10
REMARK    4  A    between atoms: C_18  and  C_21
REMARK    5  A    between atoms: N_23  and  O_24
REMARK    6  A    between atoms: O_24  and  C_25
REMARK    7  A    between atoms: C_25  and  C_26
REMARK    8  A    between atoms: C_26  and  O_27
REMARK                            x       y       z     vdW  Elec       q    Type
REMARK                         _______ _______ _______ _____ _____    ______ ____
ROOT
ATOM      1  C   UNL     1     -11.900   7.576 127.220  0.00  0.00    +0.000 C 
ATOM      2  N   UNL     1     -11.852   7.426 128.655  0.00  0.00    +0.000 N 
ATOM      3  C   UNL     1     -12.646   8.017 129.588  0.00  0.00    +0.000 A 
ATOM      4  N   UNL     1     -12.327   7.635 130.810  0.00  0.00    +0.000 NA
ATOM      5  C   UNL     1     -11.252   6.774 130.671  0.00  0.00    +0.000 A 
ATOM      6  C   UNL     1     -10.465   6.064 131.622  0.00  0.00    +0.000 A 
ATOM      7  F   UNL     1     -10.755   6.146 132.932  0.00  0.00    +0.000 F 
ATOM      8  C   UNL     1      -9.386   5.240 131.199  0.00  0.00    +0.000 A 
ATOM      9  C   UNL     1      -9.172   5.164 129.775  0.00  0.00    +0.000 A 
ATOM     10  C   UNL     1      -9.934   5.855 128.833  0.00  0.00    +0.000 A 
ATOM     11  C   UNL     1     -10.951   6.644 129.320  0.00  0.00    +0.000 A 
ENDROOT
BRANCH   9  12
ATOM     12  C   UNL     1      -8.292   4.173 129.124  0.00  0.00    +0.000 C 
ATOM     13  O   UNL     1      -8.712   3.124 128.589  0.00  0.00    +0.000 OA
ATOM     14  N   UNL     1      -6.998   4.500 129.326  0.00  0.00    +0.000 N 
ATOM     15  H   UNL     1      -7.023   5.346 129.883  0.00  0.00    +0.000 HD
BRANCH  14  16
ATOM     16  O   UNL     1      -6.372   4.812 128.006  0.00  0.00    +0.000 OA
BRANCH  16  17
ATOM     17  C   UNL     1      -6.542   4.569 126.056  0.00  0.00    +0.000 C 
BRANCH  17  18
ATOM     18  C   UNL     1      -7.928   4.043 125.356  0.00  0.00    +0.000 C 
BRANCH  18  19
ATOM     19  O   UNL     1      -9.014   4.930 125.489  0.00  0.00    +0.000 OA
ATOM     20  H   UNL     1      -9.263   5.139 124.579  0.00  0.00    +0.000 HD
ENDBRANCH  18  19
ENDBRANCH  17  18
ENDBRANCH  16  17
ENDBRANCH  14  16
ENDBRANCH   9  12
BRANCH   8  21
ATOM     21  N   UNL     1      -8.550   4.583 132.221  0.00  0.00    +0.000 N 
ATOM     22  H   UNL     1      -7.996   5.253 132.761  0.00  0.00    +0.000 HD
BRANCH  21  23
ATOM     23  C   UNL     1      -8.703   3.223 132.925  0.00  0.00    +0.000 A 
ATOM     24  C   UNL     1      -7.170   2.637 133.694  0.00  0.00    +0.000 A 
ATOM     25 CL   UNL     1      -5.881   3.803 133.859  0.00  0.00    +0.000 Cl
ATOM     26  C   UNL     1      -6.652   0.911 133.545  0.00  0.00    +0.000 A 
ATOM     27  C   UNL     1      -7.573  -0.238 132.469  0.00  0.00    +0.000 A 
ATOM     28 BR   UNL     1      -7.079  -2.126 132.604  0.00  0.00    +0.000 Br
ATOM     29  C   UNL     1      -9.167   0.324 131.726  0.00  0.00    +0.000 A 
ATOM     30  C   UNL     1      -9.757   2.051 131.988  0.00  0.00    +0.000 A 
ENDBRANCH  21  23
ENDBRANCH   8  21
TORSDOF 7
ENDMDL
MODEL 8
REMARK VINA RESULT:      -7.2      7.593     10.104
REMARK  Name = Selumetinib
REMARK  8 active torsions:
REMARK  status: ('A' for Active; 'I' for Inactive)
REMARK    1  A    between atoms: C_1  and  N_2
REMARK    2  A    between atoms: C_8  and  N_9
REMARK    3  A    between atoms: N_9  and  C_10
REMARK    4  A    between atoms: C_18  and  C_21
REMARK    5  A    between atoms: N_23  and  O_24
REMARK    6  A    between atoms: O_24  and  C_25
REMARK    7  A    between atoms: C_25  and  C_26
REMARK    8  A    between atoms: C_26  and  O_27
REMARK                            x       y       z     vdW  Elec       q    Type
REMARK                         _______ _______ _______ _____ _____    ______ ____
ROOT
ATOM      1  C   UNL     1      -8.987  -1.732 122.865  0.00  0.00    +0.000 C 
ATOM      2  N   UNL     1      -8.846  -1.439 124.272  0.00  0.00    +0.000 N 
ATOM      3  C   UNL     1      -9.045  -2.275 125.327  0.00  0.00    +0.000 A 
ATOM      4  N   UNL     1      -8.808  -1.672 126.476  0.00  0.00    +0.000 NA
ATOM      5  C   UNL     1      -8.464  -0.369 126.159  0.00  0.00    +0.000 A 
ATOM      6  C   UNL     1      -8.123   0.755 126.964  0.00  0.00    +0.000 A 
ATOM      7  F   UNL     1      -8.058   0.631 128.301  0.00  0.00    +0.000 F 
ATOM      8  C   UNL     1      -7.820   2.009 126.367  0.00  0.00    +0.000 A 
ATOM      9  C   UNL     1      -7.861   2.047 124.926  0.00  0.00    +0.000 A 
ATOM     10  C   UNL     1      -8.195   0.955 124.125  0.00  0.00    +0.000 A 
ATOM     11  C   UNL     1      -8.490  -0.221 124.777  0.00  0.00    +0.000 A 
ENDROOT
BRANCH   9  12
ATOM     12  C   UNL     1      -7.328   3.158 124.114  0.00  0.00    +0.000 C 
ATOM     13  O   UNL     1      -6.784   4.172 124.603  0.00  0.00    +0.000 OA
ATOM     14  N   UNL     1      -7.648   2.978 122.814  0.00  0.00    +0.000 N 
ATOM     15  H   UNL     1      -8.176   2.113 122.791  0.00  0.00    +0.000 HD
BRANCH  14  16
ATOM     16  O   UNL     1      -6.388   2.793 122.033  0.00  0.00    +0.000 OA
BRANCH  16  17
ATOM     17  C   UNL     1      -5.080   3.698 120.868  0.00  0.00    +0.000 C 
BRANCH  17  18
ATOM     18  C   UNL     1      -5.475   4.996 119.947  0.00  0.00    +0.000 C 
BRANCH  18  19
ATOM     19  O   UNL     1      -4.791   6.177 120.293  0.00  0.00    +0.000 OA
ATOM     20  H   UNL     1      -4.877   6.739 119.510  0.00  0.00    +0.000 HD
ENDBRANCH  18  19
ENDBRANCH  17  18
ENDBRANCH  16  17
ENDBRANCH  14  16
ENDBRANCH   9  12
BRANCH   8  21
ATOM     21  N   UNL     1      -7.546   3.165 127.240  0.00  0.00    +0.000 N 
ATOM     22  H   UNL     1      -8.379   3.737 127.402  0.00  0.00    +0.000 HD
BRANCH  21  23
ATOM     23  C   UNL     1      -6.446   3.395 128.291  0.00  0.00    +0.000 A 
ATOM     24  C   UNL     1      -7.075   4.061 129.855  0.00  0.00    +0.000 A 
ATOM     25 CL   UNL     1      -8.804   4.000 130.092  0.00  0.00    +0.000 Cl
ATOM     26  C   UNL     1      -6.211   5.396 130.716  0.00  0.00    +0.000 A 
ATOM     27  C   UNL     1      -4.782   6.221 129.939  0.00  0.00    +0.000 A 
ATOM     28 BR   UNL     1      -3.777   7.453 131.078  0.00  0.00    +0.000 Br
ATOM     29  C   UNL     1      -4.092   5.520 128.377  0.00  0.00    +0.000 A 
ATOM     30  C   UNL     1      -4.902   4.074 127.570  0.00  0.00    +0.000 A 
ENDBRANCH  21  23
ENDBRANCH   8  21
TORSDOF 7
ENDMDL
MODEL 9
REMARK VINA RESULT:      -7.2      2.360      2.799
REMARK  Name = Selumetinib
REMARK  8 active torsions:
REMARK  status: ('A' for Active; 'I' for Inactive)
REMARK    1  A    between atoms: C_1  and  N_2
REMARK    2  A    between atoms: C_8  and  N_9
REMARK    3  A    between atoms: N_9  and  C_10
REMARK    4  A    between atoms: C_18  and  C_21
REMARK    5  A    between atoms: N_23  and  O_24
REMARK    6  A    between atoms: O_24  and  C_25
REMARK    7  A    between atoms: C_25  and  C_26
REMARK    8  A    between atoms: C_26  and  O_27
REMARK                            x       y       z     vdW  Elec       q    Type
REMARK                         _______ _______ _______ _____ _____    ______ ____
ROOT
ATOM      1  C   UNL     1     -11.772   6.577 131.926  0.00  0.00    +0.000 C 
ATOM      2  N   UNL     1     -10.657   6.339 131.039  0.00  0.00    +0.000 N 
ATOM      3  C   UNL     1     -10.592   6.550 129.697  0.00  0.00    +0.000 A 
ATOM      4  N   UNL     1      -9.406   6.235 129.213  0.00  0.00    +0.000 NA
ATOM      5  C   UNL     1      -8.667   5.768 130.287  0.00  0.00    +0.000 A 
ATOM      6  C   UNL     1      -7.339   5.267 130.389  0.00  0.00    +0.000 A 
ATOM      7  F   UNL     1      -6.548   5.226 129.303  0.00  0.00    +0.000 F 
ATOM      8  C   UNL     1      -6.823   4.831 131.641  0.00  0.00    +0.000 A 
ATOM      9  C   UNL     1      -7.715   4.955 132.767  0.00  0.00    +0.000 A 
ATOM     10  C   UNL     1      -9.019   5.443 132.680  0.00  0.00    +0.000 A 
ATOM     11  C   UNL     1      -9.452   5.830 131.433  0.00  0.00    +0.000 A 
ENDROOT
BRANCH   9  12
ATOM     12  C   UNL     1      -7.293   4.814 134.174  0.00  0.00    +0.000 C 
ATOM     13  O   UNL     1      -6.197   4.322 134.520  0.00  0.00    +0.000 OA
ATOM     14  N   UNL     1      -8.308   5.150 134.999  0.00  0.00    +0.000 N 
ATOM     15  H   UNL     1      -9.074   5.399 134.385  0.00  0.00    +0.000 HD
BRANCH  14  16
ATOM     16  O   UNL     1      -7.908   6.357 135.782  0.00  0.00    +0.000 OA
BRANCH  16  17
ATOM     17  C   UNL     1      -8.338   7.455 137.363  0.00  0.00    +0.000 C 
BRANCH  17  18
ATOM     18  C   UNL     1      -9.246   8.816 137.265  0.00  0.00    +0.000 C 
BRANCH  18  19
ATOM     19  O   UNL     1     -10.325   8.726 136.363  0.00  0.00    +0.000 OA
ATOM     20  H   UNL     1      -9.909   8.508 135.518  0.00  0.00    +0.000 HD
ENDBRANCH  18  19
ENDBRANCH  17  18
ENDBRANCH  16  17
ENDBRANCH  14  16
ENDBRANCH   9  12
BRANCH   8  21
ATOM     21  N   UNL     1      -5.469   4.248 131.689  0.00  0.00    +0.000 N 
ATOM     22  H   UNL     1      -5.482   3.227 131.632  0.00  0.00    +0.000 HD
BRANCH  21  23
ATOM     23  C   UNL     1      -4.100   4.853 131.331  0.00  0.00    +0.000 A 
ATOM     24  C   UNL     1      -2.731   4.139 132.280  0.00  0.00    +0.000 A 
ATOM     25 CL   UNL     1      -3.070   2.667 133.157  0.00  0.00    +0.000 Cl
ATOM     26  C   UNL     1      -1.432   5.186 132.977  0.00  0.00    +0.000 A 
ATOM     27  C   UNL     1      -1.566   7.003 132.888  0.00  0.00    +0.000 A 
ATOM     28 BR   UNL     1       0.020   8.010 133.432  0.00  0.00    +0.000 Br
ATOM     29  C   UNL     1      -2.920   7.746 131.877  0.00  0.00    +0.000 A 
ATOM     30  C   UNL     1      -4.170   6.665 131.060  0.00  0.00    +0.000 A 
ENDBRANCH  21  23
ENDBRANCH   8  21
TORSDOF 7
ENDMDL
