MODEL 1
REMARK VINA RESULT:      -8.2      0.000      0.000
REMARK  Name = Serdexmethylphenidate
REMARK  13 active torsions:
REMARK  status: ('A' for Active; 'I' for Inactive)
REMARK    1  A    between atoms: C_2  and  C_27
REMARK    2  A    between atoms: C_8  and  O_10
REMARK    3  A    between atoms: O_10  and  C_11
REMARK    4  A    between atoms: C_11  and  N_12
REMARK    5  A    between atoms: C_16  and  C_18
REMARK    6  A    between atoms: N_20  and  CA_21
REMARK    7  A    between atoms: CA_21  and  CB_22
REMARK    8  A    between atoms: CA_21  and  C_24
REMARK    9  A    between atoms: CB_22  and  OG_23
REMARK   10  A    between atoms: C_27  and  C_28
REMARK   11  A    between atoms: C_27  and  C_32
REMARK   12  A    between atoms: C_28  and  O_30
REMARK   13  A    between atoms: O_30  and  C_31
REMARK                            x       y       z     vdW  Elec       q    Type
REMARK                         _______ _______ _______ _____ _____    ______ ____
ROOT
ATOM      1  C   UNK A   0      -6.565   0.472 126.657  0.00  0.00    +0.000 C 
ATOM      2  C   UNK A   0      -5.362   1.241 126.080  0.00  0.00    +0.000 C 
ATOM      3  C   UNK A   0      -5.820   2.370 125.180  0.00  0.00    +0.000 C 
ATOM      4  C   UNK A   0      -6.989   3.193 125.849  0.00  0.00    +0.000 C 
ATOM      5  C   UNK A   0      -8.062   2.416 126.676  0.00  0.00    +0.000 C 
ATOM      6  N   UNK A   0      -7.380   1.444 127.486  0.00  0.00    +0.000 N 
ATOM      7  C   UNK A   0      -7.607   1.407 128.850  0.00  0.00    +0.000 C 
ATOM      8  O   UNK A   0      -7.004   0.720 129.666  0.00  0.00    +0.000 OA
ENDROOT
BRANCH   7   9
ATOM      9  O   UNK A   0      -8.675   2.175 129.214  0.00  0.00    +0.000 OA
BRANCH   9  10
ATOM     10  C   UNK A   0      -8.975   2.147 130.602  0.00  0.00    +0.000 C 
BRANCH  10  11
ATOM     11  N   UNK A   0      -9.100   3.542 131.126  0.00  0.00    +0.000 N 
ATOM     12  C   UNK A   0      -9.170   3.751 132.464  0.00  0.00    +0.000 A 
ATOM     13  C   UNK A   0      -9.311   5.033 132.979  0.00  0.00    +0.000 A 
ATOM     14  C   UNK A   0      -9.516   6.087 132.102  0.00  0.00    +0.000 A 
ATOM     15  C   UNK A   0      -9.465   5.867 130.722  0.00  0.00    +0.000 A 
ATOM     16  C   UNK A   0      -9.158   4.591 130.259  0.00  0.00    +0.000 A 
BRANCH  15  17
ATOM     17  C   UNK A   0      -9.822   6.995 129.829  0.00  0.00    +0.000 C 
ATOM     18  O   UNK A   0      -9.009   7.908 129.711  0.00  0.00    +0.000 OA
ATOM     19  N   SER A   1     -11.047   6.992 129.228  0.00  0.00    +0.000 N 
ATOM     20  H   SER A   1     -11.811   6.339 129.384  0.00  0.00    +0.000 HD
BRANCH  19  21
ATOM     21  CA  SER A   1     -11.502   8.047 128.284  0.00  0.00    +0.000 C 
BRANCH  21  22
ATOM     22  C   SER A   1     -13.061   8.061 128.181  0.00  0.00    +0.000 C 
ATOM     23  O   SER A   1     -13.561   9.209 128.428  0.00  0.00    +0.000 OA
ATOM     24  OXT SER A   1     -13.618   6.981 127.857  0.00  0.00    +0.000 OA
ENDBRANCH  21  22
BRANCH  21  25
ATOM     25  CB  SER A   1     -10.984   7.819 126.856  0.00  0.00    +0.000 C 
BRANCH  25  26
ATOM     26  OG  SER A   1     -11.460   6.610 126.251  0.00  0.00    +0.000 OA
ATOM     27  H   SER A   1     -10.786   6.334 125.599  0.00  0.00    +0.000 HD
ENDBRANCH  25  26
ENDBRANCH  21  25
ENDBRANCH  19  21
ENDBRANCH  15  17
ENDBRANCH  10  11
ENDBRANCH   9  10
ENDBRANCH   7   9
BRANCH   1  28
ATOM     28  C   UNK A   0      -7.479  -0.368 125.551  0.00  0.00    +0.000 C 
BRANCH  28  29
ATOM     29  C   UNK A   0      -6.513  -1.183 124.657  0.00  0.00    +0.000 A 
ATOM     30  C   UNK A   0      -6.526  -1.033 123.277  0.00  0.00    +0.000 A 
ATOM     31  C   UNK A   0      -5.911  -1.986 122.458  0.00  0.00    +0.000 A 
ATOM     32  C   UNK A   0      -5.193  -3.050 123.000  0.00  0.00    +0.000 A 
ATOM     33  C   UNK A   0      -5.007  -3.108 124.367  0.00  0.00    +0.000 A 
ATOM     34  C   UNK A   0      -5.626  -2.153 125.165  0.00  0.00    +0.000 A 
ENDBRANCH  28  29
BRANCH  28  35
ATOM     35  C   UNK A   0      -8.609  -1.307 126.197  0.00  0.00    +0.000 C 
ATOM     36  O   UNK A   0      -9.687  -1.507 125.700  0.00  0.00    +0.000 OA
BRANCH  35  37
ATOM     37  O   UNK A   0      -8.450  -1.918 127.405  0.00  0.00    +0.000 OA
ATOM     38  C   UNK A   0      -8.579  -3.367 127.163  0.00  0.00    +0.000 C 
ENDBRANCH  35  37
ENDBRANCH  28  35
ENDBRANCH   1  28
TORSDOF 12
ENDMDL
MODEL 2
REMARK VINA RESULT:      -8.2      2.466      4.088
REMARK  Name = Serdexmethylphenidate
REMARK  13 active torsions:
REMARK  status: ('A' for Active; 'I' for Inactive)
REMARK    1  A    between atoms: C_2  and  C_27
REMARK    2  A    between atoms: C_8  and  O_10
REMARK    3  A    between atoms: O_10  and  C_11
REMARK    4  A    between atoms: C_11  and  N_12
REMARK    5  A    between atoms: C_16  and  C_18
REMARK    6  A    between atoms: N_20  and  CA_21
REMARK    7  A    between atoms: CA_21  and  CB_22
REMARK    8  A    between atoms: CA_21  and  C_24
REMARK    9  A    between atoms: CB_22  and  OG_23
REMARK   10  A    between atoms: C_27  and  C_28
REMARK   11  A    between atoms: C_27  and  C_32
REMARK   12  A    between atoms: C_28  and  O_30
REMARK   13  A    between atoms: O_30  and  C_31
REMARK                            x       y       z     vdW  Elec       q    Type
REMARK                         _______ _______ _______ _____ _____    ______ ____
ROOT
ATOM      1  C   UNK A   0      -7.562   1.848 125.322  0.00  0.00    +0.000 C 
ATOM      2  C   UNK A   0      -7.435   0.499 124.589  0.00  0.00    +0.000 C 
ATOM      3  C   UNK A   0      -6.023  -0.042 124.691  0.00  0.00    +0.000 C 
ATOM      4  C   UNK A   0      -5.476   0.068 126.167  0.00  0.00    +0.000 C 
ATOM      5  C   UNK A   0      -5.852   1.331 127.003  0.00  0.00    +0.000 C 
ATOM      6  N   UNK A   0      -7.245   1.610 126.784  0.00  0.00    +0.000 N 
ATOM      7  C   UNK A   0      -8.095   1.750 127.866  0.00  0.00    +0.000 C 
ATOM      8  O   UNK A   0      -9.315   1.861 127.820  0.00  0.00    +0.000 OA
ENDROOT
BRANCH   7   9
ATOM      9  O   UNK A   0      -7.415   1.844 129.046  0.00  0.00    +0.000 OA
BRANCH   9  10
ATOM     10  C   UNK A   0      -8.082   1.268 130.159  0.00  0.00    +0.000 C 
BRANCH  10  11
ATOM     11  N   UNK A   0      -8.322   2.309 131.206  0.00  0.00    +0.000 N 
ATOM     12  C   UNK A   0      -8.132   2.002 132.512  0.00  0.00    +0.000 A 
ATOM     13  C   UNK A   0      -8.371   2.940 133.508  0.00  0.00    +0.000 A 
ATOM     14  C   UNK A   0      -8.938   4.156 133.158  0.00  0.00    +0.000 A 
ATOM     15  C   UNK A   0      -9.155   4.464 131.811  0.00  0.00    +0.000 A 
ATOM     16  C   UNK A   0      -8.746   3.552 130.843  0.00  0.00    +0.000 A 
BRANCH  15  17
ATOM     17  C   UNK A   0      -9.884   5.716 131.498  0.00  0.00    +0.000 C 
ATOM     18  O   UNK A   0     -10.156   6.467 132.430  0.00  0.00    +0.000 OA
ATOM     19  N   SER A   1     -10.262   5.947 130.207  0.00  0.00    +0.000 N 
ATOM     20  H   SER A   1     -10.184   5.312 129.416  0.00  0.00    +0.000 HD
BRANCH  19  21
ATOM     21  CA  SER A   1     -10.962   7.182 129.764  0.00  0.00    +0.000 C 
BRANCH  21  22
ATOM     22  C   SER A   1     -12.502   6.935 129.657  0.00  0.00    +0.000 C 
ATOM     23  O   SER A   1     -13.111   7.137 130.761  0.00  0.00    +0.000 OA
ATOM     24  OXT SER A   1     -12.946   6.601 128.529  0.00  0.00    +0.000 OA
ENDBRANCH  21  22
BRANCH  21  25
ATOM     25  CB  SER A   1     -10.508   7.647 128.373  0.00  0.00    +0.000 C 
BRANCH  25  26
ATOM     26  OG  SER A   1      -9.970   6.599 127.557  0.00  0.00    +0.000 OA
ATOM     27  H   SER A   1      -9.683   5.887 128.161  0.00  0.00    +0.000 HD
ENDBRANCH  25  26
ENDBRANCH  21  25
ENDBRANCH  19  21
ENDBRANCH  15  17
ENDBRANCH  10  11
ENDBRANCH   9  10
ENDBRANCH   7   9
BRANCH   1  28
ATOM     28  C   UNK A   0      -6.702   3.108 124.662  0.00  0.00    +0.000 C 
BRANCH  28  29
ATOM     29  C   UNK A   0      -7.030   3.169 123.151  0.00  0.00    +0.000 A 
ATOM     30  C   UNK A   0      -6.025   3.374 122.215  0.00  0.00    +0.000 A 
ATOM     31  C   UNK A   0      -6.346   3.759 120.909  0.00  0.00    +0.000 A 
ATOM     32  C   UNK A   0      -7.672   3.854 120.488  0.00  0.00    +0.000 A 
ATOM     33  C   UNK A   0      -8.679   3.468 121.349  0.00  0.00    +0.000 A 
ATOM     34  C   UNK A   0      -8.341   3.088 122.644  0.00  0.00    +0.000 A 
ENDBRANCH  28  29
BRANCH  28  35
ATOM     35  C   UNK A   0      -6.951   4.527 125.371  0.00  0.00    +0.000 C 
ATOM     36  O   UNK A   0      -8.021   4.897 125.783  0.00  0.00    +0.000 OA
BRANCH  35  37
ATOM     37  O   UNK A   0      -5.966   5.457 125.515  0.00  0.00    +0.000 OA
ATOM     38  C   UNK A   0      -5.063   4.952 126.568  0.00  0.00    +0.000 C 
ENDBRANCH  35  37
ENDBRANCH  28  35
ENDBRANCH   1  28
TORSDOF 12
ENDMDL
MODEL 3
REMARK VINA RESULT:      -8.1      3.263      5.990
REMARK  Name = Serdexmethylphenidate
REMARK  13 active torsions:
REMARK  status: ('A' for Active; 'I' for Inactive)
REMARK    1  A    between atoms: C_2  and  C_27
REMARK    2  A    between atoms: C_8  and  O_10
REMARK    3  A    between atoms: O_10  and  C_11
REMARK    4  A    between atoms: C_11  and  N_12
REMARK    5  A    between atoms: C_16  and  C_18
REMARK    6  A    between atoms: N_20  and  CA_21
REMARK    7  A    between atoms: CA_21  and  CB_22
REMARK    8  A    between atoms: CA_21  and  C_24
REMARK    9  A    between atoms: CB_22  and  OG_23
REMARK   10  A    between atoms: C_27  and  C_28
REMARK   11  A    between atoms: C_27  and  C_32
REMARK   12  A    between atoms: C_28  and  O_30
REMARK   13  A    between atoms: O_30  and  C_31
REMARK                            x       y       z     vdW  Elec       q    Type
REMARK                         _______ _______ _______ _____ _____    ______ ____
ROOT
ATOM      1  C   UNK A   0      -8.071  -1.015 124.311  0.00  0.00    +0.000 C 
ATOM      2  C   UNK A   0      -7.760  -1.377 122.847  0.00  0.00    +0.000 C 
ATOM      3  C   UNK A   0      -6.323  -1.832 122.694  0.00  0.00    +0.000 C 
ATOM      4  C   UNK A   0      -5.928  -2.861 123.823  0.00  0.00    +0.000 C 
ATOM      5  C   UNK A   0      -6.487  -2.630 125.262  0.00  0.00    +0.000 C 
ATOM      6  N   UNK A   0      -7.872  -2.265 125.147  0.00  0.00    +0.000 N 
ATOM      7  C   UNK A   0      -8.829  -2.964 125.859  0.00  0.00    +0.000 C 
ATOM      8  O   UNK A   0     -10.044  -2.840 125.757  0.00  0.00    +0.000 OA
ENDROOT
BRANCH   7   9
ATOM      9  O   UNK A   0      -8.273  -3.785 126.798  0.00  0.00    +0.000 OA
BRANCH   9  10
ATOM     10  C   UNK A   0      -8.836  -3.664 128.095  0.00  0.00    +0.000 C 
BRANCH  10  11
ATOM     11  N   UNK A   0      -7.863  -2.996 129.014  0.00  0.00    +0.000 N 
ATOM     12  C   UNK A   0      -6.876  -3.726 129.589  0.00  0.00    +0.000 A 
ATOM     13  C   UNK A   0      -5.973  -3.139 130.466  0.00  0.00    +0.000 A 
ATOM     14  C   UNK A   0      -6.177  -1.823 130.853  0.00  0.00    +0.000 A 
ATOM     15  C   UNK A   0      -7.210  -1.077 130.277  0.00  0.00    +0.000 A 
ATOM     16  C   UNK A   0      -7.984  -1.666 129.281  0.00  0.00    +0.000 A 
BRANCH  15  17
ATOM     17  C   UNK A   0      -7.469   0.278 130.819  0.00  0.00    +0.000 C 
ATOM     18  O   UNK A   0      -7.156   0.495 131.986  0.00  0.00    +0.000 OA
ATOM     19  N   SER A   1      -8.087   1.195 130.019  0.00  0.00    +0.000 N 
ATOM     20  H   SER A   1      -8.486   1.042 129.096  0.00  0.00    +0.000 HD
BRANCH  19  21
ATOM     21  CA  SER A   1      -8.365   2.594 130.437  0.00  0.00    +0.000 C 
BRANCH  21  22
ATOM     22  C   SER A   1      -9.878   2.777 130.784  0.00  0.00    +0.000 C 
ATOM     23  O   SER A   1     -10.217   2.167 131.853  0.00  0.00    +0.000 OA
ATOM     24  OXT SER A   1     -10.555   3.497 130.006  0.00  0.00    +0.000 OA
ENDBRANCH  21  22
BRANCH  21  25
ATOM     25  CB  SER A   1      -8.057   3.611 129.328  0.00  0.00    +0.000 C 
BRANCH  25  26
ATOM     26  OG  SER A   1      -8.646   3.286 128.063  0.00  0.00    +0.000 OA
ATOM     27  H   SER A   1      -8.558   4.078 127.496  0.00  0.00    +0.000 HD
ENDBRANCH  25  26
ENDBRANCH  21  25
ENDBRANCH  19  21
ENDBRANCH  15  17
ENDBRANCH  10  11
ENDBRANCH   9  10
ENDBRANCH   7   9
BRANCH   1  28
ATOM     28  C   UNK A   0      -7.264   0.308 124.912  0.00  0.00    +0.000 C 
BRANCH  28  29
ATOM     29  C   UNK A   0      -7.529   1.499 123.961  0.00  0.00    +0.000 A 
ATOM     30  C   UNK A   0      -8.820   1.809 123.554  0.00  0.00    +0.000 A 
ATOM     31  C   UNK A   0      -9.030   2.649 122.457  0.00  0.00    +0.000 A 
ATOM     32  C   UNK A   0      -7.965   3.270 121.805  0.00  0.00    +0.000 A 
ATOM     33  C   UNK A   0      -6.691   3.127 122.316  0.00  0.00    +0.000 A 
ATOM     34  C   UNK A   0      -6.500   2.287 123.408  0.00  0.00    +0.000 A 
ENDBRANCH  28  29
BRANCH  28  35
ATOM     35  C   UNK A   0      -7.632   0.679 126.430  0.00  0.00    +0.000 C 
ATOM     36  O   UNK A   0      -8.748   0.642 126.883  0.00  0.00    +0.000 OA
BRANCH  35  37
ATOM     37  O   UNK A   0      -6.702   1.122 127.322  0.00  0.00    +0.000 OA
ATOM     38  C   UNK A   0      -5.427   0.479 126.953  0.00  0.00    +0.000 C 
ENDBRANCH  35  37
ENDBRANCH  28  35
ENDBRANCH   1  28
TORSDOF 12
ENDMDL
MODEL 4
REMARK VINA RESULT:      -8.1      3.724      8.390
REMARK  Name = Serdexmethylphenidate
REMARK  13 active torsions:
REMARK  status: ('A' for Active; 'I' for Inactive)
REMARK    1  A    between atoms: C_2  and  C_27
REMARK    2  A    between atoms: C_8  and  O_10
REMARK    3  A    between atoms: O_10  and  C_11
REMARK    4  A    between atoms: C_11  and  N_12
REMARK    5  A    between atoms: C_16  and  C_18
REMARK    6  A    between atoms: N_20  and  CA_21
REMARK    7  A    between atoms: CA_21  and  CB_22
REMARK    8  A    between atoms: CA_21  and  C_24
REMARK    9  A    between atoms: CB_22  and  OG_23
REMARK   10  A    between atoms: C_27  and  C_28
REMARK   11  A    between atoms: C_27  and  C_32
REMARK   12  A    between atoms: C_28  and  O_30
REMARK   13  A    between atoms: O_30  and  C_31
REMARK                            x       y       z     vdW  Elec       q    Type
REMARK                         _______ _______ _______ _____ _____    ______ ____
ROOT
ATOM      1  C   UNK A   0      -8.304   5.851 132.005  0.00  0.00    +0.000 C 
ATOM      2  C   UNK A   0      -8.543   5.867 133.526  0.00  0.00    +0.000 C 
ATOM      3  C   UNK A   0      -8.662   4.459 134.072  0.00  0.00    +0.000 C 
ATOM      4  C   UNK A   0      -7.523   3.528 133.500  0.00  0.00    +0.000 C 
ATOM      5  C   UNK A   0      -7.093   3.717 132.011  0.00  0.00    +0.000 C 
ATOM      6  N   UNK A   0      -6.996   5.127 131.752  0.00  0.00    +0.000 N 
ATOM      7  C   UNK A   0      -5.834   5.648 131.213  0.00  0.00    +0.000 C 
ATOM      8  O   UNK A   0      -5.574   6.836 131.062  0.00  0.00    +0.000 OA
ENDROOT
BRANCH   7   9
ATOM      9  O   UNK A   0      -4.994   4.672 130.761  0.00  0.00    +0.000 OA
BRANCH   9  10
ATOM     10  C   UNK A   0      -3.899   5.146 129.992  0.00  0.00    +0.000 C 
BRANCH  10  11
ATOM     11  N   UNK A   0      -3.936   4.542 128.624  0.00  0.00    +0.000 N 
ATOM     12  C   UNK A   0      -2.802   4.024 128.090  0.00  0.00    +0.000 A 
ATOM     13  C   UNK A   0      -2.801   3.479 126.812  0.00  0.00    +0.000 A 
ATOM     14  C   UNK A   0      -3.942   3.594 126.035  0.00  0.00    +0.000 A 
ATOM     15  C   UNK A   0      -5.105   4.150 126.579  0.00  0.00    +0.000 A 
ATOM     16  C   UNK A   0      -5.100   4.531 127.917  0.00  0.00    +0.000 A 
BRANCH  15  17
ATOM     17  C   UNK A   0      -6.254   4.373 125.670  0.00  0.00    +0.000 C 
ATOM     18  O   UNK A   0      -6.568   5.534 125.422  0.00  0.00    +0.000 OA
ATOM     19  N   SER A   1      -6.938   3.289 125.200  0.00  0.00    +0.000 N 
ATOM     20  H   SER A   1      -6.812   2.315 125.468  0.00  0.00    +0.000 HD
BRANCH  19  21
ATOM     21  CA  SER A   1      -8.080   3.384 124.255  0.00  0.00    +0.000 C 
BRANCH  21  22
ATOM     22  C   SER A   1      -9.121   2.251 124.530  0.00  0.00    +0.000 C 
ATOM     23  O   SER A   1      -9.176   1.921 125.762  0.00  0.00    +0.000 OA
ATOM     24  OXT SER A   1      -9.774   1.829 123.542  0.00  0.00    +0.000 OA
ENDBRANCH  21  22
BRANCH  21  25
ATOM     25  CB  SER A   1      -7.647   3.218 122.791  0.00  0.00    +0.000 C 
BRANCH  25  26
ATOM     26  OG  SER A   1      -8.552   3.804 121.847  0.00  0.00    +0.000 OA
ATOM     27  H   SER A   1      -8.823   3.093 121.234  0.00  0.00    +0.000 HD
ENDBRANCH  25  26
ENDBRANCH  21  25
ENDBRANCH  19  21
ENDBRANCH  15  17
ENDBRANCH  10  11
ENDBRANCH   9  10
ENDBRANCH   7   9
BRANCH   1  28
ATOM     28  C   UNK A   0      -9.561   5.270 131.086  0.00  0.00    +0.000 C 
BRANCH  28  29
ATOM     29  C   UNK A   0     -10.569   6.424 130.874  0.00  0.00    +0.000 A 
ATOM     30  C   UNK A   0     -11.701   6.534 131.671  0.00  0.00    +0.000 A 
ATOM     31  C   UNK A   0     -12.763   7.355 131.278  0.00  0.00    +0.000 A 
ATOM     32  C   UNK A   0     -12.679   8.151 130.137  0.00  0.00    +0.000 A 
ATOM     33  C   UNK A   0     -11.489   8.200 129.439  0.00  0.00    +0.000 A 
ATOM     34  C   UNK A   0     -10.443   7.377 129.844  0.00  0.00    +0.000 A 
ENDBRANCH  28  29
BRANCH  28  35
ATOM     35  C   UNK A   0      -9.117   4.618 129.688  0.00  0.00    +0.000 C 
ATOM     36  O   UNK A   0      -8.492   5.200 128.839  0.00  0.00    +0.000 OA
BRANCH  35  37
ATOM     37  O   UNK A   0      -9.467   3.351 129.326  0.00  0.00    +0.000 OA
ATOM     38  C   UNK A   0      -8.246   2.712 128.802  0.00  0.00    +0.000 C 
ENDBRANCH  35  37
ENDBRANCH  28  35
ENDBRANCH   1  28
TORSDOF 12
ENDMDL
MODEL 5
REMARK VINA RESULT:      -8.0      4.604      8.156
REMARK  Name = Serdexmethylphenidate
REMARK  13 active torsions:
REMARK  status: ('A' for Active; 'I' for Inactive)
REMARK    1  A    between atoms: C_2  and  C_27
REMARK    2  A    between atoms: C_8  and  O_10
REMARK    3  A    between atoms: O_10  and  C_11
REMARK    4  A    between atoms: C_11  and  N_12
REMARK    5  A    between atoms: C_16  and  C_18
REMARK    6  A    between atoms: N_20  and  CA_21
REMARK    7  A    between atoms: CA_21  and  CB_22
REMARK    8  A    between atoms: CA_21  and  C_24
REMARK    9  A    between atoms: CB_22  and  OG_23
REMARK   10  A    between atoms: C_27  and  C_28
REMARK   11  A    between atoms: C_27  and  C_32
REMARK   12  A    between atoms: C_28  and  O_30
REMARK   13  A    between atoms: O_30  and  C_31
REMARK                            x       y       z     vdW  Elec       q    Type
REMARK                         _______ _______ _______ _____ _____    ______ ____
ROOT
ATOM      1  C   UNK A   0      -6.443   3.422 125.117  0.00  0.00    +0.000 C 
ATOM      2  C   UNK A   0      -5.869   4.748 124.585  0.00  0.00    +0.000 C 
ATOM      3  C   UNK A   0      -5.055   4.522 123.327  0.00  0.00    +0.000 C 
ATOM      4  C   UNK A   0      -5.814   3.573 122.321  0.00  0.00    +0.000 C 
ATOM      5  C   UNK A   0      -6.632   2.378 122.905  0.00  0.00    +0.000 C 
ATOM      6  N   UNK A   0      -7.358   2.854 124.050  0.00  0.00    +0.000 N 
ATOM      7  C   UNK A   0      -8.724   2.656 124.128  0.00  0.00    +0.000 C 
ATOM      8  O   UNK A   0      -9.476   3.118 124.979  0.00  0.00    +0.000 OA
ENDROOT
BRANCH   7   9
ATOM      9  O   UNK A   0      -9.173   1.787 123.176  0.00  0.00    +0.000 OA
BRANCH   9  10
ATOM     10  C   UNK A   0     -10.115   0.833 123.646  0.00  0.00    +0.000 C 
BRANCH  10  11
ATOM     11  N   UNK A   0      -9.436  -0.477 123.893  0.00  0.00    +0.000 N 
ATOM     12  C   UNK A   0      -9.273  -1.350 122.869  0.00  0.00    +0.000 A 
ATOM     13  C   UNK A   0      -8.669  -2.584 123.073  0.00  0.00    +0.000 A 
ATOM     14  C   UNK A   0      -8.355  -2.968 124.367  0.00  0.00    +0.000 A 
ATOM     15  C   UNK A   0      -8.545  -2.076 125.427  0.00  0.00    +0.000 A 
ATOM     16  C   UNK A   0      -9.001  -0.791 125.145  0.00  0.00    +0.000 A 
BRANCH  15  17
ATOM     17  C   UNK A   0      -8.321  -2.579 126.803  0.00  0.00    +0.000 C 
ATOM     18  O   UNK A   0      -8.996  -3.534 127.178  0.00  0.00    +0.000 OA
ATOM     19  N   SER A   1      -7.424  -1.929 127.600  0.00  0.00    +0.000 N 
ATOM     20  H   SER A   1      -6.932  -1.061 127.398  0.00  0.00    +0.000 HD
BRANCH  19  21
ATOM     21  CA  SER A   1      -7.087  -2.362 128.981  0.00  0.00    +0.000 C 
BRANCH  21  22
ATOM     22  C   SER A   1      -7.240  -1.174 129.986  0.00  0.00    +0.000 C 
ATOM     23  O   SER A   1      -6.257  -0.361 129.941  0.00  0.00    +0.000 OA
ATOM     24  OXT SER A   1      -8.289  -1.149 130.679  0.00  0.00    +0.000 OA
ENDBRANCH  21  22
BRANCH  21  25
ATOM     25  CB  SER A   1      -5.635  -2.842 129.109  0.00  0.00    +0.000 C 
BRANCH  25  26
ATOM     26  OG  SER A   1      -4.696  -2.058 128.362  0.00  0.00    +0.000 OA
ATOM     27  H   SER A   1      -5.207  -1.362 127.904  0.00  0.00    +0.000 HD
ENDBRANCH  25  26
ENDBRANCH  21  25
ENDBRANCH  19  21
ENDBRANCH  15  17
ENDBRANCH  10  11
ENDBRANCH   9  10
ENDBRANCH   7   9
BRANCH   1  28
ATOM     28  C   UNK A   0      -5.323   2.325 125.670  0.00  0.00    +0.000 C 
BRANCH  28  29
ATOM     29  C   UNK A   0      -4.346   3.073 126.607  0.00  0.00    +0.000 A 
ATOM     30  C   UNK A   0      -4.822   3.878 127.633  0.00  0.00    +0.000 A 
ATOM     31  C   UNK A   0      -3.976   4.802 128.255  0.00  0.00    +0.000 A 
ATOM     32  C   UNK A   0      -2.622   4.875 127.933  0.00  0.00    +0.000 A 
ATOM     33  C   UNK A   0      -2.091   3.952 127.054  0.00  0.00    +0.000 A 
ATOM     34  C   UNK A   0      -2.946   3.041 126.444  0.00  0.00    +0.000 A 
ENDBRANCH  28  29
BRANCH  28  35
ATOM     35  C   UNK A   0      -5.954   1.037 126.391  0.00  0.00    +0.000 C 
ATOM     36  O   UNK A   0      -7.014   1.034 126.963  0.00  0.00    +0.000 OA
BRANCH  35  37
ATOM     37  O   UNK A   0      -5.302  -0.157 126.460  0.00  0.00    +0.000 OA
ATOM     38  C   UNK A   0      -5.301  -0.714 125.094  0.00  0.00    +0.000 C 
ENDBRANCH  35  37
ENDBRANCH  28  35
ENDBRANCH   1  28
TORSDOF 12
ENDMDL
MODEL 6
REMARK VINA RESULT:      -8.0      1.443      2.836
REMARK  Name = Serdexmethylphenidate
REMARK  13 active torsions:
REMARK  status: ('A' for Active; 'I' for Inactive)
REMARK    1  A    between atoms: C_2  and  C_27
REMARK    2  A    between atoms: C_8  and  O_10
REMARK    3  A    between atoms: O_10  and  C_11
REMARK    4  A    between atoms: C_11  and  N_12
REMARK    5  A    between atoms: C_16  and  C_18
REMARK    6  A    between atoms: N_20  and  CA_21
REMARK    7  A    between atoms: CA_21  and  CB_22
REMARK    8  A    between atoms: CA_21  and  C_24
REMARK    9  A    between atoms: CB_22  and  OG_23
REMARK   10  A    between atoms: C_27  and  C_28
REMARK   11  A    between atoms: C_27  and  C_32
REMARK   12  A    between atoms: C_28  and  O_30
REMARK   13  A    between atoms: O_30  and  C_31
REMARK                            x       y       z     vdW  Elec       q    Type
REMARK                         _______ _______ _______ _____ _____    ______ ____
ROOT
ATOM      1  C   UNK A   0      -7.592  -0.330 126.877  0.00  0.00    +0.000 C 
ATOM      2  C   UNK A   0      -8.374  -1.656 126.875  0.00  0.00    +0.000 C 
ATOM      3  C   UNK A   0      -7.757  -2.652 127.836  0.00  0.00    +0.000 C 
ATOM      4  C   UNK A   0      -7.426  -1.975 129.223  0.00  0.00    +0.000 C 
ATOM      5  C   UNK A   0      -6.889  -0.509 129.220  0.00  0.00    +0.000 C 
ATOM      6  N   UNK A   0      -7.665   0.247 128.276  0.00  0.00    +0.000 N 
ATOM      7  C   UNK A   0      -8.271   1.425 128.673  0.00  0.00    +0.000 C 
ATOM      8  O   UNK A   0      -9.057   2.094 128.012  0.00  0.00    +0.000 OA
ENDROOT
BRANCH   7   9
ATOM      9  O   UNK A   0      -7.829   1.845 129.895  0.00  0.00    +0.000 OA
BRANCH   9  10
ATOM     10  C   UNK A   0      -8.859   2.224 130.796  0.00  0.00    +0.000 C 
BRANCH  10  11
ATOM     11  N   UNK A   0      -8.705   3.664 131.171  0.00  0.00    +0.000 N 
ATOM     12  C   UNK A   0      -8.274   3.990 132.414  0.00  0.00    +0.000 A 
ATOM     13  C   UNK A   0      -8.145   5.318 132.799  0.00  0.00    +0.000 A 
ATOM     14  C   UNK A   0      -8.592   6.309 131.939  0.00  0.00    +0.000 A 
ATOM     15  C   UNK A   0      -9.058   5.971 130.665  0.00  0.00    +0.000 A 
ATOM     16  C   UNK A   0      -9.013   4.638 130.269  0.00  0.00    +0.000 A 
BRANCH  15  17
ATOM     17  C   UNK A   0      -9.648   7.049 129.836  0.00  0.00    +0.000 C 
ATOM     18  O   UNK A   0      -9.005   8.087 129.708  0.00  0.00    +0.000 OA
ATOM     19  N   SER A   1     -10.891   6.860 129.304  0.00  0.00    +0.000 N 
ATOM     20  H   SER A   1     -11.526   6.084 129.477  0.00  0.00    +0.000 HD
BRANCH  19  21
ATOM     21  CA  SER A   1     -11.569   7.850 128.427  0.00  0.00    +0.000 C 
BRANCH  21  22
ATOM     22  C   SER A   1     -13.119   7.655 128.469  0.00  0.00    +0.000 C 
ATOM     23  O   SER A   1     -13.523   7.153 129.571  0.00  0.00    +0.000 OA
ATOM     24  OXT SER A   1     -13.764   8.024 127.455  0.00  0.00    +0.000 OA
ENDBRANCH  21  22
BRANCH  21  25
ATOM     25  CB  SER A   1     -11.162   7.704 126.953  0.00  0.00    +0.000 C 
BRANCH  25  26
ATOM     26  OG  SER A   1     -11.652   6.510 126.330  0.00  0.00    +0.000 OA
ATOM     27  H   SER A   1     -11.794   6.720 125.387  0.00  0.00    +0.000 HD
ENDBRANCH  25  26
ENDBRANCH  21  25
ENDBRANCH  19  21
ENDBRANCH  15  17
ENDBRANCH  10  11
ENDBRANCH   9  10
ENDBRANCH   7   9
BRANCH   1  28
ATOM     28  C   UNK A   0      -6.042  -0.409 126.282  0.00  0.00    +0.000 C 
BRANCH  28  29
ATOM     29  C   UNK A   0      -6.063  -1.298 125.016  0.00  0.00    +0.000 A 
ATOM     30  C   UNK A   0      -5.357  -2.494 124.976  0.00  0.00    +0.000 A 
ATOM     31  C   UNK A   0      -5.101  -3.121 123.753  0.00  0.00    +0.000 A 
ATOM     32  C   UNK A   0      -5.621  -2.621 122.560  0.00  0.00    +0.000 A 
ATOM     33  C   UNK A   0      -6.483  -1.544 122.603  0.00  0.00    +0.000 A 
ATOM     34  C   UNK A   0      -6.727  -0.932 123.829  0.00  0.00    +0.000 A 
ENDBRANCH  28  29
BRANCH  28  35
ATOM     35  C   UNK A   0      -5.371   1.018 125.983  0.00  0.00    +0.000 C 
ATOM     36  O   UNK A   0      -4.229   1.296 126.246  0.00  0.00    +0.000 OA
BRANCH  35  37
ATOM     37  O   UNK A   0      -6.070   2.059 125.449  0.00  0.00    +0.000 OA
ATOM     38  C   UNK A   0      -5.947   3.179 126.401  0.00  0.00    +0.000 C 
ENDBRANCH  35  37
ENDBRANCH  28  35
ENDBRANCH   1  28
TORSDOF 12
ENDMDL
MODEL 7
REMARK VINA RESULT:      -7.8      4.517      6.646
REMARK  Name = Serdexmethylphenidate
REMARK  13 active torsions:
REMARK  status: ('A' for Active; 'I' for Inactive)
REMARK    1  A    between atoms: C_2  and  C_27
REMARK    2  A    between atoms: C_8  and  O_10
REMARK    3  A    between atoms: O_10  and  C_11
REMARK    4  A    between atoms: C_11  and  N_12
REMARK    5  A    between atoms: C_16  and  C_18
REMARK    6  A    between atoms: N_20  and  CA_21
REMARK    7  A    between atoms: CA_21  and  CB_22
REMARK    8  A    between atoms: CA_21  and  C_24
REMARK    9  A    between atoms: CB_22  and  OG_23
REMARK   10  A    between atoms: C_27  and  C_28
REMARK   11  A    between atoms: C_27  and  C_32
REMARK   12  A    between atoms: C_28  and  O_30
REMARK   13  A    between atoms: O_30  and  C_31
REMARK                            x       y       z     vdW  Elec       q    Type
REMARK                         _______ _______ _______ _____ _____    ______ ____
ROOT
ATOM      1  C   UNK A   0      -7.969  -0.592 127.007  0.00  0.00    +0.000 C 
ATOM      2  C   UNK A   0      -7.139   0.359 127.888  0.00  0.00    +0.000 C 
ATOM      3  C   UNK A   0      -5.710   0.450 127.393  0.00  0.00    +0.000 C 
ATOM      4  C   UNK A   0      -5.661   0.639 125.827  0.00  0.00    +0.000 C 
ATOM      5  C   UNK A   0      -6.704  -0.129 124.956  0.00  0.00    +0.000 C 
ATOM      6  N   UNK A   0      -7.984  -0.025 125.602  0.00  0.00    +0.000 N 
ATOM      7  C   UNK A   0      -9.075   0.441 124.891  0.00  0.00    +0.000 C 
ATOM      8  O   UNK A   0     -10.183   0.696 125.349  0.00  0.00    +0.000 OA
ENDROOT
BRANCH   7   9
ATOM      9  O   UNK A   0      -8.824   0.512 123.551  0.00  0.00    +0.000 OA
BRANCH   9  10
ATOM     10  C   UNK A   0      -9.086   1.780 122.969  0.00  0.00    +0.000 C 
BRANCH  10  11
ATOM     11  N   UNK A   0      -7.934   2.702 123.215  0.00  0.00    +0.000 N 
ATOM     12  C   UNK A   0      -7.036   2.930 122.225  0.00  0.00    +0.000 A 
ATOM     13  C   UNK A   0      -5.943   3.762 122.433  0.00  0.00    +0.000 A 
ATOM     14  C   UNK A   0      -5.707   4.251 123.708  0.00  0.00    +0.000 A 
ATOM     15  C   UNK A   0      -6.622   3.996 124.735  0.00  0.00    +0.000 A 
ATOM     16  C   UNK A   0      -7.785   3.293 124.433  0.00  0.00    +0.000 A 
BRANCH  15  17
ATOM     17  C   UNK A   0      -6.259   4.424 126.106  0.00  0.00    +0.000 C 
ATOM     18  O   UNK A   0      -7.110   5.018 126.763  0.00  0.00    +0.000 OA
ATOM     19  N   SER A   1      -4.990   4.188 126.552  0.00  0.00    +0.000 N 
ATOM     20  H   SER A   1      -4.206   3.821 126.018  0.00  0.00    +0.000 HD
BRANCH  19  21
ATOM     21  CA  SER A   1      -4.521   4.536 127.919  0.00  0.00    +0.000 C 
BRANCH  21  22
ATOM     22  C   SER A   1      -3.541   5.752 127.873  0.00  0.00    +0.000 C 
ATOM     23  O   SER A   1      -4.144   6.874 127.946  0.00  0.00    +0.000 OA
ATOM     24  OXT SER A   1      -2.314   5.488 127.796  0.00  0.00    +0.000 OA
ENDBRANCH  21  22
BRANCH  21  25
ATOM     25  CB  SER A   1      -3.746   3.389 128.583  0.00  0.00    +0.000 C 
BRANCH  25  26
ATOM     26  OG  SER A   1      -2.986   2.593 127.665  0.00  0.00    +0.000 OA
ATOM     27  H   SER A   1      -2.579   3.209 127.024  0.00  0.00    +0.000 HD
ENDBRANCH  25  26
ENDBRANCH  21  25
ENDBRANCH  19  21
ENDBRANCH  15  17
ENDBRANCH  10  11
ENDBRANCH   9  10
ENDBRANCH   7   9
BRANCH   1  28
ATOM     28  C   UNK A   0      -7.523  -2.193 127.060  0.00  0.00    +0.000 C 
BRANCH  28  29
ATOM     29  C   UNK A   0      -7.025  -2.501 128.492  0.00  0.00    +0.000 A 
ATOM     30  C   UNK A   0      -5.721  -2.922 128.716  0.00  0.00    +0.000 A 
ATOM     31  C   UNK A   0      -5.369  -3.512 129.934  0.00  0.00    +0.000 A 
ATOM     32  C   UNK A   0      -6.283  -3.608 130.982  0.00  0.00    +0.000 A 
ATOM     33  C   UNK A   0      -7.525  -3.023 130.846  0.00  0.00    +0.000 A 
ATOM     34  C   UNK A   0      -7.858  -2.440 129.627  0.00  0.00    +0.000 A 
ENDBRANCH  28  29
BRANCH  28  35
ATOM     35  C   UNK A   0      -8.672  -3.219 126.608  0.00  0.00    +0.000 C 
ATOM     36  O   UNK A   0      -9.194  -4.016 127.345  0.00  0.00    +0.000 OA
BRANCH  35  37
ATOM     37  O   UNK A   0      -9.113  -3.304 125.322  0.00  0.00    +0.000 OA
ATOM     38  C   UNK A   0      -7.935  -3.625 124.494  0.00  0.00    +0.000 C 
ENDBRANCH  35  37
ENDBRANCH  28  35
ENDBRANCH   1  28
TORSDOF 12
ENDMDL
MODEL 8
REMARK VINA RESULT:      -7.8      2.775      3.805
REMARK  Name = Serdexmethylphenidate
REMARK  13 active torsions:
REMARK  status: ('A' for Active; 'I' for Inactive)
REMARK    1  A    between atoms: C_2  and  C_27
REMARK    2  A    between atoms: C_8  and  O_10
REMARK    3  A    between atoms: O_10  and  C_11
REMARK    4  A    between atoms: C_11  and  N_12
REMARK    5  A    between atoms: C_16  and  C_18
REMARK    6  A    between atoms: N_20  and  CA_21
REMARK    7  A    between atoms: CA_21  and  CB_22
REMARK    8  A    between atoms: CA_21  and  C_24
REMARK    9  A    between atoms: CB_22  and  OG_23
REMARK   10  A    between atoms: C_27  and  C_28
REMARK   11  A    between atoms: C_27  and  C_32
REMARK   12  A    between atoms: C_28  and  O_30
REMARK   13  A    between atoms: O_30  and  C_31
REMARK                            x       y       z     vdW  Elec       q    Type
REMARK                         _______ _______ _______ _____ _____    ______ ____
ROOT
ATOM      1  C   UNK A   0      -4.810   2.565 127.331  0.00  0.00    +0.000 C 
ATOM      2  C   UNK A   0      -3.456   2.532 126.599  0.00  0.00    +0.000 C 
ATOM      3  C   UNK A   0      -2.767   3.879 126.668  0.00  0.00    +0.000 C 
ATOM      4  C   UNK A   0      -2.817   4.470 128.131  0.00  0.00    +0.000 C 
ATOM      5  C   UNK A   0      -4.114   4.251 128.973  0.00  0.00    +0.000 C 
ATOM      6  N   UNK A   0      -4.539   2.891 128.787  0.00  0.00    +0.000 N 
ATOM      7  C   UNK A   0      -4.768   2.086 129.888  0.00  0.00    +0.000 C 
ATOM      8  O   UNK A   0      -5.009   0.885 129.870  0.00  0.00    +0.000 OA
ENDROOT
BRANCH   7   9
ATOM      9  O   UNK A   0      -4.789   2.801 131.051  0.00  0.00    +0.000 OA
BRANCH   9  10
ATOM     10  C   UNK A   0      -5.974   2.644 131.818  0.00  0.00    +0.000 C 
BRANCH  10  11
ATOM     11  N   UNK A   0      -6.765   3.913 131.801  0.00  0.00    +0.000 N 
ATOM     12  C   UNK A   0      -6.521   4.867 132.733  0.00  0.00    +0.000 A 
ATOM     13  C   UNK A   0      -7.256   6.045 132.757  0.00  0.00    +0.000 A 
ATOM     14  C   UNK A   0      -8.337   6.176 131.900  0.00  0.00    +0.000 A 
ATOM     15  C   UNK A   0      -8.603   5.181 130.953  0.00  0.00    +0.000 A 
ATOM     16  C   UNK A   0      -7.736   4.096 130.863  0.00  0.00    +0.000 A 
BRANCH  15  17
ATOM     17  C   UNK A   0      -9.844   5.303 130.152  0.00  0.00    +0.000 C 
ATOM     18  O   UNK A   0     -10.420   4.267 129.831  0.00  0.00    +0.000 OA
ATOM     19  N   SER A   1     -10.255   6.546 129.768  0.00  0.00    +0.000 N 
ATOM     20  H   SER A   1      -9.759   7.427 129.888  0.00  0.00    +0.000 HD
BRANCH  19  21
ATOM     21  CA  SER A   1     -11.501   6.798 128.997  0.00  0.00    +0.000 C 
BRANCH  21  22
ATOM     22  C   SER A   1     -11.168   7.354 127.575  0.00  0.00    +0.000 C 
ATOM     23  O   SER A   1     -10.328   8.314 127.605  0.00  0.00    +0.000 OA
ATOM     24  OXT SER A   1     -11.732   6.794 126.601  0.00  0.00    +0.000 OA
ENDBRANCH  21  22
BRANCH  21  25
ATOM     25  CB  SER A   1     -12.402   7.847 129.664  0.00  0.00    +0.000 C 
BRANCH  25  26
ATOM     26  OG  SER A   1     -13.023   8.751 128.741  0.00  0.00    +0.000 OA
ATOM     27  H   SER A   1     -12.951   8.347 127.855  0.00  0.00    +0.000 HD
ENDBRANCH  25  26
ENDBRANCH  21  25
ENDBRANCH  19  21
ENDBRANCH  15  17
ENDBRANCH  10  11
ENDBRANCH   9  10
ENDBRANCH   7   9
BRANCH   1  28
ATOM     28  C   UNK A   0      -5.972   3.539 126.649  0.00  0.00    +0.000 C 
BRANCH  28  29
ATOM     29  C   UNK A   0      -5.986   3.266 125.126  0.00  0.00    +0.000 A 
ATOM     30  C   UNK A   0      -5.480   4.200 124.232  0.00  0.00    +0.000 A 
ATOM     31  C   UNK A   0      -5.788   4.114 122.871  0.00  0.00    +0.000 A 
ATOM     32  C   UNK A   0      -6.527   3.046 122.362  0.00  0.00    +0.000 A 
ATOM     33  C   UNK A   0      -6.874   2.009 123.205  0.00  0.00    +0.000 A 
ATOM     34  C   UNK A   0      -6.559   2.112 124.555  0.00  0.00    +0.000 A 
ENDBRANCH  28  29
BRANCH  28  35
ATOM     35  C   UNK A   0      -7.436   3.374 127.286  0.00  0.00    +0.000 C 
ATOM     36  O   UNK A   0      -8.311   4.196 127.189  0.00  0.00    +0.000 OA
BRANCH  35  37
ATOM     37  O   UNK A   0      -7.787   2.298 128.044  0.00  0.00    +0.000 OA
ATOM     38  C   UNK A   0      -8.755   1.521 127.246  0.00  0.00    +0.000 C 
ENDBRANCH  35  37
ENDBRANCH  28  35
ENDBRANCH   1  28
TORSDOF 12
ENDMDL
MODEL 9
REMARK VINA RESULT:      -7.7      2.072      3.185
REMARK  Name = Serdexmethylphenidate
REMARK  13 active torsions:
REMARK  status: ('A' for Active; 'I' for Inactive)
REMARK    1  A    between atoms: C_2  and  C_27
REMARK    2  A    between atoms: C_8  and  O_10
REMARK    3  A    between atoms: O_10  and  C_11
REMARK    4  A    between atoms: C_11  and  N_12
REMARK    5  A    between atoms: C_16  and  C_18
REMARK    6  A    between atoms: N_20  and  CA_21
REMARK    7  A    between atoms: CA_21  and  CB_22
REMARK    8  A    between atoms: CA_21  and  C_24
REMARK    9  A    between atoms: CB_22  and  OG_23
REMARK   10  A    between atoms: C_27  and  C_28
REMARK   11  A    between atoms: C_27  and  C_32
REMARK   12  A    between atoms: C_28  and  O_30
REMARK   13  A    between atoms: O_30  and  C_31
REMARK                            x       y       z     vdW  Elec       q    Type
REMARK                         _______ _______ _______ _____ _____    ______ ____
ROOT
ATOM      1  C   UNK A   0      -7.240  -1.102 128.711  0.00  0.00    +0.000 C 
ATOM      2  C   UNK A   0      -6.523  -2.445 128.940  0.00  0.00    +0.000 C 
ATOM      3  C   UNK A   0      -5.019  -2.275 128.884  0.00  0.00    +0.000 C 
ATOM      4  C   UNK A   0      -4.556  -1.022 129.724  0.00  0.00    +0.000 C 
ATOM      5  C   UNK A   0      -5.452   0.256 129.701  0.00  0.00    +0.000 C 
ATOM      6  N   UNK A   0      -6.822  -0.161 129.823  0.00  0.00    +0.000 N 
ATOM      7  C   UNK A   0      -7.623   0.391 130.806  0.00  0.00    +0.000 C 
ATOM      8  O   UNK A   0      -8.759   0.038 131.099  0.00  0.00    +0.000 OA
ENDROOT
BRANCH   7   9
ATOM      9  O   UNK A   0      -7.040   1.476 131.395  0.00  0.00    +0.000 OA
BRANCH   9  10
ATOM     10  C   UNK A   0      -7.783   2.035 132.469  0.00  0.00    +0.000 C 
BRANCH  10  11
ATOM     11  N   UNK A   0      -8.103   3.466 132.178  0.00  0.00    +0.000 N 
ATOM     12  C   UNK A   0      -7.498   4.447 132.893  0.00  0.00    +0.000 A 
ATOM     13  C   UNK A   0      -7.794   5.784 132.662  0.00  0.00    +0.000 A 
ATOM     14  C   UNK A   0      -8.818   6.099 131.783  0.00  0.00    +0.000 A 
ATOM     15  C   UNK A   0      -9.458   5.086 131.063  0.00  0.00    +0.000 A 
ATOM     16  C   UNK A   0      -9.011   3.777 131.211  0.00  0.00    +0.000 A 
BRANCH  15  17
ATOM     17  C   UNK A   0     -10.633   5.459 130.239  0.00  0.00    +0.000 C 
ATOM     18  O   UNK A   0     -11.454   4.582 129.985  0.00  0.00    +0.000 OA
ATOM     19  N   SER A   1     -10.718   6.735 129.761  0.00  0.00    +0.000 N 
ATOM     20  H   SER A   1     -10.015   7.468 129.825  0.00  0.00    +0.000 HD
BRANCH  19  21
ATOM     21  CA  SER A   1     -11.864   7.237 128.959  0.00  0.00    +0.000 C 
BRANCH  21  22
ATOM     22  C   SER A   1     -11.410   7.587 127.505  0.00  0.00    +0.000 C 
ATOM     23  O   SER A   1     -10.301   8.218 127.473  0.00  0.00    +0.000 OA
ATOM     24  OXT SER A   1     -12.155   7.198 126.569  0.00  0.00    +0.000 OA
ENDBRANCH  21  22
BRANCH  21  25
ATOM     25  CB  SER A   1     -12.467   8.525 129.538  0.00  0.00    +0.000 C 
BRANCH  25  26
ATOM     26  OG  SER A   1     -12.686   9.553 128.564  0.00  0.00    +0.000 OA
ATOM     27  H   SER A   1     -13.152  10.282 129.019  0.00  0.00    +0.000 HD
ENDBRANCH  25  26
ENDBRANCH  21  25
ENDBRANCH  19  21
ENDBRANCH  15  17
ENDBRANCH  10  11
ENDBRANCH   9  10
ENDBRANCH   7   9
BRANCH   1  28
ATOM     28  C   UNK A   0      -7.062  -0.443 127.195  0.00  0.00    +0.000 C 
BRANCH  28  29
ATOM     29  C   UNK A   0      -7.524  -1.496 126.161  0.00  0.00    +0.000 A 
ATOM     30  C   UNK A   0      -8.834  -1.956 126.152  0.00  0.00    +0.000 A 
ATOM     31  C   UNK A   0      -9.167  -3.125 125.460  0.00  0.00    +0.000 A 
ATOM     32  C   UNK A   0      -8.224  -3.803 124.689  0.00  0.00    +0.000 A 
ATOM     33  C   UNK A   0      -6.967  -3.255 124.531  0.00  0.00    +0.000 A 
ATOM     34  C   UNK A   0      -6.653  -2.092 125.227  0.00  0.00    +0.000 A 
ENDBRANCH  28  29
BRANCH  28  35
ATOM     35  C   UNK A   0      -7.823   0.955 126.984  0.00  0.00    +0.000 C 
ATOM     36  O   UNK A   0      -8.841   1.262 127.549  0.00  0.00    +0.000 OA
BRANCH  35  37
ATOM     37  O   UNK A   0      -7.395   1.895 126.095  0.00  0.00    +0.000 OA
ATOM     38  C   UNK A   0      -8.533   2.174 125.199  0.00  0.00    +0.000 C 
ENDBRANCH  35  37
ENDBRANCH  28  35
ENDBRANCH   1  28
TORSDOF 12
ENDMDL
