MODEL 1
REMARK VINA RESULT:      -8.9      0.000      0.000
REMARK  Name = Sertindole
REMARK  5 active torsions:
REMARK  status: ('A' for Active; 'I' for Inactive)
REMARK    1  A    between atoms: C_5  and  N_8
REMARK    2  A    between atoms: C_10  and  C_11
REMARK    3  A    between atoms: N_14  and  C_15
REMARK    4  A    between atoms: C_15  and  C_16
REMARK    5  A    between atoms: C_16  and  N_17
REMARK                            x       y       z     vdW  Elec       q    Type
REMARK                         _______ _______ _______ _____ _____    ______ ____
ROOT
ATOM      1  N   UNL     1      -6.409   3.230 124.600  0.00  0.00    +0.000 N 
ATOM      2  C   UNL     1      -7.587   2.613 124.866  0.00  0.00    +0.000 A 
ATOM      3  C   UNL     1      -8.364   2.530 123.728  0.00  0.00    +0.000 A 
ATOM      4  C   UNL     1      -7.603   3.137 122.699  0.00  0.00    +0.000 A 
ATOM      5  C   UNL     1      -6.403   3.591 123.269  0.00  0.00    +0.000 A 
ATOM      6  C   UNL     1      -5.413   4.212 122.506  0.00  0.00    +0.000 A 
ATOM      7  C   UNL     1      -5.666   4.392 121.146  0.00  0.00    +0.000 A 
ATOM      8  C   UNL     1      -6.858   3.964 120.569  0.00  0.00    +0.000 A 
ATOM      9 CL   UNL     1      -7.131   4.214 118.888  0.00  0.00    +0.000 Cl
ATOM     10  C   UNL     1      -7.839   3.332 121.326  0.00  0.00    +0.000 A 
ENDROOT
BRANCH   1  15
ATOM     11  F   UNL     1      -2.575   4.106 128.457  0.00  0.00    +0.000 F 
ATOM     12  C   UNL     1      -3.496   3.904 127.506  0.00  0.00    +0.000 A 
ATOM     13  C   UNL     1      -4.347   4.944 127.148  0.00  0.00    +0.000 A 
ATOM     14  C   UNL     1      -5.312   4.730 126.165  0.00  0.00    +0.000 A 
ATOM     15  C   UNL     1      -5.437   3.452 125.594  0.00  0.00    +0.000 A 
ATOM     16  C   UNL     1      -4.560   2.420 125.931  0.00  0.00    +0.000 A 
ATOM     17  C   UNL     1      -3.581   2.655 126.895  0.00  0.00    +0.000 A 
ENDBRANCH   1  15
BRANCH   3  18
ATOM     18  C   UNL     1      -9.733   1.902 123.600  0.00  0.00    +0.000 C 
ATOM     19  C   UNL     1     -10.218   1.335 124.938  0.00  0.00    +0.000 C 
ATOM     20  C   UNL     1      -9.384   0.137 125.362  0.00  0.00    +0.000 C 
ATOM     21  N   UNL     1      -9.333  -0.877 124.295  0.00  0.00    +0.000 NA
ATOM     22  C   UNL     1      -8.899  -0.380 122.979  0.00  0.00    +0.000 C 
ATOM     23  C   UNL     1      -9.716   0.815 122.527  0.00  0.00    +0.000 C 
BRANCH  21  24
ATOM     24  C   UNL     1      -8.462  -1.963 124.734  0.00  0.00    +0.000 C 
BRANCH  24  25
ATOM     25  C   UNL     1      -9.092  -2.814 125.831  0.00  0.00    +0.000 C 
BRANCH  25  26
ATOM     26  N   UNL     1      -8.287  -2.902 127.015  0.00  0.00    +0.000 N 
ATOM     27  C   UNL     1      -6.990  -2.290 127.203  0.00  0.00    +0.000 C 
ATOM     28  C   UNL     1      -6.912  -2.246 128.715  0.00  0.00    +0.000 C 
ATOM     29  N   UNL     1      -7.697  -3.390 129.101  0.00  0.00    +0.000 N 
ATOM     30  C   UNL     1      -8.638  -3.662 128.119  0.00  0.00    +0.000 C 
ATOM     31  O   UNL     1      -9.594  -4.415 128.231  0.00  0.00    +0.000 OA
ATOM     32  H   UNL     1      -7.810  -3.768 130.030  0.00  0.00    +0.000 HD
ENDBRANCH  25  26
ENDBRANCH  24  25
ENDBRANCH  21  24
ENDBRANCH   3  18
TORSDOF 5
ENDMDL
MODEL 2
REMARK VINA RESULT:      -8.6      6.001      8.729
REMARK  Name = Sertindole
REMARK  5 active torsions:
REMARK  status: ('A' for Active; 'I' for Inactive)
REMARK    1  A    between atoms: C_5  and  N_8
REMARK    2  A    between atoms: C_10  and  C_11
REMARK    3  A    between atoms: N_14  and  C_15
REMARK    4  A    between atoms: C_15  and  C_16
REMARK    5  A    between atoms: C_16  and  N_17
REMARK                            x       y       z     vdW  Elec       q    Type
REMARK                         _______ _______ _______ _____ _____    ______ ____
ROOT
ATOM      1  N   UNL     1      -8.214   1.363 127.121  0.00  0.00    +0.000 N 
ATOM      2  C   UNL     1      -8.152   2.276 128.121  0.00  0.00    +0.000 A 
ATOM      3  C   UNL     1      -7.921   1.659 129.334  0.00  0.00    +0.000 A 
ATOM      4  C   UNL     1      -7.836   0.273 129.049  0.00  0.00    +0.000 A 
ATOM      5  C   UNL     1      -8.049   0.109 127.671  0.00  0.00    +0.000 A 
ATOM      6  C   UNL     1      -7.998  -1.146 127.061  0.00  0.00    +0.000 A 
ATOM      7  C   UNL     1      -7.747  -2.249 127.878  0.00  0.00    +0.000 A 
ATOM      8  C   UNL     1      -7.551  -2.105 129.249  0.00  0.00    +0.000 A 
ATOM      9 CL   UNL     1      -7.254  -3.494 130.219  0.00  0.00    +0.000 Cl
ATOM     10  C   UNL     1      -7.588  -0.853 129.854  0.00  0.00    +0.000 A 
ENDROOT
BRANCH   1  15
ATOM     11  F   UNL     1      -9.173   2.831 121.898  0.00  0.00    +0.000 F 
ATOM     12  C   UNL     1      -8.946   2.492 123.174  0.00  0.00    +0.000 A 
ATOM     13  C   UNL     1      -7.831   3.005 123.828  0.00  0.00    +0.000 A 
ATOM     14  C   UNL     1      -7.590   2.645 125.153  0.00  0.00    +0.000 A 
ATOM     15  C   UNL     1      -8.452   1.730 125.782  0.00  0.00    +0.000 A 
ATOM     16  C   UNL     1      -9.588   1.243 125.134  0.00  0.00    +0.000 A 
ATOM     17  C   UNL     1      -9.833   1.633 123.819  0.00  0.00    +0.000 A 
ENDBRANCH   1  15
BRANCH   3  18
ATOM     18  C   UNL     1      -7.769   2.322 130.683  0.00  0.00    +0.000 C 
ATOM     19  C   UNL     1      -8.983   2.057 131.580  0.00  0.00    +0.000 C 
ATOM     20  C   UNL     1     -10.223   2.756 131.047  0.00  0.00    +0.000 C 
ATOM     21  N   UNL     1      -9.972   4.191 130.833  0.00  0.00    +0.000 NA
ATOM     22  C   UNL     1      -8.799   4.504 130.000  0.00  0.00    +0.000 C 
ATOM     23  C   UNL     1      -7.544   3.823 130.509  0.00  0.00    +0.000 C 
BRANCH  21  24
ATOM     24  C   UNL     1     -11.173   4.787 130.255  0.00  0.00    +0.000 C 
BRANCH  24  25
ATOM     25  C   UNL     1     -11.430   6.201 130.765  0.00  0.00    +0.000 C 
BRANCH  25  26
ATOM     26  N   UNL     1     -11.697   7.144 129.718  0.00  0.00    +0.000 N 
ATOM     27  C   UNL     1     -12.979   7.364 129.085  0.00  0.00    +0.000 C 
ATOM     28  C   UNL     1     -12.785   8.758 128.526  0.00  0.00    +0.000 C 
ATOM     29  N   UNL     1     -11.368   8.798 128.271  0.00  0.00    +0.000 N 
ATOM     30  C   UNL     1     -10.716   7.925 129.130  0.00  0.00    +0.000 C 
ATOM     31  O   UNL     1      -9.511   7.882 129.328  0.00  0.00    +0.000 OA
ATOM     32  H   UNL     1     -10.853   9.528 127.801  0.00  0.00    +0.000 HD
ENDBRANCH  25  26
ENDBRANCH  24  25
ENDBRANCH  21  24
ENDBRANCH   3  18
TORSDOF 5
ENDMDL
MODEL 3
REMARK VINA RESULT:      -8.4      4.985      7.408
REMARK  Name = Sertindole
REMARK  5 active torsions:
REMARK  status: ('A' for Active; 'I' for Inactive)
REMARK    1  A    between atoms: C_5  and  N_8
REMARK    2  A    between atoms: C_10  and  C_11
REMARK    3  A    between atoms: N_14  and  C_15
REMARK    4  A    between atoms: C_15  and  C_16
REMARK    5  A    between atoms: C_16  and  N_17
REMARK                            x       y       z     vdW  Elec       q    Type
REMARK                         _______ _______ _______ _____ _____    ______ ____
ROOT
ATOM      1  N   UNL     1      -7.129   2.039 123.605  0.00  0.00    +0.000 N 
ATOM      2  C   UNL     1      -6.368   2.488 124.634  0.00  0.00    +0.000 A 
ATOM      3  C   UNL     1      -6.402   1.603 125.691  0.00  0.00    +0.000 A 
ATOM      4  C   UNL     1      -7.242   0.540 125.274  0.00  0.00    +0.000 A 
ATOM      5  C   UNL     1      -7.706   0.846 123.984  0.00  0.00    +0.000 A 
ATOM      6  C   UNL     1      -8.536  -0.023 123.274  0.00  0.00    +0.000 A 
ATOM      7  C   UNL     1      -8.915  -1.210 123.903  0.00  0.00    +0.000 A 
ATOM      8  C   UNL     1      -8.478  -1.519 125.188  0.00  0.00    +0.000 A 
ATOM      9 CL   UNL     1      -8.977  -2.991 125.928  0.00  0.00    +0.000 Cl
ATOM     10  C   UNL     1      -7.639  -0.660 125.890  0.00  0.00    +0.000 A 
ENDROOT
BRANCH   1  15
ATOM     11  F   UNL     1      -7.692   4.835 118.891  0.00  0.00    +0.000 F 
ATOM     12  C   UNL     1      -7.562   4.139 120.028  0.00  0.00    +0.000 A 
ATOM     13  C   UNL     1      -8.698   3.805 120.758  0.00  0.00    +0.000 A 
ATOM     14  C   UNL     1      -8.561   3.089 121.946  0.00  0.00    +0.000 A 
ATOM     15  C   UNL     1      -7.274   2.764 122.406  0.00  0.00    +0.000 A 
ATOM     16  C   UNL     1      -6.138   3.071 121.655  0.00  0.00    +0.000 A 
ATOM     17  C   UNL     1      -6.290   3.763 120.455  0.00  0.00    +0.000 A 
ENDBRANCH   1  15
BRANCH   3  18
ATOM     18  C   UNL     1      -5.678   1.727 127.011  0.00  0.00    +0.000 C 
ATOM     19  C   UNL     1      -6.579   1.331 128.186  0.00  0.00    +0.000 C 
ATOM     20  C   UNL     1      -7.707   2.332 128.374  0.00  0.00    +0.000 C 
ATOM     21  N   UNL     1      -7.184   3.704 128.491  0.00  0.00    +0.000 NA
ATOM     22  C   UNL     1      -6.290   4.127 127.401  0.00  0.00    +0.000 C 
ATOM     23  C   UNL     1      -5.151   3.149 127.191  0.00  0.00    +0.000 C 
BRANCH  21  24
ATOM     24  C   UNL     1      -8.317   4.620 128.596  0.00  0.00    +0.000 C 
BRANCH  24  25
ATOM     25  C   UNL     1      -8.532   5.125 130.018  0.00  0.00    +0.000 C 
BRANCH  25  26
ATOM     26  N   UNL     1      -9.805   5.757 130.210  0.00  0.00    +0.000 N 
ATOM     27  C   UNL     1     -11.026   5.093 130.613  0.00  0.00    +0.000 C 
ATOM     28  C   UNL     1     -11.815   6.261 131.170  0.00  0.00    +0.000 C 
ATOM     29  N   UNL     1     -11.326   7.367 130.389  0.00  0.00    +0.000 N 
ATOM     30  C   UNL     1     -10.035   7.100 129.959  0.00  0.00    +0.000 C 
ATOM     31  O   UNL     1      -9.259   7.909 129.472  0.00  0.00    +0.000 OA
ATOM     32  H   UNL     1     -11.675   8.315 130.387  0.00  0.00    +0.000 HD
ENDBRANCH  25  26
ENDBRANCH  24  25
ENDBRANCH  21  24
ENDBRANCH   3  18
TORSDOF 5
ENDMDL
MODEL 4
REMARK VINA RESULT:      -8.3      6.203      9.645
REMARK  Name = Sertindole
REMARK  5 active torsions:
REMARK  status: ('A' for Active; 'I' for Inactive)
REMARK    1  A    between atoms: C_5  and  N_8
REMARK    2  A    between atoms: C_10  and  C_11
REMARK    3  A    between atoms: N_14  and  C_15
REMARK    4  A    between atoms: C_15  and  C_16
REMARK    5  A    between atoms: C_16  and  N_17
REMARK                            x       y       z     vdW  Elec       q    Type
REMARK                         _______ _______ _______ _____ _____    ______ ____
ROOT
ATOM      1  N   UNL     1      -7.373  -2.438 129.283  0.00  0.00    +0.000 N 
ATOM      2  C   UNL     1      -7.937  -1.374 129.906  0.00  0.00    +0.000 A 
ATOM      3  C   UNL     1      -7.723  -1.433 131.268  0.00  0.00    +0.000 A 
ATOM      4  C   UNL     1      -6.975  -2.616 131.487  0.00  0.00    +0.000 A 
ATOM      5  C   UNL     1      -6.793  -3.241 130.242  0.00  0.00    +0.000 A 
ATOM      6  C   UNL     1      -6.062  -4.423 130.111  0.00  0.00    +0.000 A 
ATOM      7  C   UNL     1      -5.531  -4.985 131.272  0.00  0.00    +0.000 A 
ATOM      8  C   UNL     1      -5.718  -4.388 132.516  0.00  0.00    +0.000 A 
ATOM      9 CL   UNL     1      -5.052  -5.121 133.923  0.00  0.00    +0.000 Cl
ATOM     10  C   UNL     1      -6.434  -3.202 132.645  0.00  0.00    +0.000 A 
ENDROOT
BRANCH   1  15
ATOM     11  F   UNL     1      -7.671  -3.200 123.835  0.00  0.00    +0.000 F 
ATOM     12  C   UNL     1      -7.595  -3.034 125.162  0.00  0.00    +0.000 A 
ATOM     13  C   UNL     1      -8.640  -3.477 125.966  0.00  0.00    +0.000 A 
ATOM     14  C   UNL     1      -8.564  -3.296 127.346  0.00  0.00    +0.000 A 
ATOM     15  C   UNL     1      -7.456  -2.624 127.889  0.00  0.00    +0.000 A 
ATOM     16  C   UNL     1      -6.394  -2.210 127.084  0.00  0.00    +0.000 A 
ATOM     17  C   UNL     1      -6.469  -2.422 125.709  0.00  0.00    +0.000 A 
ENDBRANCH   1  15
BRANCH   3  18
ATOM     18  C   UNL     1      -8.173  -0.434 132.308  0.00  0.00    +0.000 C 
ATOM     19  C   UNL     1      -9.279   0.479 131.769  0.00  0.00    +0.000 C 
ATOM     20  C   UNL     1      -8.749   1.403 130.684  0.00  0.00    +0.000 C 
ATOM     21  N   UNL     1      -7.569   2.149 131.154  0.00  0.00    +0.000 NA
ATOM     22  C   UNL     1      -6.486   1.321 131.708  0.00  0.00    +0.000 C 
ATOM     23  C   UNL     1      -6.983   0.390 132.796  0.00  0.00    +0.000 C 
BRANCH  21  24
ATOM     24  C   UNL     1      -7.068   2.959 130.048  0.00  0.00    +0.000 C 
BRANCH  24  25
ATOM     25  C   UNL     1      -8.180   3.687 129.302  0.00  0.00    +0.000 C 
BRANCH  25  26
ATOM     26  N   UNL     1      -8.698   4.818 130.016  0.00  0.00    +0.000 N 
ATOM     27  C   UNL     1      -7.908   5.859 130.638  0.00  0.00    +0.000 C 
ATOM     28  C   UNL     1      -8.925   6.980 130.715  0.00  0.00    +0.000 C 
ATOM     29  N   UNL     1     -10.168   6.264 130.844  0.00  0.00    +0.000 N 
ATOM     30  C   UNL     1     -10.048   5.013 130.259  0.00  0.00    +0.000 C 
ATOM     31  O   UNL     1     -10.968   4.251 129.999  0.00  0.00    +0.000 OA
ATOM     32  H   UNL     1     -11.081   6.655 131.023  0.00  0.00    +0.000 HD
ENDBRANCH  25  26
ENDBRANCH  24  25
ENDBRANCH  21  24
ENDBRANCH   3  18
TORSDOF 5
ENDMDL
MODEL 5
REMARK VINA RESULT:      -8.2      3.984      7.042
REMARK  Name = Sertindole
REMARK  5 active torsions:
REMARK  status: ('A' for Active; 'I' for Inactive)
REMARK    1  A    between atoms: C_5  and  N_8
REMARK    2  A    between atoms: C_10  and  C_11
REMARK    3  A    between atoms: N_14  and  C_15
REMARK    4  A    between atoms: C_15  and  C_16
REMARK    5  A    between atoms: C_16  and  N_17
REMARK                            x       y       z     vdW  Elec       q    Type
REMARK                         _______ _______ _______ _____ _____    ______ ____
ROOT
ATOM      1  N   UNL     1      -7.364  -0.017 124.275  0.00  0.00    +0.000 N 
ATOM      2  C   UNL     1      -7.617  -0.050 125.607  0.00  0.00    +0.000 A 
ATOM      3  C   UNL     1      -7.108  -1.201 126.173  0.00  0.00    +0.000 A 
ATOM      4  C   UNL     1      -6.500  -1.914 125.111  0.00  0.00    +0.000 A 
ATOM      5  C   UNL     1      -6.696  -1.174 123.934  0.00  0.00    +0.000 A 
ATOM      6  C   UNL     1      -6.185  -1.594 122.705  0.00  0.00    +0.000 A 
ATOM      7  C   UNL     1      -5.485  -2.801 122.677  0.00  0.00    +0.000 A 
ATOM      8  C   UNL     1      -5.298  -3.556 123.831  0.00  0.00    +0.000 A 
ATOM      9 CL   UNL     1      -4.435  -5.042 123.748  0.00  0.00    +0.000 Cl
ATOM     10  C   UNL     1      -5.794  -3.130 125.059  0.00  0.00    +0.000 A 
ENDROOT
BRANCH   1  15
ATOM     11  F   UNL     1      -9.040   4.168 121.108  0.00  0.00    +0.000 F 
ATOM     12  C   UNL     1      -8.632   3.163 121.894  0.00  0.00    +0.000 A 
ATOM     13  C   UNL     1      -7.306   3.118 122.311  0.00  0.00    +0.000 A 
ATOM     14  C   UNL     1      -6.880   2.067 123.122  0.00  0.00    +0.000 A 
ATOM     15  C   UNL     1      -7.788   1.048 123.456  0.00  0.00    +0.000 A 
ATOM     16  C   UNL     1      -9.125   1.113 123.063  0.00  0.00    +0.000 A 
ATOM     17  C   UNL     1      -9.546   2.184 122.277  0.00  0.00    +0.000 A 
ENDBRANCH   1  15
BRANCH   3  18
ATOM     18  C   UNL     1      -7.166  -1.606 127.628  0.00  0.00    +0.000 C 
ATOM     19  C   UNL     1      -7.830  -0.525 128.486  0.00  0.00    +0.000 C 
ATOM     20  C   UNL     1      -6.966   0.723 128.564  0.00  0.00    +0.000 C 
ATOM     21  N   UNL     1      -5.601   0.396 129.010  0.00  0.00    +0.000 NA
ATOM     22  C   UNL     1      -4.926  -0.658 128.236  0.00  0.00    +0.000 C 
ATOM     23  C   UNL     1      -5.762  -1.919 128.144  0.00  0.00    +0.000 C 
BRANCH  21  24
ATOM     24  C   UNL     1      -4.806   1.620 128.993  0.00  0.00    +0.000 C 
BRANCH  24  25
ATOM     25  C   UNL     1      -4.545   2.131 127.580  0.00  0.00    +0.000 C 
BRANCH  25  26
ATOM     26  N   UNL     1      -3.829   3.373 127.548  0.00  0.00    +0.000 N 
ATOM     27  C   UNL     1      -4.365   4.667 127.912  0.00  0.00    +0.000 C 
ATOM     28  C   UNL     1      -3.091   5.429 128.211  0.00  0.00    +0.000 C 
ATOM     29  N   UNL     1      -2.138   4.798 127.336  0.00  0.00    +0.000 N 
ATOM     30  C   UNL     1      -2.529   3.491 127.085  0.00  0.00    +0.000 C 
ATOM     31  O   UNL     1      -1.840   2.622 126.571  0.00  0.00    +0.000 OA
ATOM     32  H   UNL     1      -1.185   5.084 127.162  0.00  0.00    +0.000 HD
ENDBRANCH  25  26
ENDBRANCH  24  25
ENDBRANCH  21  24
ENDBRANCH   3  18
TORSDOF 5
ENDMDL
MODEL 6
REMARK VINA RESULT:      -8.2      8.620     11.367
REMARK  Name = Sertindole
REMARK  5 active torsions:
REMARK  status: ('A' for Active; 'I' for Inactive)
REMARK    1  A    between atoms: C_5  and  N_8
REMARK    2  A    between atoms: C_10  and  C_11
REMARK    3  A    between atoms: N_14  and  C_15
REMARK    4  A    between atoms: C_15  and  C_16
REMARK    5  A    between atoms: C_16  and  N_17
REMARK                            x       y       z     vdW  Elec       q    Type
REMARK                         _______ _______ _______ _____ _____    ______ ____
ROOT
ATOM      1  N   UNL     1      -4.718   5.765 133.782  0.00  0.00    +0.000 N 
ATOM      2  C   UNL     1      -5.510   4.952 133.040  0.00  0.00    +0.000 A 
ATOM      3  C   UNL     1      -6.706   4.711 133.686  0.00  0.00    +0.000 A 
ATOM      4  C   UNL     1      -6.635   5.430 134.905  0.00  0.00    +0.000 A 
ATOM      5  C   UNL     1      -5.379   6.056 134.957  0.00  0.00    +0.000 A 
ATOM      6  C   UNL     1      -5.005   6.873 136.026  0.00  0.00    +0.000 A 
ATOM      7  C   UNL     1      -5.923   7.033 137.064  0.00  0.00    +0.000 A 
ATOM      8  C   UNL     1      -7.166   6.406 137.036  0.00  0.00    +0.000 A 
ATOM      9 CL   UNL     1      -8.262   6.625 138.344  0.00  0.00    +0.000 Cl
ATOM     10  C   UNL     1      -7.543   5.603 135.965  0.00  0.00    +0.000 A 
ENDROOT
BRANCH   1  15
ATOM     11  F   UNL     1       0.310   7.318 132.149  0.00  0.00    +0.000 F 
ATOM     12  C   UNL     1      -0.906   6.940 132.565  0.00  0.00    +0.000 A 
ATOM     13  C   UNL     1      -1.116   5.619 132.949  0.00  0.00    +0.000 A 
ATOM     14  C   UNL     1      -2.384   5.224 133.373  0.00  0.00    +0.000 A 
ATOM     15  C   UNL     1      -3.435   6.158 133.354  0.00  0.00    +0.000 A 
ATOM     16  C   UNL     1      -3.213   7.489 133.000  0.00  0.00    +0.000 A 
ATOM     17  C   UNL     1      -1.935   7.878 132.606  0.00  0.00    +0.000 A 
ENDBRANCH   1  15
BRANCH   3  18
ATOM     18  C   UNL     1      -7.860   3.874 133.188  0.00  0.00    +0.000 C 
ATOM     19  C   UNL     1      -7.744   3.592 131.686  0.00  0.00    +0.000 C 
ATOM     20  C   UNL     1      -7.932   4.863 130.874  0.00  0.00    +0.000 C 
ATOM     21  N   UNL     1      -9.189   5.542 131.234  0.00  0.00    +0.000 NA
ATOM     22  C   UNL     1      -9.364   5.811 132.670  0.00  0.00    +0.000 C 
ATOM     23  C   UNL     1      -9.186   4.561 133.508  0.00  0.00    +0.000 C 
BRANCH  21  24
ATOM     24  C   UNL     1      -9.273   6.786 130.475  0.00  0.00    +0.000 C 
BRANCH  24  25
ATOM     25  C   UNL     1     -10.110   6.645 129.208  0.00  0.00    +0.000 C 
BRANCH  25  26
ATOM     26  N   UNL     1     -11.213   7.560 129.149  0.00  0.00    +0.000 N 
ATOM     27  C   UNL     1     -12.255   7.691 130.143  0.00  0.00    +0.000 C 
ATOM     28  C   UNL     1     -12.755   9.090 129.848  0.00  0.00    +0.000 C 
ATOM     29  N   UNL     1     -12.507   9.218 128.435  0.00  0.00    +0.000 N 
ATOM     30  C   UNL     1     -11.451   8.397 128.072  0.00  0.00    +0.000 C 
ATOM     31  O   UNL     1     -10.847   8.433 127.009  0.00  0.00    +0.000 OA
ATOM     32  H   UNL     1     -12.793   9.975 127.831  0.00  0.00    +0.000 HD
ENDBRANCH  25  26
ENDBRANCH  24  25
ENDBRANCH  21  24
ENDBRANCH   3  18
TORSDOF 5
ENDMDL
MODEL 7
REMARK VINA RESULT:      -8.1      6.531      9.472
REMARK  Name = Sertindole
REMARK  5 active torsions:
REMARK  status: ('A' for Active; 'I' for Inactive)
REMARK    1  A    between atoms: C_5  and  N_8
REMARK    2  A    between atoms: C_10  and  C_11
REMARK    3  A    between atoms: N_14  and  C_15
REMARK    4  A    between atoms: C_15  and  C_16
REMARK    5  A    between atoms: C_16  and  N_17
REMARK                            x       y       z     vdW  Elec       q    Type
REMARK                         _______ _______ _______ _____ _____    ______ ____
ROOT
ATOM      1  N   UNL     1      -9.669   6.146 130.778  0.00  0.00    +0.000 N 
ATOM      2  C   UNL     1      -8.489   6.529 131.326  0.00  0.00    +0.000 A 
ATOM      3  C   UNL     1      -7.815   5.443 131.846  0.00  0.00    +0.000 A 
ATOM      4  C   UNL     1      -8.642   4.321 131.593  0.00  0.00    +0.000 A 
ATOM      5  C   UNL     1      -9.803   4.784 130.953  0.00  0.00    +0.000 A 
ATOM      6  C   UNL     1     -10.814   3.915 130.539  0.00  0.00    +0.000 A 
ATOM      7  C   UNL     1     -10.642   2.556 130.804  0.00  0.00    +0.000 A 
ATOM      8  C   UNL     1      -9.505   2.082 131.453  0.00  0.00    +0.000 A 
ATOM      9 CL   UNL     1      -9.341   0.399 131.767  0.00  0.00    +0.000 Cl
ATOM     10  C   UNL     1      -8.492   2.947 131.854  0.00  0.00    +0.000 A 
ENDROOT
BRANCH   1  15
ATOM     11  F   UNL     1     -13.155   9.712 128.437  0.00  0.00    +0.000 F 
ATOM     12  C   UNL     1     -12.319   8.829 128.999  0.00  0.00    +0.000 A 
ATOM     13  C   UNL     1     -12.701   8.174 130.165  0.00  0.00    +0.000 A 
ATOM     14  C   UNL     1     -11.827   7.263 130.755  0.00  0.00    +0.000 A 
ATOM     15  C   UNL     1     -10.557   7.065 130.187  0.00  0.00    +0.000 A 
ATOM     16  C   UNL     1     -10.189   7.700 129.000  0.00  0.00    +0.000 A 
ATOM     17  C   UNL     1     -11.084   8.587 128.404  0.00  0.00    +0.000 A 
ENDBRANCH   1  15
BRANCH   3  18
ATOM     18  C   UNL     1      -6.464   5.446 132.523  0.00  0.00    +0.000 C 
ATOM     19  C   UNL     1      -5.707   6.751 132.262  0.00  0.00    +0.000 C 
ATOM     20  C   UNL     1      -5.302   6.868 130.802  0.00  0.00    +0.000 C 
ATOM     21  N   UNL     1      -4.558   5.676 130.360  0.00  0.00    +0.000 NA
ATOM     22  C   UNL     1      -5.229   4.391 130.614  0.00  0.00    +0.000 C 
ATOM     23  C   UNL     1      -5.642   4.243 132.064  0.00  0.00    +0.000 C 
BRANCH  21  24
ATOM     24  C   UNL     1      -4.264   5.818 128.938  0.00  0.00    +0.000 C 
BRANCH  24  25
ATOM     25  C   UNL     1      -4.851   4.688 128.101  0.00  0.00    +0.000 C 
BRANCH  25  26
ATOM     26  N   UNL     1      -3.862   3.935 127.386  0.00  0.00    +0.000 N 
ATOM     27  C   UNL     1      -2.512   4.371 127.100  0.00  0.00    +0.000 C 
ATOM     28  C   UNL     1      -1.828   3.040 126.862  0.00  0.00    +0.000 C 
ATOM     29  N   UNL     1      -2.897   2.229 126.339  0.00  0.00    +0.000 N 
ATOM     30  C   UNL     1      -4.113   2.699 126.813  0.00  0.00    +0.000 C 
ATOM     31  O   UNL     1      -5.183   2.113 126.745  0.00  0.00    +0.000 OA
ATOM     32  H   UNL     1      -2.826   1.295 125.962  0.00  0.00    +0.000 HD
ENDBRANCH  25  26
ENDBRANCH  24  25
ENDBRANCH  21  24
ENDBRANCH   3  18
TORSDOF 5
ENDMDL
MODEL 8
REMARK VINA RESULT:      -8.1      7.937     10.310
REMARK  Name = Sertindole
REMARK  5 active torsions:
REMARK  status: ('A' for Active; 'I' for Inactive)
REMARK    1  A    between atoms: C_5  and  N_8
REMARK    2  A    between atoms: C_10  and  C_11
REMARK    3  A    between atoms: N_14  and  C_15
REMARK    4  A    between atoms: C_15  and  C_16
REMARK    5  A    between atoms: C_16  and  N_17
REMARK                            x       y       z     vdW  Elec       q    Type
REMARK                         _______ _______ _______ _____ _____    ______ ____
ROOT
ATOM      1  N   UNL     1      -5.064   5.266 131.962  0.00  0.00    +0.000 N 
ATOM      2  C   UNL     1      -5.998   4.305 131.755  0.00  0.00    +0.000 A 
ATOM      3  C   UNL     1      -6.618   3.962 132.940  0.00  0.00    +0.000 A 
ATOM      4  C   UNL     1      -6.019   4.774 133.935  0.00  0.00    +0.000 A 
ATOM      5  C   UNL     1      -5.035   5.557 133.310  0.00  0.00    +0.000 A 
ATOM      6  C   UNL     1      -4.279   6.493 134.017  0.00  0.00    +0.000 A 
ATOM      7  C   UNL     1      -4.518   6.612 135.386  0.00  0.00    +0.000 A 
ATOM      8  C   UNL     1      -5.477   5.830 136.024  0.00  0.00    +0.000 A 
ATOM      9 CL   UNL     1      -5.731   6.005 137.717  0.00  0.00    +0.000 Cl
ATOM     10  C   UNL     1      -6.241   4.907 135.317  0.00  0.00    +0.000 A 
ENDROOT
BRANCH   1  15
ATOM     11  F   UNL     1      -2.014   7.281 127.840  0.00  0.00    +0.000 F 
ATOM     12  C   UNL     1      -2.771   6.789 128.829  0.00  0.00    +0.000 A 
ATOM     13  C   UNL     1      -3.767   7.584 129.386  0.00  0.00    +0.000 A 
ATOM     14  C   UNL     1      -4.549   7.074 130.423  0.00  0.00    +0.000 A 
ATOM     15  C   UNL     1      -4.278   5.787 130.916  0.00  0.00    +0.000 A 
ATOM     16  C   UNL     1      -3.299   4.980 130.333  0.00  0.00    +0.000 A 
ATOM     17  C   UNL     1      -2.544   5.491 129.279  0.00  0.00    +0.000 A 
ENDBRANCH   1  15
BRANCH   3  18
ATOM     18  C   UNL     1      -7.721   2.948 133.133  0.00  0.00    +0.000 C 
ATOM     19  C   UNL     1      -8.088   2.258 131.815  0.00  0.00    +0.000 C 
ATOM     20  C   UNL     1      -8.748   3.231 130.851  0.00  0.00    +0.000 C 
ATOM     21  N   UNL     1      -9.895   3.906 131.483  0.00  0.00    +0.000 NA
ATOM     22  C   UNL     1      -9.605   4.562 132.768  0.00  0.00    +0.000 C 
ATOM     23  C   UNL     1      -8.947   3.616 133.753  0.00  0.00    +0.000 C 
BRANCH  21  24
ATOM     24  C   UNL     1     -10.438   4.874 130.535  0.00  0.00    +0.000 C 
BRANCH  24  25
ATOM     25  C   UNL     1     -10.395   6.302 131.066  0.00  0.00    +0.000 C 
BRANCH  25  26
ATOM     26  N   UNL     1     -11.136   7.231 130.262  0.00  0.00    +0.000 N 
ATOM     27  C   UNL     1     -10.614   7.985 129.143  0.00  0.00    +0.000 C 
ATOM     28  C   UNL     1     -11.892   8.311 128.399  0.00  0.00    +0.000 C 
ATOM     29  N   UNL     1     -12.863   8.376 129.460  0.00  0.00    +0.000 N 
ATOM     30  C   UNL     1     -12.455   7.573 130.515  0.00  0.00    +0.000 C 
ATOM     31  O   UNL     1     -13.144   7.231 131.464  0.00  0.00    +0.000 OA
ATOM     32  H   UNL     1     -13.827   8.668 129.389  0.00  0.00    +0.000 HD
ENDBRANCH  25  26
ENDBRANCH  24  25
ENDBRANCH  21  24
ENDBRANCH   3  18
TORSDOF 5
ENDMDL
MODEL 9
REMARK VINA RESULT:      -8.1      5.518      9.335
REMARK  Name = Sertindole
REMARK  5 active torsions:
REMARK  status: ('A' for Active; 'I' for Inactive)
REMARK    1  A    between atoms: C_5  and  N_8
REMARK    2  A    between atoms: C_10  and  C_11
REMARK    3  A    between atoms: N_14  and  C_15
REMARK    4  A    between atoms: C_15  and  C_16
REMARK    5  A    between atoms: C_16  and  N_17
REMARK                            x       y       z     vdW  Elec       q    Type
REMARK                         _______ _______ _______ _____ _____    ______ ____
ROOT
ATOM      1  N   UNL     1      -7.377  -2.464 129.282  0.00  0.00    +0.000 N 
ATOM      2  C   UNL     1      -7.927  -1.390 129.900  0.00  0.00    +0.000 A 
ATOM      3  C   UNL     1      -7.701  -1.439 131.260  0.00  0.00    +0.000 A 
ATOM      4  C   UNL     1      -6.960  -2.626 131.483  0.00  0.00    +0.000 A 
ATOM      5  C   UNL     1      -6.794  -3.263 130.243  0.00  0.00    +0.000 A 
ATOM      6  C   UNL     1      -6.074  -4.452 130.116  0.00  0.00    +0.000 A 
ATOM      7  C   UNL     1      -5.537  -5.007 131.277  0.00  0.00    +0.000 A 
ATOM      8  C   UNL     1      -5.708  -4.398 132.517  0.00  0.00    +0.000 A 
ATOM      9 CL   UNL     1      -5.035  -5.124 133.925  0.00  0.00    +0.000 Cl
ATOM     10  C   UNL     1      -6.413  -3.205 132.642  0.00  0.00    +0.000 A 
ENDROOT
BRANCH   1  15
ATOM     11  F   UNL     1      -7.728  -3.270 123.843  0.00  0.00    +0.000 F 
ATOM     12  C   UNL     1      -7.638  -3.094 125.168  0.00  0.00    +0.000 A 
ATOM     13  C   UNL     1      -8.663  -3.553 125.989  0.00  0.00    +0.000 A 
ATOM     14  C   UNL     1      -8.574  -3.361 127.367  0.00  0.00    +0.000 A 
ATOM     15  C   UNL     1      -7.474  -2.661 127.891  0.00  0.00    +0.000 A 
ATOM     16  C   UNL     1      -6.432  -2.230 127.068  0.00  0.00    +0.000 A 
ATOM     17  C   UNL     1      -6.520  -2.454 125.696  0.00  0.00    +0.000 A 
ENDBRANCH   1  15
BRANCH   3  18
ATOM     18  C   UNL     1      -8.134  -0.427 132.296  0.00  0.00    +0.000 C 
ATOM     19  C   UNL     1      -9.163   0.555 131.726  0.00  0.00    +0.000 C 
ATOM     20  C   UNL     1      -8.536   1.459 130.676  0.00  0.00    +0.000 C 
ATOM     21  N   UNL     1      -7.335   2.129 131.203  0.00  0.00    +0.000 NA
ATOM     22  C   UNL     1      -6.325   1.233 131.788  0.00  0.00    +0.000 C 
ATOM     23  C   UNL     1      -6.919   0.320 132.843  0.00  0.00    +0.000 C 
BRANCH  21  24
ATOM     24  C   UNL     1      -6.743   2.921 130.129  0.00  0.00    +0.000 C 
BRANCH  24  25
ATOM     25  C   UNL     1      -5.239   2.707 130.003  0.00  0.00    +0.000 C 
BRANCH  25  26
ATOM     26  N   UNL     1      -4.839   2.219 128.715  0.00  0.00    +0.000 N 
ATOM     27  C   UNL     1      -5.439   1.109 128.008  0.00  0.00    +0.000 C 
ATOM     28  C   UNL     1      -5.023   1.419 126.585  0.00  0.00    +0.000 C 
ATOM     29  N   UNL     1      -3.771   2.107 126.769  0.00  0.00    +0.000 N 
ATOM     30  C   UNL     1      -3.758   2.725 128.011  0.00  0.00    +0.000 C 
ATOM     31  O   UNL     1      -2.953   3.564 128.386  0.00  0.00    +0.000 OA
ATOM     32  H   UNL     1      -3.121   2.395 126.052  0.00  0.00    +0.000 HD
ENDBRANCH  25  26
ENDBRANCH  24  25
ENDBRANCH  21  24
ENDBRANCH   3  18
TORSDOF 5
ENDMDL
