MODEL 1
REMARK VINA RESULT:      -7.5      0.000      0.000
REMARK  Name = Sertraline
REMARK  3 active torsions:
REMARK  status: ('A' for Active; 'I' for Inactive)
REMARK    1  A    between atoms: C_1  and  N_2
REMARK    2  A    between atoms: N_2  and  C_3
REMARK    3  A    between atoms: C_6  and  C_7
REMARK                            x       y       z     vdW  Elec       q    Type
REMARK                         _______ _______ _______ _____ _____    ______ ____
ROOT
ATOM      1  C   UNL     1      -7.050  -1.700 123.060  0.00  0.00    +0.000 C 
ATOM      2  C   UNL     1      -7.873  -2.888 123.339  0.00  0.00    +0.000 C 
ATOM      3  C   UNL     1      -9.093  -3.152 124.111  0.00  0.00    +0.000 C 
ATOM      4  C   UNL     1      -9.145  -2.208 125.301  0.00  0.00    +0.000 C 
ATOM      5  C   UNL     1      -8.742  -0.816 124.875  0.00  0.00    +0.000 A 
ATOM      6  C   UNL     1      -9.513   0.218 125.465  0.00  0.00    +0.000 A 
ATOM      7  C   UNL     1      -9.341   1.514 125.111  0.00  0.00    +0.000 A 
ATOM      8  C   UNL     1      -8.367   1.831 124.149  0.00  0.00    +0.000 A 
ATOM      9  C   UNL     1      -7.547   0.809 123.585  0.00  0.00    +0.000 A 
ATOM     10  C   UNL     1      -7.677  -0.543 123.929  0.00  0.00    +0.000 A 
ENDROOT
BRANCH   4  11
ATOM     11  C   UNL     1      -8.393  -2.608 126.580  0.00  0.00    +0.000 A 
ATOM     12  C   UNL     1      -7.171  -2.014 126.978  0.00  0.00    +0.000 A 
ATOM     13  C   UNL     1      -6.543  -2.371 128.180  0.00  0.00    +0.000 A 
ATOM     14 CL   UNL     1      -5.035  -1.613 128.560  0.00  0.00    +0.000 Cl
ATOM     15  C   UNL     1      -7.143  -3.304 129.019  0.00  0.00    +0.000 A 
ATOM     16 CL   UNL     1      -6.439  -3.798 130.518  0.00  0.00    +0.000 Cl
ATOM     17  C   UNL     1      -8.372  -3.871 128.660  0.00  0.00    +0.000 A 
ATOM     18  C   UNL     1      -8.983  -3.529 127.449  0.00  0.00    +0.000 A 
ENDBRANCH   4  11
BRANCH   1  20
ATOM     19  C   UNL     1      -5.523  -3.714 124.129  0.00  0.00    +0.000 C 
ATOM     20  N   UNL     1      -5.633  -2.464 123.137  0.00  0.00    +0.000 NA
ATOM     21  H   UNL     1      -5.598  -2.966 122.239  0.00  0.00    +0.000 HD
ENDBRANCH   1  20
TORSDOF 2
ENDMDL
MODEL 2
REMARK VINA RESULT:      -7.4      2.924      5.277
REMARK  Name = Sertraline
REMARK  3 active torsions:
REMARK  status: ('A' for Active; 'I' for Inactive)
REMARK    1  A    between atoms: C_1  and  N_2
REMARK    2  A    between atoms: N_2  and  C_3
REMARK    3  A    between atoms: C_6  and  C_7
REMARK                            x       y       z     vdW  Elec       q    Type
REMARK                         _______ _______ _______ _____ _____    ______ ____
ROOT
ATOM      1  C   UNL     1      -8.654  -3.660 125.114  0.00  0.00    +0.000 C 
ATOM      2  C   UNL     1      -7.445  -3.343 124.337  0.00  0.00    +0.000 C 
ATOM      3  C   UNL     1      -6.114  -2.811 124.652  0.00  0.00    +0.000 C 
ATOM      4  C   UNL     1      -6.224  -1.857 125.829  0.00  0.00    +0.000 C 
ATOM      5  C   UNL     1      -7.132  -2.442 126.886  0.00  0.00    +0.000 A 
ATOM      6  C   UNL     1      -6.687  -2.232 128.216  0.00  0.00    +0.000 A 
ATOM      7  C   UNL     1      -7.337  -2.777 129.271  0.00  0.00    +0.000 A 
ATOM      8  C   UNL     1      -8.484  -3.553 129.033  0.00  0.00    +0.000 A 
ATOM      9  C   UNL     1      -8.976  -3.730 127.705  0.00  0.00    +0.000 A 
ATOM     10  C   UNL     1      -8.346  -3.175 126.584  0.00  0.00    +0.000 A 
ENDROOT
BRANCH   4  11
ATOM     11  C   UNL     1      -6.610  -0.397 125.549  0.00  0.00    +0.000 A 
ATOM     12  C   UNL     1      -7.912  -0.001 125.159  0.00  0.00    +0.000 A 
ATOM     13  C   UNL     1      -8.236   1.349 124.963  0.00  0.00    +0.000 A 
ATOM     14 CL   UNL     1      -9.846   1.728 124.452  0.00  0.00    +0.000 Cl
ATOM     15  C   UNL     1      -7.274   2.328 125.186  0.00  0.00    +0.000 A 
ATOM     16 CL   UNL     1      -7.591   4.013 124.970  0.00  0.00    +0.000 Cl
ATOM     17  C   UNL     1      -5.993   1.957 125.612  0.00  0.00    +0.000 A 
ATOM     18  C   UNL     1      -5.667   0.607 125.783  0.00  0.00    +0.000 A 
ENDBRANCH   4  11
BRANCH   1  20
ATOM     19  C   UNL     1      -9.118  -2.288 122.784  0.00  0.00    +0.000 C 
ATOM     20  N   UNL     1      -9.701  -3.144 124.003  0.00  0.00    +0.000 NA
ATOM     21  H   UNL     1      -9.936  -4.008 123.496  0.00  0.00    +0.000 HD
ENDBRANCH   1  20
TORSDOF 2
ENDMDL
MODEL 3
REMARK VINA RESULT:      -7.3      2.868      5.097
REMARK  Name = Sertraline
REMARK  3 active torsions:
REMARK  status: ('A' for Active; 'I' for Inactive)
REMARK    1  A    between atoms: C_1  and  N_2
REMARK    2  A    between atoms: N_2  and  C_3
REMARK    3  A    between atoms: C_6  and  C_7
REMARK                            x       y       z     vdW  Elec       q    Type
REMARK                         _______ _______ _______ _____ _____    ______ ____
ROOT
ATOM      1  C   UNL     1      -8.688  -3.524 125.024  0.00  0.00    +0.000 C 
ATOM      2  C   UNL     1      -7.456  -3.088 124.346  0.00  0.00    +0.000 C 
ATOM      3  C   UNL     1      -6.166  -2.542 124.782  0.00  0.00    +0.000 C 
ATOM      4  C   UNL     1      -6.372  -1.715 126.039  0.00  0.00    +0.000 C 
ATOM      5  C   UNL     1      -7.306  -2.435 126.984  0.00  0.00    +0.000 A 
ATOM      6  C   UNL     1      -6.935  -2.343 128.350  0.00  0.00    +0.000 A 
ATOM      7  C   UNL     1      -7.614  -3.014 129.311  0.00  0.00    +0.000 A 
ATOM      8  C   UNL     1      -8.714  -3.804 128.938  0.00  0.00    +0.000 A 
ATOM      9  C   UNL     1      -9.133  -3.865 127.575  0.00  0.00    +0.000 A 
ATOM     10  C   UNL     1      -8.473  -3.178 126.548  0.00  0.00    +0.000 A 
ENDROOT
BRANCH   4  11
ATOM     11  C   UNL     1      -6.804  -0.249 125.884  0.00  0.00    +0.000 A 
ATOM     12  C   UNL     1      -5.893   0.803 125.626  0.00  0.00    +0.000 A 
ATOM     13  C   UNL     1      -6.334   2.121 125.439  0.00  0.00    +0.000 A 
ATOM     14 CL   UNL     1      -5.139   3.342 125.164  0.00  0.00    +0.000 Cl
ATOM     15  C   UNL     1      -7.695   2.403 125.472  0.00  0.00    +0.000 A 
ATOM     16 CL   UNL     1      -8.323   3.997 125.249  0.00  0.00    +0.000 Cl
ATOM     17  C   UNL     1      -8.613   1.367 125.685  0.00  0.00    +0.000 A 
ATOM     18  C   UNL     1      -8.167   0.058 125.895  0.00  0.00    +0.000 A 
ENDBRANCH   4  11
BRANCH   1  20
ATOM     19  C   UNL     1      -9.149  -1.785 122.953  0.00  0.00    +0.000 C 
ATOM     20  N   UNL     1      -9.700  -2.937 123.915  0.00  0.00    +0.000 NA
ATOM     21  H   UNL     1      -9.755  -3.706 123.232  0.00  0.00    +0.000 HD
ENDBRANCH   1  20
TORSDOF 2
ENDMDL
MODEL 4
REMARK VINA RESULT:      -7.2      5.038      7.652
REMARK  Name = Sertraline
REMARK  3 active torsions:
REMARK  status: ('A' for Active; 'I' for Inactive)
REMARK    1  A    between atoms: C_1  and  N_2
REMARK    2  A    between atoms: N_2  and  C_3
REMARK    3  A    between atoms: C_6  and  C_7
REMARK                            x       y       z     vdW  Elec       q    Type
REMARK                         _______ _______ _______ _____ _____    ______ ____
ROOT
ATOM      1  C   UNL     1      -6.150   1.927 125.871  0.00  0.00    +0.000 C 
ATOM      2  C   UNL     1      -7.271   2.873 125.748  0.00  0.00    +0.000 C 
ATOM      3  C   UNL     1      -8.561   2.873 125.047  0.00  0.00    +0.000 C 
ATOM      4  C   UNL     1      -8.431   2.069 123.764  0.00  0.00    +0.000 C 
ATOM      5  C   UNL     1      -7.653   0.801 124.023  0.00  0.00    +0.000 A 
ATOM      6  C   UNL     1      -8.157  -0.339 123.348  0.00  0.00    +0.000 A 
ATOM      7  C   UNL     1      -7.630  -1.570 123.553  0.00  0.00    +0.000 A 
ATOM      8  C   UNL     1      -6.552  -1.706 124.445  0.00  0.00    +0.000 A 
ATOM      9  C   UNL     1      -5.998  -0.561 125.091  0.00  0.00    +0.000 A 
ATOM     10  C   UNL     1      -6.499   0.734 124.900  0.00  0.00    +0.000 A 
ENDROOT
BRANCH   4  11
ATOM     11  C   UNL     1      -7.887   2.778 122.513  0.00  0.00    +0.000 A 
ATOM     12  C   UNL     1      -8.714   3.225 121.455  0.00  0.00    +0.000 A 
ATOM     13  C   UNL     1      -8.184   3.914 120.356  0.00  0.00    +0.000 A 
ATOM     14 CL   UNL     1      -9.273   4.388 119.097  0.00  0.00    +0.000 Cl
ATOM     15  C   UNL     1      -6.823   4.197 120.312  0.00  0.00    +0.000 A 
ATOM     16 CL   UNL     1      -6.089   5.043 118.996  0.00  0.00    +0.000 Cl
ATOM     17  C   UNL     1      -5.997   3.798 121.369  0.00  0.00    +0.000 A 
ATOM     18  C   UNL     1      -6.527   3.090 122.453  0.00  0.00    +0.000 A 
ENDBRANCH   4  11
BRANCH   1  20
ATOM     19  C   UNL     1      -5.444   4.579 125.899  0.00  0.00    +0.000 C 
ATOM     20  N   UNL     1      -4.990   3.047 125.834  0.00  0.00    +0.000 NA
ATOM     21  H   UNL     1      -4.567   2.963 126.768  0.00  0.00    +0.000 HD
ENDBRANCH   1  20
TORSDOF 2
ENDMDL
MODEL 5
REMARK VINA RESULT:      -7.0      8.139     10.282
REMARK  Name = Sertraline
REMARK  3 active torsions:
REMARK  status: ('A' for Active; 'I' for Inactive)
REMARK    1  A    between atoms: C_1  and  N_2
REMARK    2  A    between atoms: N_2  and  C_3
REMARK    3  A    between atoms: C_6  and  C_7
REMARK                            x       y       z     vdW  Elec       q    Type
REMARK                         _______ _______ _______ _____ _____    ______ ____
ROOT
ATOM      1  C   UNL     1      -6.774   4.419 130.004  0.00  0.00    +0.000 C 
ATOM      2  C   UNL     1      -6.618   5.840 130.355  0.00  0.00    +0.000 C 
ATOM      3  C   UNL     1      -7.098   6.704 131.439  0.00  0.00    +0.000 C 
ATOM      4  C   UNL     1      -8.460   6.215 131.901  0.00  0.00    +0.000 C 
ATOM      5  C   UNL     1      -8.461   4.708 132.007  0.00  0.00    +0.000 A 
ATOM      6  C   UNL     1      -9.158   4.205 133.135  0.00  0.00    +0.000 A 
ATOM      7  C   UNL     1      -9.168   2.882 133.425  0.00  0.00    +0.000 A 
ATOM      8  C   UNL     1      -8.481   1.997 132.576  0.00  0.00    +0.000 A 
ATOM      9  C   UNL     1      -7.818   2.480 131.409  0.00  0.00    +0.000 A 
ATOM     10  C   UNL     1      -7.793   3.837 131.060  0.00  0.00    +0.000 A 
ENDROOT
BRANCH   4  11
ATOM     11  C   UNL     1      -9.703   6.691 131.133  0.00  0.00    +0.000 A 
ATOM     12  C   UNL     1      -9.637   7.318 129.866  0.00  0.00    +0.000 A 
ATOM     13  C   UNL     1     -10.799   7.692 129.175  0.00  0.00    +0.000 A 
ATOM     14 CL   UNL     1     -10.611   8.484 127.648  0.00  0.00    +0.000 Cl
ATOM     15  C   UNL     1     -12.046   7.414 129.725  0.00  0.00    +0.000 A 
ATOM     16 CL   UNL     1     -13.525   7.837 128.939  0.00  0.00    +0.000 Cl
ATOM     17  C   UNL     1     -12.130   6.757 130.958  0.00  0.00    +0.000 A 
ATOM     18  C   UNL     1     -10.968   6.408 131.655  0.00  0.00    +0.000 A 
ENDBRANCH   4  11
BRANCH   1  20
ATOM     19  C   UNL     1      -5.637   4.211 127.515  0.00  0.00    +0.000 C 
ATOM     20  N   UNL     1      -6.884   4.656 128.413  0.00  0.00    +0.000 NA
ATOM     21  H   UNL     1      -7.558   3.933 128.125  0.00  0.00    +0.000 HD
ENDBRANCH   1  20
TORSDOF 2
ENDMDL
MODEL 6
REMARK VINA RESULT:      -6.8      7.416      9.417
REMARK  Name = Sertraline
REMARK  3 active torsions:
REMARK  status: ('A' for Active; 'I' for Inactive)
REMARK    1  A    between atoms: C_1  and  N_2
REMARK    2  A    between atoms: N_2  and  C_3
REMARK    3  A    between atoms: C_6  and  C_7
REMARK                            x       y       z     vdW  Elec       q    Type
REMARK                         _______ _______ _______ _____ _____    ______ ____
ROOT
ATOM      1  C   UNL     1      -9.871   5.747 133.089  0.00  0.00    +0.000 C 
ATOM      2  C   UNL     1      -8.420   5.844 132.863  0.00  0.00    +0.000 C 
ATOM      3  C   UNL     1      -7.565   6.349 131.782  0.00  0.00    +0.000 C 
ATOM      4  C   UNL     1      -8.273   6.149 130.452  0.00  0.00    +0.000 C 
ATOM      5  C   UNL     1      -9.729   6.531 130.578  0.00  0.00    +0.000 A 
ATOM      6  C   UNL     1     -10.246   7.228 129.457  0.00  0.00    +0.000 A 
ATOM      7  C   UNL     1     -11.506   7.725 129.455  0.00  0.00    +0.000 A 
ATOM      8  C   UNL     1     -12.314   7.528 130.588  0.00  0.00    +0.000 A 
ATOM      9  C   UNL     1     -11.827   6.783 131.703  0.00  0.00    +0.000 A 
ATOM     10  C   UNL     1     -10.537   6.238 131.746  0.00  0.00    +0.000 A 
ENDROOT
BRANCH   4  11
ATOM     11  C   UNL     1      -8.142   4.785 129.757  0.00  0.00    +0.000 A 
ATOM     12  C   UNL     1      -7.026   4.422 128.966  0.00  0.00    +0.000 A 
ATOM     13  C   UNL     1      -6.921   3.148 128.391  0.00  0.00    +0.000 A 
ATOM     14 CL   UNL     1      -5.534   2.814 127.412  0.00  0.00    +0.000 Cl
ATOM     15  C   UNL     1      -7.915   2.204 128.625  0.00  0.00    +0.000 A 
ATOM     16 CL   UNL     1      -7.863   0.611 127.957  0.00  0.00    +0.000 Cl
ATOM     17  C   UNL     1      -9.006   2.532 129.439  0.00  0.00    +0.000 A 
ATOM     18  C   UNL     1      -9.118   3.812 129.991  0.00  0.00    +0.000 A 
ENDBRANCH   4  11
BRANCH   1  20
ATOM     19  C   UNL     1      -8.451   3.492 133.744  0.00  0.00    +0.000 C 
ATOM     20  N   UNL     1      -9.826   4.306 133.810  0.00  0.00    +0.000 NA
ATOM     21  H   UNL     1      -9.820   4.554 134.809  0.00  0.00    +0.000 HD
ENDBRANCH   1  20
TORSDOF 2
ENDMDL
MODEL 7
REMARK VINA RESULT:      -6.7      2.801      5.451
REMARK  Name = Sertraline
REMARK  3 active torsions:
REMARK  status: ('A' for Active; 'I' for Inactive)
REMARK    1  A    between atoms: C_1  and  N_2
REMARK    2  A    between atoms: N_2  and  C_3
REMARK    3  A    between atoms: C_6  and  C_7
REMARK                            x       y       z     vdW  Elec       q    Type
REMARK                         _______ _______ _______ _____ _____    ______ ____
ROOT
ATOM      1  C   UNL     1      -6.907  -2.260 126.683  0.00  0.00    +0.000 C 
ATOM      2  C   UNL     1      -8.240  -1.635 126.661  0.00  0.00    +0.000 C 
ATOM      3  C   UNL     1      -9.100  -1.051 125.625  0.00  0.00    +0.000 C 
ATOM      4  C   UNL     1      -8.229  -0.426 124.548  0.00  0.00    +0.000 C 
ATOM      5  C   UNL     1      -7.075  -1.343 124.218  0.00  0.00    +0.000 A 
ATOM      6  C   UNL     1      -6.762  -1.411 122.837  0.00  0.00    +0.000 A 
ATOM      7  C   UNL     1      -5.817  -2.261 122.369  0.00  0.00    +0.000 A 
ATOM      8  C   UNL     1      -5.129  -3.078 123.282  0.00  0.00    +0.000 A 
ATOM      9  C   UNL     1      -5.394  -2.985 124.681  0.00  0.00    +0.000 A 
ATOM     10  C   UNL     1      -6.351  -2.110 125.214  0.00  0.00    +0.000 A 
ENDROOT
BRANCH   4  11
ATOM     11  C   UNL     1      -7.722   1.008 124.765  0.00  0.00    +0.000 A 
ATOM     12  C   UNL     1      -6.433   1.305 125.270  0.00  0.00    +0.000 A 
ATOM     13  C   UNL     1      -5.989   2.628 125.404  0.00  0.00    +0.000 A 
ATOM     14 CL   UNL     1      -4.411   2.888 126.065  0.00  0.00    +0.000 Cl
ATOM     15  C   UNL     1      -6.813   3.675 125.004  0.00  0.00    +0.000 A 
ATOM     16 CL   UNL     1      -6.342   5.332 125.133  0.00  0.00    +0.000 Cl
ATOM     17  C   UNL     1      -8.075   3.397 124.464  0.00  0.00    +0.000 A 
ATOM     18  C   UNL     1      -8.522   2.076 124.354  0.00  0.00    +0.000 A 
ENDBRANCH   4  11
BRANCH   1  20
ATOM     19  C   UNL     1      -7.420  -1.799 129.338  0.00  0.00    +0.000 C 
ATOM     20  N   UNL     1      -6.447  -1.609 128.084  0.00  0.00    +0.000 NA
ATOM     21  H   UNL     1      -5.680  -2.230 128.378  0.00  0.00    +0.000 HD
ENDBRANCH   1  20
TORSDOF 2
ENDMDL
MODEL 8
REMARK VINA RESULT:      -6.7      2.291      4.098
REMARK  Name = Sertraline
REMARK  3 active torsions:
REMARK  status: ('A' for Active; 'I' for Inactive)
REMARK    1  A    between atoms: C_1  and  N_2
REMARK    2  A    between atoms: N_2  and  C_3
REMARK    3  A    between atoms: C_6  and  C_7
REMARK                            x       y       z     vdW  Elec       q    Type
REMARK                         _______ _______ _______ _____ _____    ______ ____
ROOT
ATOM      1  C   UNL     1      -7.510   1.248 124.926  0.00  0.00    +0.000 C 
ATOM      2  C   UNL     1      -6.454   1.682 125.856  0.00  0.00    +0.000 C 
ATOM      3  C   UNL     1      -5.170   1.130 126.303  0.00  0.00    +0.000 C 
ATOM      4  C   UNL     1      -5.250  -0.387 126.299  0.00  0.00    +0.000 C 
ATOM      5  C   UNL     1      -5.942  -0.865 125.044  0.00  0.00    +0.000 A 
ATOM      6  C   UNL     1      -5.365  -2.025 124.468  0.00  0.00    +0.000 A 
ATOM      7  C   UNL     1      -5.809  -2.522 123.289  0.00  0.00    +0.000 A 
ATOM      8  C   UNL     1      -6.873  -1.874 122.638  0.00  0.00    +0.000 A 
ATOM      9  C   UNL     1      -7.499  -0.737 123.230  0.00  0.00    +0.000 A 
ATOM     10  C   UNL     1      -7.085  -0.196 124.454  0.00  0.00    +0.000 A 
ENDROOT
BRANCH   4  11
ATOM     11  C   UNL     1      -5.843  -1.087 127.531  0.00  0.00    +0.000 A 
ATOM     12  C   UNL     1      -6.940  -1.979 127.461  0.00  0.00    +0.000 A 
ATOM     13  C   UNL     1      -7.418  -2.638 128.602  0.00  0.00    +0.000 A 
ATOM     14 CL   UNL     1      -8.787  -3.682 128.419  0.00  0.00    +0.000 Cl
ATOM     15  C   UNL     1      -6.787  -2.443 129.826  0.00  0.00    +0.000 A 
ATOM     16 CL   UNL     1      -7.310  -3.218 131.279  0.00  0.00    +0.000 Cl
ATOM     17  C   UNL     1      -5.675  -1.596 129.905  0.00  0.00    +0.000 A 
ATOM     18  C   UNL     1      -5.215  -0.922 128.768  0.00  0.00    +0.000 A 
ENDBRANCH   4  11
BRANCH   1  20
ATOM     19  C   UNL     1      -8.704   1.442 127.389  0.00  0.00    +0.000 C 
ATOM     20  N   UNL     1      -8.742   1.772 125.825  0.00  0.00    +0.000 NA
ATOM     21  H   UNL     1      -8.571   2.787 125.870  0.00  0.00    +0.000 HD
ENDBRANCH   1  20
TORSDOF 2
ENDMDL
MODEL 9
REMARK VINA RESULT:      -6.7      3.670      6.029
REMARK  Name = Sertraline
REMARK  3 active torsions:
REMARK  status: ('A' for Active; 'I' for Inactive)
REMARK    1  A    between atoms: C_1  and  N_2
REMARK    2  A    between atoms: N_2  and  C_3
REMARK    3  A    between atoms: C_6  and  C_7
REMARK                            x       y       z     vdW  Elec       q    Type
REMARK                         _______ _______ _______ _____ _____    ______ ____
ROOT
ATOM      1  C   UNL     1      -5.960  -0.639 126.453  0.00  0.00    +0.000 C 
ATOM      2  C   UNL     1      -6.928   0.312 127.022  0.00  0.00    +0.000 C 
ATOM      3  C   UNL     1      -8.379   0.509 126.919  0.00  0.00    +0.000 C 
ATOM      4  C   UNL     1      -8.844   0.078 125.538  0.00  0.00    +0.000 C 
ATOM      5  C   UNL     1      -8.174  -1.218 125.148  0.00  0.00    +0.000 A 
ATOM      6  C   UNL     1      -9.024  -2.133 124.476  0.00  0.00    +0.000 A 
ATOM      7  C   UNL     1      -8.601  -3.377 124.146  0.00  0.00    +0.000 A 
ATOM      8  C   UNL     1      -7.287  -3.754 124.469  0.00  0.00    +0.000 A 
ATOM      9  C   UNL     1      -6.402  -2.828 125.098  0.00  0.00    +0.000 A 
ATOM     10  C   UNL     1      -6.788  -1.526 125.444  0.00  0.00    +0.000 A 
ENDROOT
BRANCH   4  11
ATOM     11  C   UNL     1      -8.746   1.092 124.388  0.00  0.00    +0.000 A 
ATOM     12  C   UNL     1      -7.608   1.904 124.167  0.00  0.00    +0.000 A 
ATOM     13  C   UNL     1      -7.537   2.780 123.074  0.00  0.00    +0.000 A 
ATOM     14 CL   UNL     1      -6.117   3.756 122.911  0.00  0.00    +0.000 Cl
ATOM     15  C   UNL     1      -8.590   2.834 122.167  0.00  0.00    +0.000 A 
ATOM     16 CL   UNL     1      -8.582   3.883 120.794  0.00  0.00    +0.000 Cl
ATOM     17  C   UNL     1      -9.705   2.008 122.348  0.00  0.00    +0.000 A 
ATOM     18  C   UNL     1      -9.781   1.153 123.453  0.00  0.00    +0.000 A 
ENDBRANCH   4  11
BRANCH   1  20
ATOM     19  C   UNL     1      -4.897   1.826 127.020  0.00  0.00    +0.000 C 
ATOM     20  N   UNL     1      -4.785   0.442 126.228  0.00  0.00    +0.000 NA
ATOM     21  H   UNL     1      -3.995   0.025 126.740  0.00  0.00    +0.000 HD
ENDBRANCH   1  20
TORSDOF 2
ENDMDL
