MODEL 1
REMARK VINA RESULT:      -8.3      0.000      0.000
REMARK  Name = Sertaconazole
REMARK  6 active torsions:
REMARK  status: ('A' for Active; 'I' for Inactive)
REMARK    1  A    between atoms: C_6  and  C_9
REMARK    2  A    between atoms: C_9  and  C_10
REMARK    3  A    between atoms: C_9  and  O_16
REMARK    4  A    between atoms: C_10  and  N_11
REMARK    5  A    between atoms: O_16  and  C_17
REMARK    6  A    between atoms: C_17  and  C_18
REMARK                            x       y       z     vdW  Elec       q    Type
REMARK                         _______ _______ _______ _____ _____    ______ ____
ROOT
ATOM      1  C   UNL     1      -7.687  -0.371 125.508  0.00  0.00    +0.000 C 
ENDROOT
BRANCH   1   7
ATOM      2 CL   UNL     1      -4.481  -5.168 123.556  0.00  0.00    +0.000 Cl
ATOM      3  C   UNL     1      -5.436  -3.817 124.030  0.00  0.00    +0.000 A 
ATOM      4  C   UNL     1      -6.746  -4.001 124.438  0.00  0.00    +0.000 A 
ATOM      5  C   UNL     1      -7.550  -2.869 124.657  0.00  0.00    +0.000 A 
ATOM      6 CL   UNL     1      -9.264  -3.130 124.598  0.00  0.00    +0.000 Cl
ATOM      7  C   UNL     1      -6.987  -1.575 124.810  0.00  0.00    +0.000 A 
ATOM      8  C   UNL     1      -5.671  -1.431 124.360  0.00  0.00    +0.000 A 
ATOM      9  C   UNL     1      -4.925  -2.530 123.917  0.00  0.00    +0.000 A 
ENDBRANCH   1   7
BRANCH   1  10
ATOM     10  C   UNL     1      -8.748   0.301 124.530  0.00  0.00    +0.000 C 
BRANCH  10  11
ATOM     11  N   UNL     1      -8.393   1.461 123.713  0.00  0.00    +0.000 N 
ATOM     12  C   UNL     1      -9.234   2.269 122.984  0.00  0.00    +0.000 A 
ATOM     13  C   UNL     1      -8.402   3.013 122.174  0.00  0.00    +0.000 A 
ATOM     14  N   UNL     1      -7.105   2.887 122.587  0.00  0.00    +0.000 NA
ATOM     15  C   UNL     1      -7.136   1.989 123.550  0.00  0.00    +0.000 A 
ENDBRANCH  10  11
ENDBRANCH   1  10
BRANCH   1  16
ATOM     16  O   UNL     1      -8.393  -0.856 126.832  0.00  0.00    +0.000 OA
BRANCH  16  17
ATOM     17  C   UNL     1      -7.492  -1.227 127.947  0.00  0.00    +0.000 C 
BRANCH  17  18
ATOM     18  C   UNL     1      -7.032  -2.788 128.682  0.00  0.00    +0.000 A 
ATOM     19  C   UNL     1      -8.226  -3.311 129.190  0.00  0.00    +0.000 A 
ATOM     20  S   UNL     1      -7.627  -2.731 130.985  0.00  0.00    +0.000 S 
ATOM     21  C   UNL     1      -5.618  -2.535 130.268  0.00  0.00    +0.000 A 
ATOM     22  C   UNL     1      -6.087  -3.688 129.657  0.00  0.00    +0.000 A 
ATOM     23  C   UNL     1      -5.824  -4.930 130.652  0.00  0.00    +0.000 A 
ATOM     24  C   UNL     1      -4.910  -4.685 131.715  0.00  0.00    +0.000 A 
ATOM     25  C   UNL     1      -3.880  -3.846 131.492  0.00  0.00    +0.000 A 
ATOM     26  C   UNL     1      -4.302  -2.678 130.871  0.00  0.00    +0.000 A 
ATOM     27 CL   UNL     1      -3.027  -1.569 130.516  0.00  0.00    +0.000 Cl
ENDBRANCH  17  18
ENDBRANCH  16  17
ENDBRANCH   1  16
TORSDOF 6
ENDMDL
MODEL 2
REMARK VINA RESULT:      -8.2      2.193      2.878
REMARK  Name = Sertaconazole
REMARK  6 active torsions:
REMARK  status: ('A' for Active; 'I' for Inactive)
REMARK    1  A    between atoms: C_6  and  C_9
REMARK    2  A    between atoms: C_9  and  C_10
REMARK    3  A    between atoms: C_9  and  O_16
REMARK    4  A    between atoms: C_10  and  N_11
REMARK    5  A    between atoms: O_16  and  C_17
REMARK    6  A    between atoms: C_17  and  C_18
REMARK                            x       y       z     vdW  Elec       q    Type
REMARK                         _______ _______ _______ _____ _____    ______ ____
ROOT
ATOM      1  C   UNL     1      -6.293   1.307 124.612  0.00  0.00    +0.000 C 
ENDROOT
BRANCH   1   7
ATOM      2 CL   UNL     1      -9.667  -3.623 123.427  0.00  0.00    +0.000 Cl
ATOM      3  C   UNL     1      -8.782  -2.179 123.726  0.00  0.00    +0.000 A 
ATOM      4  C   UNL     1      -9.163  -1.329 124.749  0.00  0.00    +0.000 A 
ATOM      5  C   UNL     1      -8.528  -0.080 124.863  0.00  0.00    +0.000 A 
ATOM      6 CL   UNL     1      -9.393   1.137 125.746  0.00  0.00    +0.000 Cl
ATOM      7  C   UNL     1      -7.302   0.193 124.202  0.00  0.00    +0.000 A 
ATOM      8  C   UNL     1      -6.971  -0.676 123.158  0.00  0.00    +0.000 A 
ATOM      9  C   UNL     1      -7.737  -1.816 122.884  0.00  0.00    +0.000 A 
ENDBRANCH   1   7
BRANCH   1  10
ATOM     10  C   UNL     1      -6.860   2.743 124.225  0.00  0.00    +0.000 C 
BRANCH  10  11
ATOM     11  N   UNL     1      -6.287   3.508 123.117  0.00  0.00    +0.000 N 
ATOM     12  C   UNL     1      -6.634   3.456 121.788  0.00  0.00    +0.000 A 
ATOM     13  C   UNL     1      -5.625   4.126 121.129  0.00  0.00    +0.000 A 
ATOM     14  N   UNL     1      -4.850   4.810 122.022  0.00  0.00    +0.000 NA
ATOM     15  C   UNL     1      -5.306   4.464 123.208  0.00  0.00    +0.000 A 
ENDBRANCH  10  11
ENDBRANCH   1  10
BRANCH   1  16
ATOM     16  O   UNL     1      -6.010   1.230 126.160  0.00  0.00    +0.000 OA
BRANCH  16  17
ATOM     17  C   UNL     1      -5.613  -0.099 126.680  0.00  0.00    +0.000 C 
BRANCH  17  18
ATOM     18  C   UNL     1      -6.468  -1.347 127.630  0.00  0.00    +0.000 A 
ATOM     19  C   UNL     1      -7.485  -0.657 128.296  0.00  0.00    +0.000 A 
ATOM     20  S   UNL     1      -6.366  -0.735 129.927  0.00  0.00    +0.000 S 
ATOM     21  C   UNL     1      -5.175  -2.288 129.053  0.00  0.00    +0.000 A 
ATOM     22  C   UNL     1      -6.473  -2.598 128.673  0.00  0.00    +0.000 A 
ATOM     23  C   UNL     1      -7.141  -3.490 129.839  0.00  0.00    +0.000 A 
ATOM     24  C   UNL     1      -6.234  -4.050 130.783  0.00  0.00    +0.000 A 
ATOM     25  C   UNL     1      -5.009  -4.411 130.356  0.00  0.00    +0.000 A 
ATOM     26  C   UNL     1      -4.427  -3.417 129.581  0.00  0.00    +0.000 A 
ATOM     27 CL   UNL     1      -2.868  -3.829 128.962  0.00  0.00    +0.000 Cl
ENDBRANCH  17  18
ENDBRANCH  16  17
ENDBRANCH   1  16
TORSDOF 6
ENDMDL
MODEL 3
REMARK VINA RESULT:      -8.2      3.328      7.168
REMARK  Name = Sertaconazole
REMARK  6 active torsions:
REMARK  status: ('A' for Active; 'I' for Inactive)
REMARK    1  A    between atoms: C_6  and  C_9
REMARK    2  A    between atoms: C_9  and  C_10
REMARK    3  A    between atoms: C_9  and  O_16
REMARK    4  A    between atoms: C_10  and  N_11
REMARK    5  A    between atoms: O_16  and  C_17
REMARK    6  A    between atoms: C_17  and  C_18
REMARK                            x       y       z     vdW  Elec       q    Type
REMARK                         _______ _______ _______ _____ _____    ______ ____
ROOT
ATOM      1  C   UNL     1      -7.862  -0.751 127.703  0.00  0.00    +0.000 C 
ENDROOT
BRANCH   1   7
ATOM      2 CL   UNL     1      -4.729  -3.519 123.274  0.00  0.00    +0.000 Cl
ATOM      3  C   UNL     1      -5.671  -2.705 124.461  0.00  0.00    +0.000 A 
ATOM      4  C   UNL     1      -6.918  -3.192 124.813  0.00  0.00    +0.000 A 
ATOM      5  C   UNL     1      -7.732  -2.418 125.658  0.00  0.00    +0.000 A 
ATOM      6 CL   UNL     1      -9.431  -2.766 125.605  0.00  0.00    +0.000 Cl
ATOM      7  C   UNL     1      -7.203  -1.347 126.424  0.00  0.00    +0.000 A 
ATOM      8  C   UNL     1      -5.954  -0.871 126.015  0.00  0.00    +0.000 A 
ATOM      9  C   UNL     1      -5.224  -1.506 125.003  0.00  0.00    +0.000 A 
ENDBRANCH   1   7
BRANCH   1  10
ATOM     10  C   UNL     1      -6.841  -0.783 128.924  0.00  0.00    +0.000 C 
BRANCH  10  11
ATOM     11  N   UNL     1      -6.363  -2.051 129.476  0.00  0.00    +0.000 N 
ATOM     12  C   UNL     1      -5.074  -2.391 129.815  0.00  0.00    +0.000 A 
ATOM     13  C   UNL     1      -5.102  -3.757 130.000  0.00  0.00    +0.000 A 
ATOM     14  N   UNL     1      -6.394  -4.198 130.064  0.00  0.00    +0.000 NA
ATOM     15  C   UNL     1      -7.132  -3.140 129.799  0.00  0.00    +0.000 A 
ENDBRANCH  10  11
ENDBRANCH   1  10
BRANCH   1  16
ATOM     16  O   UNL     1      -8.334   0.726 127.424  0.00  0.00    +0.000 OA
BRANCH  16  17
ATOM     17  C   UNL     1      -9.297   0.898 126.312  0.00  0.00    +0.000 C 
BRANCH  17  18
ATOM     18  C   UNL     1      -9.241   1.802 124.773  0.00  0.00    +0.000 A 
ATOM     19  C   UNL     1      -9.835   0.951 123.835  0.00  0.00    +0.000 A 
ATOM     20  S   UNL     1      -8.014   0.512 123.195  0.00  0.00    +0.000 S 
ATOM     21  C   UNL     1      -7.232   2.246 124.182  0.00  0.00    +0.000 A 
ATOM     22  C   UNL     1      -8.441   2.671 123.651  0.00  0.00    +0.000 A 
ATOM     23  C   UNL     1      -8.181   3.168 122.139  0.00  0.00    +0.000 A 
ATOM     24  C   UNL     1      -6.821   3.401 121.792  0.00  0.00    +0.000 A 
ATOM     25  C   UNL     1      -5.988   3.863 122.743  0.00  0.00    +0.000 A 
ATOM     26  C   UNL     1      -6.123   3.150 123.927  0.00  0.00    +0.000 A 
ATOM     27 CL   UNL     1      -5.113   3.716 125.209  0.00  0.00    +0.000 Cl
ENDBRANCH  17  18
ENDBRANCH  16  17
ENDBRANCH   1  16
TORSDOF 6
ENDMDL
MODEL 4
REMARK VINA RESULT:      -8.1      9.192     11.118
REMARK  Name = Sertaconazole
REMARK  6 active torsions:
REMARK  status: ('A' for Active; 'I' for Inactive)
REMARK    1  A    between atoms: C_6  and  C_9
REMARK    2  A    between atoms: C_9  and  C_10
REMARK    3  A    between atoms: C_9  and  O_16
REMARK    4  A    between atoms: C_10  and  N_11
REMARK    5  A    between atoms: O_16  and  C_17
REMARK    6  A    between atoms: C_17  and  C_18
REMARK                            x       y       z     vdW  Elec       q    Type
REMARK                         _______ _______ _______ _____ _____    ______ ____
ROOT
ATOM      1  C   UNL     1      -8.990   6.656 130.819  0.00  0.00    +0.000 C 
ENDROOT
BRANCH   1   7
ATOM      2 CL   UNL     1     -13.868   8.155 127.495  0.00  0.00    +0.000 Cl
ATOM      3  C   UNL     1     -12.515   7.796 128.495  0.00  0.00    +0.000 A 
ATOM      4  C   UNL     1     -12.692   7.112 129.685  0.00  0.00    +0.000 A 
ATOM      5  C   UNL     1     -11.598   6.980 130.559  0.00  0.00    +0.000 A 
ATOM      6 CL   UNL     1     -11.985   6.649 132.217  0.00  0.00    +0.000 Cl
ATOM      7  C   UNL     1     -10.268   7.211 130.123  0.00  0.00    +0.000 A 
ATOM      8  C   UNL     1     -10.138   7.929 128.930  0.00  0.00    +0.000 A 
ATOM      9  C   UNL     1     -11.254   8.271 128.156  0.00  0.00    +0.000 A 
ENDBRANCH   1   7
BRANCH   1  10
ATOM     10  C   UNL     1      -8.814   5.105 130.508  0.00  0.00    +0.000 C 
BRANCH  10  11
ATOM     11  N   UNL     1      -8.824   4.113 131.583  0.00  0.00    +0.000 N 
ATOM     12  C   UNL     1      -8.417   2.801 131.524  0.00  0.00    +0.000 A 
ATOM     13  C   UNL     1      -8.897   2.226 132.682  0.00  0.00    +0.000 A 
ATOM     14  N   UNL     1      -9.321   3.193 133.549  0.00  0.00    +0.000 NA
ATOM     15  C   UNL     1      -9.215   4.324 132.882  0.00  0.00    +0.000 A 
ENDBRANCH  10  11
ENDBRANCH   1  10
BRANCH   1  16
ATOM     16  O   UNL     1      -7.723   7.459 130.332  0.00  0.00    +0.000 OA
BRANCH  16  17
ATOM     17  C   UNL     1      -6.464   7.186 131.062  0.00  0.00    +0.000 C 
BRANCH  17  18
ATOM     18  C   UNL     1      -4.780   6.906 130.537  0.00  0.00    +0.000 A 
ATOM     19  C   UNL     1      -4.773   5.599 130.038  0.00  0.00    +0.000 A 
ATOM     20  S   UNL     1      -3.927   5.037 131.737  0.00  0.00    +0.000 S 
ATOM     21  C   UNL     1      -3.401   7.070 132.166  0.00  0.00    +0.000 A 
ATOM     22  C   UNL     1      -3.174   6.938 130.804  0.00  0.00    +0.000 A 
ATOM     23  C   UNL     1      -1.674   6.384 130.593  0.00  0.00    +0.000 A 
ATOM     24  C   UNL     1      -0.818   6.476 131.726  0.00  0.00    +0.000 A 
ATOM     25  C   UNL     1      -0.977   7.518 132.565  0.00  0.00    +0.000 A 
ATOM     26  C   UNL     1      -2.314   7.711 132.887  0.00  0.00    +0.000 A 
ATOM     27 CL   UNL     1      -2.600   9.059 133.928  0.00  0.00    +0.000 Cl
ENDBRANCH  17  18
ENDBRANCH  16  17
ENDBRANCH   1  16
TORSDOF 6
ENDMDL
MODEL 5
REMARK VINA RESULT:      -8.1      3.716      7.570
REMARK  Name = Sertaconazole
REMARK  6 active torsions:
REMARK  status: ('A' for Active; 'I' for Inactive)
REMARK    1  A    between atoms: C_6  and  C_9
REMARK    2  A    between atoms: C_9  and  C_10
REMARK    3  A    between atoms: C_9  and  O_16
REMARK    4  A    between atoms: C_10  and  N_11
REMARK    5  A    between atoms: O_16  and  C_17
REMARK    6  A    between atoms: C_17  and  C_18
REMARK                            x       y       z     vdW  Elec       q    Type
REMARK                         _______ _______ _______ _____ _____    ______ ____
ROOT
ATOM      1  C   UNL     1      -7.148  -0.520 128.217  0.00  0.00    +0.000 C 
ENDROOT
BRANCH   1   7
ATOM      2 CL   UNL     1      -9.637  -3.607 123.594  0.00  0.00    +0.000 Cl
ATOM      3  C   UNL     1      -9.013  -2.746 124.947  0.00  0.00    +0.000 A 
ATOM      4  C   UNL     1      -8.659  -3.425 126.100  0.00  0.00    +0.000 A 
ATOM      5  C   UNL     1      -8.312  -2.682 127.242  0.00  0.00    +0.000 A 
ATOM      6 CL   UNL     1      -8.440  -3.514 128.758  0.00  0.00    +0.000 Cl
ATOM      7  C   UNL     1      -7.981  -1.304 127.160  0.00  0.00    +0.000 A 
ATOM      8  C   UNL     1      -8.382  -0.655 125.989  0.00  0.00    +0.000 A 
ATOM      9  C   UNL     1      -8.948  -1.358 124.918  0.00  0.00    +0.000 A 
ENDBRANCH   1   7
BRANCH   1  10
ATOM     10  C   UNL     1      -5.591  -0.765 127.994  0.00  0.00    +0.000 C 
BRANCH  10  11
ATOM     11  N   UNL     1      -4.819  -1.599 128.915  0.00  0.00    +0.000 N 
ATOM     12  C   UNL     1      -4.129  -1.201 130.037  0.00  0.00    +0.000 A 
ATOM     13  C   UNL     1      -3.344  -2.283 130.376  0.00  0.00    +0.000 A 
ATOM     14  N   UNL     1      -3.743  -3.391 129.683  0.00  0.00    +0.000 NA
ATOM     15  C   UNL     1      -4.669  -2.961 128.851  0.00  0.00    +0.000 A 
ENDBRANCH  10  11
ENDBRANCH   1  10
BRANCH   1  16
ATOM     16  O   UNL     1      -7.479   1.018 128.126  0.00  0.00    +0.000 OA
BRANCH  16  17
ATOM     17  C   UNL     1      -6.494   1.850 127.397  0.00  0.00    +0.000 C 
BRANCH  17  18
ATOM     18  C   UNL     1      -6.153   2.106 125.662  0.00  0.00    +0.000 A 
ATOM     19  C   UNL     1      -5.196   3.126 125.632  0.00  0.00    +0.000 A 
ATOM     20  S   UNL     1      -6.651   4.372 125.133  0.00  0.00    +0.000 S 
ATOM     21  C   UNL     1      -7.901   2.719 124.590  0.00  0.00    +0.000 A 
ATOM     22  C   UNL     1      -6.643   2.361 124.130  0.00  0.00    +0.000 A 
ATOM     23  C   UNL     1      -6.456   2.966 122.646  0.00  0.00    +0.000 A 
ATOM     24  C   UNL     1      -7.649   3.400 122.003  0.00  0.00    +0.000 A 
ATOM     25  C   UNL     1      -8.792   2.734 122.257  0.00  0.00    +0.000 A 
ATOM     26  C   UNL     1      -8.965   2.523 123.618  0.00  0.00    +0.000 A 
ATOM     27 CL   UNL     1     -10.391   1.635 124.017  0.00  0.00    +0.000 Cl
ENDBRANCH  17  18
ENDBRANCH  16  17
ENDBRANCH   1  16
TORSDOF 6
ENDMDL
MODEL 6
REMARK VINA RESULT:      -8.1      7.707     10.306
REMARK  Name = Sertaconazole
REMARK  6 active torsions:
REMARK  status: ('A' for Active; 'I' for Inactive)
REMARK    1  A    between atoms: C_6  and  C_9
REMARK    2  A    between atoms: C_9  and  C_10
REMARK    3  A    between atoms: C_9  and  O_16
REMARK    4  A    between atoms: C_10  and  N_11
REMARK    5  A    between atoms: O_16  and  C_17
REMARK    6  A    between atoms: C_17  and  C_18
REMARK                            x       y       z     vdW  Elec       q    Type
REMARK                         _______ _______ _______ _____ _____    ______ ____
ROOT
ATOM      1  C   UNL     1      -6.380   5.101 130.500  0.00  0.00    +0.000 C 
ENDROOT
BRANCH   1   7
ATOM      2 CL   UNL     1      -9.013  -0.227 131.830  0.00  0.00    +0.000 Cl
ATOM      3  C   UNL     1      -8.341   1.320 131.494  0.00  0.00    +0.000 A 
ATOM      4  C   UNL     1      -7.790   2.075 132.515  0.00  0.00    +0.000 A 
ATOM      5  C   UNL     1      -7.402   3.399 132.243  0.00  0.00    +0.000 A 
ATOM      6 CL   UNL     1      -7.270   4.450 133.616  0.00  0.00    +0.000 Cl
ATOM      7  C   UNL     1      -7.234   3.866 130.913  0.00  0.00    +0.000 A 
ATOM      8  C   UNL     1      -7.830   3.085 129.918  0.00  0.00    +0.000 A 
ATOM      9  C   UNL     1      -8.430   1.855 130.215  0.00  0.00    +0.000 A 
ENDBRANCH   1   7
BRANCH   1  10
ATOM     10  C   UNL     1      -5.358   4.711 129.344  0.00  0.00    +0.000 C 
BRANCH  10  11
ATOM     11  N   UNL     1      -4.138   5.488 129.121  0.00  0.00    +0.000 N 
ATOM     12  C   UNL     1      -3.725   6.096 127.959  0.00  0.00    +0.000 A 
ATOM     13  C   UNL     1      -2.407   6.432 128.180  0.00  0.00    +0.000 A 
ATOM     14  N   UNL     1      -2.104   6.309 129.507  0.00  0.00    +0.000 NA
ATOM     15  C   UNL     1      -3.182   5.790 130.059  0.00  0.00    +0.000 A 
ENDBRANCH  10  11
ENDBRANCH   1  10
BRANCH   1  16
ATOM     16  O   UNL     1      -7.324   6.270 130.025  0.00  0.00    +0.000 OA
BRANCH  16  17
ATOM     17  C   UNL     1      -8.278   6.783 131.035  0.00  0.00    +0.000 C 
BRANCH  17  18
ATOM     18  C   UNL     1     -10.044   7.046 131.029  0.00  0.00    +0.000 A 
ATOM     19  C   UNL     1     -10.552   6.095 131.920  0.00  0.00    +0.000 A 
ATOM     20  S   UNL     1     -11.096   5.023 130.347  0.00  0.00    +0.000 S 
ATOM     21  C   UNL     1     -10.887   6.742 129.084  0.00  0.00    +0.000 A 
ATOM     22  C   UNL     1     -11.460   7.239 130.246  0.00  0.00    +0.000 A 
ATOM     23  C   UNL     1     -13.061   7.094 130.122  0.00  0.00    +0.000 A 
ATOM     24  C   UNL     1     -13.558   6.845 128.811  0.00  0.00    +0.000 A 
ATOM     25  C   UNL     1     -12.906   7.391 127.766  0.00  0.00    +0.000 A 
ATOM     26  C   UNL     1     -11.535   7.195 127.864  0.00  0.00    +0.000 A 
ATOM     27 CL   UNL     1     -10.628   7.905 126.578  0.00  0.00    +0.000 Cl
ENDBRANCH  17  18
ENDBRANCH  16  17
ENDBRANCH   1  16
TORSDOF 6
ENDMDL
MODEL 7
REMARK VINA RESULT:      -8.0      3.301      6.388
REMARK  Name = Sertaconazole
REMARK  6 active torsions:
REMARK  status: ('A' for Active; 'I' for Inactive)
REMARK    1  A    between atoms: C_6  and  C_9
REMARK    2  A    between atoms: C_9  and  C_10
REMARK    3  A    between atoms: C_9  and  O_16
REMARK    4  A    between atoms: C_10  and  N_11
REMARK    5  A    between atoms: O_16  and  C_17
REMARK    6  A    between atoms: C_17  and  C_18
REMARK                            x       y       z     vdW  Elec       q    Type
REMARK                         _______ _______ _______ _____ _____    ______ ____
ROOT
ATOM      1  C   UNL     1      -8.758  -1.153 126.214  0.00  0.00    +0.000 C 
ENDROOT
BRANCH   1   7
ATOM      2 CL   UNL     1      -4.272  -4.251 123.499  0.00  0.00    +0.000 Cl
ATOM      3  C   UNL     1      -5.569  -3.351 124.182  0.00  0.00    +0.000 A 
ATOM      4  C   UNL     1      -6.865  -3.833 124.108  0.00  0.00    +0.000 A 
ATOM      5  C   UNL     1      -7.920  -3.002 124.524  0.00  0.00    +0.000 A 
ATOM      6 CL   UNL     1      -9.489  -3.394 123.898  0.00  0.00    +0.000 Cl
ATOM      7  C   UNL     1      -7.689  -1.851 125.321  0.00  0.00    +0.000 A 
ATOM      8  C   UNL     1      -6.371  -1.385 125.345  0.00  0.00    +0.000 A 
ATOM      9  C   UNL     1      -5.333  -2.096 124.730  0.00  0.00    +0.000 A 
ENDBRANCH   1   7
BRANCH   1  10
ATOM     10  C   UNL     1      -8.062  -0.154 127.240  0.00  0.00    +0.000 C 
BRANCH  10  11
ATOM     11  N   UNL     1      -7.818  -0.547 128.628  0.00  0.00    +0.000 N 
ATOM     12  C   UNL     1      -7.601  -1.812 129.120  0.00  0.00    +0.000 A 
ATOM     13  C   UNL     1      -7.721  -1.688 130.488  0.00  0.00    +0.000 A 
ATOM     14  N   UNL     1      -7.718  -0.369 130.845  0.00  0.00    +0.000 NA
ATOM     15  C   UNL     1      -7.720   0.295 129.708  0.00  0.00    +0.000 A 
ENDBRANCH  10  11
ENDBRANCH   1  10
BRANCH   1  16
ATOM     16  O   UNL     1      -9.788  -0.376 125.308  0.00  0.00    +0.000 OA
BRANCH  16  17
ATOM     17  C   UNL     1      -9.204   0.547 124.309  0.00  0.00    +0.000 C 
BRANCH  17  18
ATOM     18  C   UNL     1      -8.536   2.201 124.413  0.00  0.00    +0.000 A 
ATOM     19  C   UNL     1      -8.734   2.748 123.141  0.00  0.00    +0.000 A 
ATOM     20  S   UNL     1      -6.816   2.413 122.783  0.00  0.00    +0.000 S 
ATOM     21  C   UNL     1      -6.448   2.188 124.882  0.00  0.00    +0.000 A 
ATOM     22  C   UNL     1      -7.346   3.242 124.804  0.00  0.00    +0.000 A 
ATOM     23  C   UNL     1      -6.509   4.605 124.599  0.00  0.00    +0.000 A 
ATOM     24  C   UNL     1      -5.116   4.521 124.881  0.00  0.00    +0.000 A 
ATOM     25  C   UNL     1      -4.711   3.691 125.861  0.00  0.00    +0.000 A 
ATOM     26  C   UNL     1      -5.310   2.443 125.750  0.00  0.00    +0.000 A 
ATOM     27 CL   UNL     1      -4.869   1.336 126.999  0.00  0.00    +0.000 Cl
ENDBRANCH  17  18
ENDBRANCH  16  17
ENDBRANCH   1  16
TORSDOF 6
ENDMDL
MODEL 8
REMARK VINA RESULT:      -8.0      4.437      7.060
REMARK  Name = Sertaconazole
REMARK  6 active torsions:
REMARK  status: ('A' for Active; 'I' for Inactive)
REMARK    1  A    between atoms: C_6  and  C_9
REMARK    2  A    between atoms: C_9  and  C_10
REMARK    3  A    between atoms: C_9  and  O_16
REMARK    4  A    between atoms: C_10  and  N_11
REMARK    5  A    between atoms: O_16  and  C_17
REMARK    6  A    between atoms: C_17  and  C_18
REMARK                            x       y       z     vdW  Elec       q    Type
REMARK                         _______ _______ _______ _____ _____    ______ ____
ROOT
ATOM      1  C   UNL     1      -5.390   3.373 125.429  0.00  0.00    +0.000 C 
ENDROOT
BRANCH   1   7
ATOM      2 CL   UNL     1      -6.909   3.889 119.554  0.00  0.00    +0.000 Cl
ATOM      3  C   UNL     1      -6.541   3.810 121.233  0.00  0.00    +0.000 A 
ATOM      4  C   UNL     1      -7.439   3.234 122.115  0.00  0.00    +0.000 A 
ATOM      5  C   UNL     1      -7.189   3.333 123.495  0.00  0.00    +0.000 A 
ATOM      6 CL   UNL     1      -8.562   3.128 124.534  0.00  0.00    +0.000 Cl
ATOM      7  C   UNL     1      -5.908   3.687 123.994  0.00  0.00    +0.000 A 
ATOM      8  C   UNL     1      -5.045   4.289 123.074  0.00  0.00    +0.000 A 
ATOM      9  C   UNL     1      -5.383   4.404 121.720  0.00  0.00    +0.000 A 
ENDBRANCH   1   7
BRANCH   1  10
ATOM     10  C   UNL     1      -5.377   4.693 126.319  0.00  0.00    +0.000 C 
BRANCH  10  11
ATOM     11  N   UNL     1      -4.389   4.878 127.382  0.00  0.00    +0.000 N 
ATOM     12  C   UNL     1      -3.705   6.026 127.707  0.00  0.00    +0.000 A 
ATOM     13  C   UNL     1      -2.701   5.614 128.558  0.00  0.00    +0.000 A 
ATOM     14  N   UNL     1      -2.929   4.332 128.972  0.00  0.00    +0.000 NA
ATOM     15  C   UNL     1      -3.982   3.933 128.290  0.00  0.00    +0.000 A 
ENDBRANCH  10  11
ENDBRANCH   1  10
BRANCH   1  16
ATOM     16  O   UNL     1      -6.298   2.271 126.098  0.00  0.00    +0.000 OA
BRANCH  16  17
ATOM     17  C   UNL     1      -5.802   0.879 126.002  0.00  0.00    +0.000 C 
BRANCH  17  18
ATOM     18  C   UNL     1      -6.612  -0.712 125.999  0.00  0.00    +0.000 A 
ATOM     19  C   UNL     1      -5.580  -1.641 126.165  0.00  0.00    +0.000 A 
ATOM     20  S   UNL     1      -5.701  -2.009 124.224  0.00  0.00    +0.000 S 
ATOM     21  C   UNL     1      -7.632  -1.082 124.154  0.00  0.00    +0.000 A 
ATOM     22  C   UNL     1      -7.638  -1.795 125.344  0.00  0.00    +0.000 A 
ATOM     23  C   UNL     1      -8.127  -3.299 125.029  0.00  0.00    +0.000 A 
ATOM     24  C   UNL     1      -8.756  -3.492 123.767  0.00  0.00    +0.000 A 
ATOM     25  C   UNL     1      -9.494  -2.486 123.260  0.00  0.00    +0.000 A 
ATOM     26  C   UNL     1      -8.825  -1.272 123.344  0.00  0.00    +0.000 A 
ATOM     27 CL   UNL     1      -9.729   0.074 122.750  0.00  0.00    +0.000 Cl
ENDBRANCH  17  18
ENDBRANCH  16  17
ENDBRANCH   1  16
TORSDOF 6
ENDMDL
MODEL 9
REMARK VINA RESULT:      -8.0      7.275      9.997
REMARK  Name = Sertaconazole
REMARK  6 active torsions:
REMARK  status: ('A' for Active; 'I' for Inactive)
REMARK    1  A    between atoms: C_6  and  C_9
REMARK    2  A    between atoms: C_9  and  C_10
REMARK    3  A    between atoms: C_9  and  O_16
REMARK    4  A    between atoms: C_10  and  N_11
REMARK    5  A    between atoms: O_16  and  C_17
REMARK    6  A    between atoms: C_17  and  C_18
REMARK                            x       y       z     vdW  Elec       q    Type
REMARK                         _______ _______ _______ _____ _____    ______ ____
ROOT
ATOM      1  C   UNL     1      -7.055   3.826 129.591  0.00  0.00    +0.000 C 
ENDROOT
BRANCH   1   7
ATOM      2 CL   UNL     1      -1.641   3.004 126.926  0.00  0.00    +0.000 Cl
ATOM      3  C   UNL     1      -3.134   3.202 127.756  0.00  0.00    +0.000 A 
ATOM      4  C   UNL     1      -3.280   4.209 128.694  0.00  0.00    +0.000 A 
ATOM      5  C   UNL     1      -4.449   4.243 129.475  0.00  0.00    +0.000 A 
ATOM      6 CL   UNL     1      -4.343   5.120 130.967  0.00  0.00    +0.000 Cl
ATOM      7  C   UNL     1      -5.608   3.511 129.108  0.00  0.00    +0.000 A 
ATOM      8  C   UNL     1      -5.408   2.487 128.178  0.00  0.00    +0.000 A 
ATOM      9  C   UNL     1      -4.168   2.296 127.555  0.00  0.00    +0.000 A 
ENDBRANCH   1   7
BRANCH   1  10
ATOM     10  C   UNL     1      -7.245   3.386 131.109  0.00  0.00    +0.000 C 
BRANCH  10  11
ATOM     11  N   UNL     1      -8.052   2.217 131.460  0.00  0.00    +0.000 N 
ATOM     12  C   UNL     1      -7.707   0.890 131.351  0.00  0.00    +0.000 A 
ATOM     13  C   UNL     1      -8.888   0.199 131.523  0.00  0.00    +0.000 A 
ATOM     14  N   UNL     1      -9.857   1.033 132.005  0.00  0.00    +0.000 NA
ATOM     15  C   UNL     1      -9.310   2.230 132.010  0.00  0.00    +0.000 A 
ENDBRANCH  10  11
ENDBRANCH   1  10
BRANCH   1  16
ATOM     16  O   UNL     1      -7.351   5.366 129.427  0.00  0.00    +0.000 OA
BRANCH  16  17
ATOM     17  C   UNL     1      -7.994   6.028 130.585  0.00  0.00    +0.000 C 
BRANCH  17  18
ATOM     18  C   UNL     1      -9.590   6.793 130.827  0.00  0.00    +0.000 A 
ATOM     19  C   UNL     1     -10.182   6.065 131.864  0.00  0.00    +0.000 A 
ATOM     20  S   UNL     1     -11.267   5.138 130.492  0.00  0.00    +0.000 S 
ATOM     21  C   UNL     1     -10.805   6.673 129.069  0.00  0.00    +0.000 A 
ATOM     22  C   UNL     1     -11.007   7.359 130.258  0.00  0.00    +0.000 A 
ATOM     23  C   UNL     1     -12.582   7.680 130.395  0.00  0.00    +0.000 A 
ATOM     24  C   UNL     1     -13.346   7.537 129.202  0.00  0.00    +0.000 A 
ATOM     25  C   UNL     1     -12.757   7.829 128.027  0.00  0.00    +0.000 A 
ATOM     26  C   UNL     1     -11.501   7.248 127.929  0.00  0.00    +0.000 A 
ATOM     27 CL   UNL     1     -10.666   7.615 126.462  0.00  0.00    +0.000 Cl
ENDBRANCH  17  18
ENDBRANCH  16  17
ENDBRANCH   1  16
TORSDOF 6
ENDMDL
