MODEL 1
REMARK VINA RESULT:      -5.1      0.000      0.000
REMARK  Name = Sevoflurane
REMARK  4 active torsions:
REMARK  status: ('A' for Active; 'I' for Inactive)
REMARK    1  A    between atoms: C_2  and  O_3
REMARK    2  A    between atoms: O_3  and  C_4
REMARK    3  A    between atoms: C_4  and  C_5
REMARK    4  A    between atoms: C_4  and  C_9
REMARK                            x       y       z     vdW  Elec       q    Type
REMARK                         _______ _______ _______ _____ _____    ______ ____
ROOT
ATOM      1  C   UNL     1     -11.956   8.288 129.544  0.00  0.00    +0.000 C 
ENDROOT
BRANCH   1   2
ATOM      2  C   UNL     1     -12.606   6.959 129.871  0.00  0.00    +0.000 C 
ATOM      3  F   UNL     1     -13.274   6.434 128.828  0.00  0.00    +0.000 F 
ATOM      4  F   UNL     1     -11.719   6.042 130.310  0.00  0.00    +0.000 F 
ATOM      5  F   UNL     1     -13.503   7.117 130.879  0.00  0.00    +0.000 F 
ENDBRANCH   1   2
BRANCH   1   6
ATOM      6  C   UNL     1     -10.627   7.943 128.901  0.00  0.00    +0.000 C 
ATOM      7  F   UNL     1     -10.688   6.844 128.125  0.00  0.00    +0.000 F 
ATOM      8  F   UNL     1     -10.195   8.967 128.123  0.00  0.00    +0.000 F 
ATOM      9  F   UNL     1      -9.661   7.743 129.826  0.00  0.00    +0.000 F 
ENDBRANCH   1   6
BRANCH   1  10
ATOM     10  O   UNL     1     -12.737   9.135 128.663  0.00  0.00    +0.000 OA
BRANCH  10  12
ATOM     11  F   UNL     1     -13.107  10.074 130.644  0.00  0.00    +0.000 F 
ATOM     12  C   UNL     1     -13.355  10.230 129.320  0.00  0.00    +0.000 C 
ENDBRANCH  10  12
ENDBRANCH   1  10
TORSDOF 4
ENDMDL
MODEL 2
REMARK VINA RESULT:      -5.0      1.735      3.922
REMARK  Name = Sevoflurane
REMARK  4 active torsions:
REMARK  status: ('A' for Active; 'I' for Inactive)
REMARK    1  A    between atoms: C_2  and  O_3
REMARK    2  A    between atoms: O_3  and  C_4
REMARK    3  A    between atoms: C_4  and  C_5
REMARK    4  A    between atoms: C_4  and  C_9
REMARK                            x       y       z     vdW  Elec       q    Type
REMARK                         _______ _______ _______ _____ _____    ______ ____
ROOT
ATOM      1  C   UNL     1     -11.395   7.210 129.285  0.00  0.00    +0.000 C 
ENDROOT
BRANCH   1   2
ATOM      2  C   UNL     1     -10.873   7.773 127.979  0.00  0.00    +0.000 C 
ATOM      3  F   UNL     1     -11.855   8.084 127.114  0.00  0.00    +0.000 F 
ATOM      4  F   UNL     1     -10.104   8.868 128.157  0.00  0.00    +0.000 F 
ATOM      5  F   UNL     1     -10.076   6.859 127.366  0.00  0.00    +0.000 F 
ENDBRANCH   1   2
BRANCH   1   6
ATOM      6  C   UNL     1     -12.638   8.015 129.607  0.00  0.00    +0.000 C 
ATOM      7  F   UNL     1     -13.712   7.633 128.891  0.00  0.00    +0.000 F 
ATOM      8  F   UNL     1     -12.959   7.890 130.919  0.00  0.00    +0.000 F 
ATOM      9  F   UNL     1     -12.449   9.337 129.392  0.00  0.00    +0.000 F 
ENDBRANCH   1   6
BRANCH   1  10
ATOM     10  O   UNL     1     -11.708   5.794 129.243  0.00  0.00    +0.000 OA
BRANCH  10  12
ATOM     11  F   UNL     1     -11.633   3.785 130.190  0.00  0.00    +0.000 F 
ATOM     12  C   UNL     1     -11.227   5.067 130.361  0.00  0.00    +0.000 C 
ENDBRANCH  10  12
ENDBRANCH   1  10
TORSDOF 4
ENDMDL
MODEL 3
REMARK VINA RESULT:      -5.0      1.725      3.720
REMARK  Name = Sevoflurane
REMARK  4 active torsions:
REMARK  status: ('A' for Active; 'I' for Inactive)
REMARK    1  A    between atoms: C_2  and  O_3
REMARK    2  A    between atoms: O_3  and  C_4
REMARK    3  A    between atoms: C_4  and  C_5
REMARK    4  A    between atoms: C_4  and  C_9
REMARK                            x       y       z     vdW  Elec       q    Type
REMARK                         _______ _______ _______ _____ _____    ______ ____
ROOT
ATOM      1  C   UNL     1     -11.307   7.665 129.648  0.00  0.00    +0.000 C 
ENDROOT
BRANCH   1   2
ATOM      2  C   UNL     1     -11.631   8.256 128.292  0.00  0.00    +0.000 C 
ATOM      3  F   UNL     1     -12.094   7.342 127.420  0.00  0.00    +0.000 F 
ATOM      4  F   UNL     1     -12.528   9.262 128.366  0.00  0.00    +0.000 F 
ATOM      5  F   UNL     1     -10.512   8.799 127.744  0.00  0.00    +0.000 F 
ENDBRANCH   1   2
BRANCH   1   6
ATOM      6  C   UNL     1     -12.627   7.600 130.390  0.00  0.00    +0.000 C 
ATOM      7  F   UNL     1     -13.631   7.114 129.636  0.00  0.00    +0.000 F 
ATOM      8  F   UNL     1     -12.519   6.807 131.485  0.00  0.00    +0.000 F 
ATOM      9  F   UNL     1     -13.005   8.816 130.846  0.00  0.00    +0.000 F 
ENDBRANCH   1   6
BRANCH   1  10
ATOM     10  O   UNL     1     -10.693   6.351 129.597  0.00  0.00    +0.000 OA
BRANCH  10  12
ATOM     11  F   UNL     1      -9.196   7.338 130.911  0.00  0.00    +0.000 F 
ATOM     12  C   UNL     1      -9.336   6.336 130.008  0.00  0.00    +0.000 C 
ENDBRANCH  10  12
ENDBRANCH   1  10
TORSDOF 4
ENDMDL
MODEL 4
REMARK VINA RESULT:      -4.9      1.767      2.980
REMARK  Name = Sevoflurane
REMARK  4 active torsions:
REMARK  status: ('A' for Active; 'I' for Inactive)
REMARK    1  A    between atoms: C_2  and  O_3
REMARK    2  A    between atoms: O_3  and  C_4
REMARK    3  A    between atoms: C_4  and  C_5
REMARK    4  A    between atoms: C_4  and  C_9
REMARK                            x       y       z     vdW  Elec       q    Type
REMARK                         _______ _______ _______ _____ _____    ______ ____
ROOT
ATOM      1  C   UNL     1     -11.402   7.298 129.097  0.00  0.00    +0.000 C 
ENDROOT
BRANCH   1   2
ATOM      2  C   UNL     1     -12.613   7.346 130.005  0.00  0.00    +0.000 C 
ATOM      3  F   UNL     1     -12.753   8.531 130.627  0.00  0.00    +0.000 F 
ATOM      4  F   UNL     1     -13.762   7.074 129.351  0.00  0.00    +0.000 F 
ATOM      5  F   UNL     1     -12.506   6.398 130.972  0.00  0.00    +0.000 F 
ENDBRANCH   1   2
BRANCH   1   6
ATOM      6  C   UNL     1     -11.800   8.054 127.845  0.00  0.00    +0.000 C 
ATOM      7  F   UNL     1     -12.581   9.121 128.102  0.00  0.00    +0.000 F 
ATOM      8  F   UNL     1     -10.701   8.502 127.190  0.00  0.00    +0.000 F 
ATOM      9  F   UNL     1     -12.460   7.261 126.971  0.00  0.00    +0.000 F 
ENDBRANCH   1   6
BRANCH   1  10
ATOM     10  O   UNL     1     -10.200   7.873 129.672  0.00  0.00    +0.000 OA
BRANCH  10  12
ATOM     11  F   UNL     1      -9.624   6.852 131.561  0.00  0.00    +0.000 F 
ATOM     12  C   UNL     1      -9.322   6.915 130.240  0.00  0.00    +0.000 C 
ENDBRANCH  10  12
ENDBRANCH   1  10
TORSDOF 4
ENDMDL
MODEL 5
REMARK VINA RESULT:      -4.9      1.650      3.702
REMARK  Name = Sevoflurane
REMARK  4 active torsions:
REMARK  status: ('A' for Active; 'I' for Inactive)
REMARK    1  A    between atoms: C_2  and  O_3
REMARK    2  A    between atoms: O_3  and  C_4
REMARK    3  A    between atoms: C_4  and  C_5
REMARK    4  A    between atoms: C_4  and  C_9
REMARK                            x       y       z     vdW  Elec       q    Type
REMARK                         _______ _______ _______ _____ _____    ______ ____
ROOT
ATOM      1  C   UNL     1     -11.438   7.387 129.213  0.00  0.00    +0.000 C 
ENDROOT
BRANCH   1   2
ATOM      2  C   UNL     1     -10.820   7.841 127.906  0.00  0.00    +0.000 C 
ATOM      3  F   UNL     1     -10.056   6.894 127.333  0.00  0.00    +0.000 F 
ATOM      4  F   UNL     1     -11.745   8.240 127.008  0.00  0.00    +0.000 F 
ATOM      5  F   UNL     1     -10.025   8.921 128.121  0.00  0.00    +0.000 F 
ENDBRANCH   1   2
BRANCH   1   6
ATOM      6  C   UNL     1     -12.627   8.298 129.441  0.00  0.00    +0.000 C 
ATOM      7  F   UNL     1     -13.001   8.362 130.733  0.00  0.00    +0.000 F 
ATOM      8  F   UNL     1     -12.344   9.561 129.036  0.00  0.00    +0.000 F 
ATOM      9  F   UNL     1     -13.702   7.906 128.720  0.00  0.00    +0.000 F 
ENDBRANCH   1   6
BRANCH   1  10
ATOM     10  O   UNL     1     -11.857   5.998 129.226  0.00  0.00    +0.000 OA
BRANCH  10  12
ATOM     11  F   UNL     1     -11.868   5.757 131.435  0.00  0.00    +0.000 F 
ATOM     12  C   UNL     1     -11.322   5.247 130.304  0.00  0.00    +0.000 C 
ENDBRANCH  10  12
ENDBRANCH   1  10
TORSDOF 4
ENDMDL
MODEL 6
REMARK VINA RESULT:      -4.9      1.616      2.769
REMARK  Name = Sevoflurane
REMARK  4 active torsions:
REMARK  status: ('A' for Active; 'I' for Inactive)
REMARK    1  A    between atoms: C_2  and  O_3
REMARK    2  A    between atoms: O_3  and  C_4
REMARK    3  A    between atoms: C_4  and  C_5
REMARK    4  A    between atoms: C_4  and  C_9
REMARK                            x       y       z     vdW  Elec       q    Type
REMARK                         _______ _______ _______ _____ _____    ______ ____
ROOT
ATOM      1  C   UNL     1     -11.292   7.345 129.538  0.00  0.00    +0.000 C 
ENDROOT
BRANCH   1   2
ATOM      2  C   UNL     1     -12.648   7.794 130.043  0.00  0.00    +0.000 C 
ATOM      3  F   UNL     1     -13.651   7.006 129.615  0.00  0.00    +0.000 F 
ATOM      4  F   UNL     1     -12.705   7.858 131.389  0.00  0.00    +0.000 F 
ATOM      5  F   UNL     1     -12.913   9.052 129.603  0.00  0.00    +0.000 F 
ENDBRANCH   1   2
BRANCH   1   6
ATOM      6  C   UNL     1     -10.836   6.267 130.501  0.00  0.00    +0.000 C 
ATOM      7  F   UNL     1     -11.842   5.478 130.921  0.00  0.00    +0.000 F 
ATOM      8  F   UNL     1      -9.909   5.467 129.915  0.00  0.00    +0.000 F 
ATOM      9  F   UNL     1     -10.238   6.792 131.594  0.00  0.00    +0.000 F 
ENDBRANCH   1   6
BRANCH   1  10
ATOM     10  O   UNL     1     -11.297   6.838 128.179  0.00  0.00    +0.000 OA
BRANCH  10  12
ATOM     11  F   UNL     1     -10.290   8.800 127.904  0.00  0.00    +0.000 F 
ATOM     12  C   UNL     1     -10.854   7.778 127.214  0.00  0.00    +0.000 C 
ENDBRANCH  10  12
ENDBRANCH   1  10
TORSDOF 4
ENDMDL
MODEL 7
REMARK VINA RESULT:      -4.8      1.788      2.995
REMARK  Name = Sevoflurane
REMARK  4 active torsions:
REMARK  status: ('A' for Active; 'I' for Inactive)
REMARK    1  A    between atoms: C_2  and  O_3
REMARK    2  A    between atoms: O_3  and  C_4
REMARK    3  A    between atoms: C_4  and  C_5
REMARK    4  A    between atoms: C_4  and  C_9
REMARK                            x       y       z     vdW  Elec       q    Type
REMARK                         _______ _______ _______ _____ _____    ______ ____
ROOT
ATOM      1  C   UNL     1     -12.803   7.285 129.022  0.00  0.00    +0.000 C 
ENDROOT
BRANCH   1   2
ATOM      2  C   UNL     1     -12.337   6.825 130.388  0.00  0.00    +0.000 C 
ATOM      3  F   UNL     1     -13.206   7.132 131.368  0.00  0.00    +0.000 F 
ATOM      4  F   UNL     1     -12.099   5.497 130.434  0.00  0.00    +0.000 F 
ATOM      5  F   UNL     1     -11.156   7.421 130.701  0.00  0.00    +0.000 F 
ENDBRANCH   1   2
BRANCH   1   6
ATOM      6  C   UNL     1     -12.631   8.791 129.019  0.00  0.00    +0.000 C 
ATOM      7  F   UNL     1     -11.422   9.181 128.575  0.00  0.00    +0.000 F 
ATOM      8  F   UNL     1     -13.564   9.375 128.227  0.00  0.00    +0.000 F 
ATOM      9  F   UNL     1     -12.806   9.317 130.253  0.00  0.00    +0.000 F 
ENDBRANCH   1   6
BRANCH   1  10
ATOM     10  O   UNL     1     -12.080   6.693 127.913  0.00  0.00    +0.000 OA
BRANCH  10  12
ATOM     11  F   UNL     1     -11.715   7.447 125.854  0.00  0.00    +0.000 F 
ATOM     12  C   UNL     1     -12.681   6.923 126.649  0.00  0.00    +0.000 C 
ENDBRANCH  10  12
ENDBRANCH   1  10
TORSDOF 4
ENDMDL
MODEL 8
REMARK VINA RESULT:      -4.7      1.251      2.954
REMARK  Name = Sevoflurane
REMARK  4 active torsions:
REMARK  status: ('A' for Active; 'I' for Inactive)
REMARK    1  A    between atoms: C_2  and  O_3
REMARK    2  A    between atoms: O_3  and  C_4
REMARK    3  A    between atoms: C_4  and  C_5
REMARK    4  A    between atoms: C_4  and  C_9
REMARK                            x       y       z     vdW  Elec       q    Type
REMARK                         _______ _______ _______ _____ _____    ______ ____
ROOT
ATOM      1  C   UNL     1     -11.915   7.689 129.171  0.00  0.00    +0.000 C 
ENDROOT
BRANCH   1   2
ATOM      2  C   UNL     1     -10.481   7.710 128.683  0.00  0.00    +0.000 C 
ATOM      3  F   UNL     1      -9.617   8.143 129.619  0.00  0.00    +0.000 F 
ATOM      4  F   UNL     1     -10.064   6.502 128.248  0.00  0.00    +0.000 F 
ATOM      5  F   UNL     1     -10.366   8.544 127.617  0.00  0.00    +0.000 F 
ENDBRANCH   1   2
BRANCH   1   6
ATOM      6  C   UNL     1     -11.951   6.667 130.289  0.00  0.00    +0.000 C 
ATOM      7  F   UNL     1     -11.965   5.397 129.840  0.00  0.00    +0.000 F 
ATOM      8  F   UNL     1     -10.866   6.802 131.092  0.00  0.00    +0.000 F 
ATOM      9  F   UNL     1     -13.030   6.834 131.086  0.00  0.00    +0.000 F 
ENDBRANCH   1   6
BRANCH   1  10
ATOM     10  O   UNL     1     -12.404   8.970 129.644  0.00  0.00    +0.000 OA
BRANCH  10  12
ATOM     11  F   UNL     1     -13.887   8.598 128.030  0.00  0.00    +0.000 F 
ATOM     12  C   UNL     1     -13.329   9.592 128.765  0.00  0.00    +0.000 C 
ENDBRANCH  10  12
ENDBRANCH   1  10
TORSDOF 4
ENDMDL
MODEL 9
REMARK VINA RESULT:      -4.7      1.757      2.689
REMARK  Name = Sevoflurane
REMARK  4 active torsions:
REMARK  status: ('A' for Active; 'I' for Inactive)
REMARK    1  A    between atoms: C_2  and  O_3
REMARK    2  A    between atoms: O_3  and  C_4
REMARK    3  A    between atoms: C_4  and  C_5
REMARK    4  A    between atoms: C_4  and  C_9
REMARK                            x       y       z     vdW  Elec       q    Type
REMARK                         _______ _______ _______ _____ _____    ______ ____
ROOT
ATOM      1  C   UNL     1     -11.396   7.201 129.126  0.00  0.00    +0.000 C 
ENDROOT
BRANCH   1   2
ATOM      2  C   UNL     1     -12.647   7.231 129.979  0.00  0.00    +0.000 C 
ATOM      3  F   UNL     1     -13.768   7.008 129.270  0.00  0.00    +0.000 F 
ATOM      4  F   UNL     1     -12.605   6.343 130.994  0.00  0.00    +0.000 F 
ATOM      5  F   UNL     1     -12.781   8.451 130.562  0.00  0.00    +0.000 F 
ENDBRANCH   1   2
BRANCH   1   6
ATOM      6  C   UNL     1     -11.773   7.879 127.824  0.00  0.00    +0.000 C 
ATOM      7  F   UNL     1     -12.589   7.130 127.059  0.00  0.00    +0.000 F 
ATOM      8  F   UNL     1     -12.407   9.054 128.066  0.00  0.00    +0.000 F 
ATOM      9  F   UNL     1     -10.683   8.187 127.086  0.00  0.00    +0.000 F 
ENDBRANCH   1   6
BRANCH   1  10
ATOM     10  O   UNL     1     -10.249   7.859 129.723  0.00  0.00    +0.000 OA
BRANCH  10  12
ATOM     11  F   UNL     1      -9.793   6.782 131.614  0.00  0.00    +0.000 F 
ATOM     12  C   UNL     1      -9.339   6.969 130.350  0.00  0.00    +0.000 C 
ENDBRANCH  10  12
ENDBRANCH   1  10
TORSDOF 4
ENDMDL
