MODEL 1
REMARK VINA RESULT:      -5.9      0.000      0.000
REMARK  Name = Sibutramine
REMARK  9 active torsions:
REMARK  status: ('A' for Active; 'I' for Inactive)
REMARK    1  A    between atoms: C_1  and  C_2
REMARK    2  A    between atoms: C_2  and  C_3
REMARK    3  A    between atoms: C_2  and  C_4
REMARK    4  A    between atoms: C_4  and  C_5
REMARK    5  A    between atoms: C_5  and  N_6
REMARK    6  A    between atoms: C_5  and  C_9
REMARK    7  A    between atoms: N_6  and  C_7
REMARK    8  A    between atoms: N_6  and  C_8
REMARK    9  A    between atoms: C_9  and  C_13
REMARK                            x       y       z     vdW  Elec       q    Type
REMARK                         _______ _______ _______ _____ _____    ______ ____
ROOT
ATOM      1  C   UNL     1      -7.137   0.201 124.662  0.00  0.00    +0.000 C 
ATOM      2  C   UNL     1      -6.685   1.689 124.306  0.00  0.00    +0.000 C 
ATOM      3  C   UNL     1      -5.949   1.732 125.653  0.00  0.00    +0.000 C 
ATOM      4  C   UNL     1      -6.980   0.697 126.166  0.00  0.00    +0.000 C 
ENDROOT
BRANCH   1   5
ATOM      5  C   UNL     1      -6.058  -0.992 124.318  0.00  0.00    +0.000 A 
ATOM      6  C   UNL     1      -5.437  -1.727 125.367  0.00  0.00    +0.000 A 
ATOM      7  C   UNL     1      -4.945  -3.026 125.142  0.00  0.00    +0.000 A 
ATOM      8  C   UNL     1      -4.952  -3.557 123.852  0.00  0.00    +0.000 A 
ATOM      9 CL   UNL     1      -4.621  -5.233 123.618  0.00  0.00    +0.000 Cl
ATOM     10  C   UNL     1      -5.436  -2.802 122.779  0.00  0.00    +0.000 A 
ATOM     11  C   UNL     1      -5.970  -1.529 123.014  0.00  0.00    +0.000 A 
ENDBRANCH   1   5
BRANCH   1  12
ATOM     12  C   UNL     1      -8.616  -0.266 124.204  0.00  0.00    +0.000 C 
BRANCH  12  13
ATOM     13  N   UNL     1      -9.458   0.825 123.558  0.00  0.00    +0.000 NA
ATOM     14  C   UNL     1     -10.391   0.629 122.479  0.00  0.00    +0.000 C 
ATOM     15  C   UNL     1     -10.403   1.283 124.521  0.00  0.00    +0.000 C 
ENDBRANCH  12  13
BRANCH  12  16
ATOM     16  C   UNL     1      -9.397  -0.934 125.490  0.00  0.00    +0.000 C 
BRANCH  16  18
ATOM     17  C   UNL     1      -8.944  -3.283 124.584  0.00  0.00    +0.000 C 
ATOM     18  C   UNL     1      -9.424  -2.517 125.817  0.00  0.00    +0.000 C 
ATOM     19  C   UNL     1      -8.470  -3.166 126.910  0.00  0.00    +0.000 C 
ENDBRANCH  16  18
ENDBRANCH  12  16
ENDBRANCH   1  12
TORSDOF 5
ENDMDL
MODEL 2
REMARK VINA RESULT:      -5.8      2.337      4.939
REMARK  Name = Sibutramine
REMARK  9 active torsions:
REMARK  status: ('A' for Active; 'I' for Inactive)
REMARK    1  A    between atoms: C_1  and  C_2
REMARK    2  A    between atoms: C_2  and  C_3
REMARK    3  A    between atoms: C_2  and  C_4
REMARK    4  A    between atoms: C_4  and  C_5
REMARK    5  A    between atoms: C_5  and  N_6
REMARK    6  A    between atoms: C_5  and  C_9
REMARK    7  A    between atoms: N_6  and  C_7
REMARK    8  A    between atoms: N_6  and  C_8
REMARK    9  A    between atoms: C_9  and  C_13
REMARK                            x       y       z     vdW  Elec       q    Type
REMARK                         _______ _______ _______ _____ _____    ______ ____
ROOT
ATOM      1  C   UNL     1      -7.666   1.322 124.276  0.00  0.00    +0.000 C 
ATOM      2  C   UNL     1      -8.702   1.673 125.438  0.00  0.00    +0.000 C 
ATOM      3  C   UNL     1      -9.826   1.197 124.507  0.00  0.00    +0.000 C 
ATOM      4  C   UNL     1      -8.911   1.588 123.321  0.00  0.00    +0.000 C 
ENDROOT
BRANCH   1   5
ATOM      5  C   UNL     1      -7.175  -0.246 124.182  0.00  0.00    +0.000 A 
ATOM      6  C   UNL     1      -7.130  -0.913 122.927  0.00  0.00    +0.000 A 
ATOM      7  C   UNL     1      -6.271  -2.010 122.726  0.00  0.00    +0.000 A 
ATOM      8  C   UNL     1      -5.545  -2.529 123.799  0.00  0.00    +0.000 A 
ATOM      9 CL   UNL     1      -4.289  -3.673 123.505  0.00  0.00    +0.000 Cl
ATOM     10  C   UNL     1      -5.674  -1.971 125.075  0.00  0.00    +0.000 A 
ATOM     11  C   UNL     1      -6.492  -0.850 125.261  0.00  0.00    +0.000 A 
ENDBRANCH   1   5
BRANCH   1  12
ATOM     12  C   UNL     1      -6.388   2.296 124.088  0.00  0.00    +0.000 C 
BRANCH  12  13
ATOM     13  N   UNL     1      -5.880   2.936 125.371  0.00  0.00    +0.000 NA
ATOM     14  C   UNL     1      -4.935   2.342 126.280  0.00  0.00    +0.000 C 
ATOM     15  C   UNL     1      -5.090   4.068 125.018  0.00  0.00    +0.000 C 
ENDBRANCH  12  13
BRANCH  12  16
ATOM     16  C   UNL     1      -6.737   3.436 122.954  0.00  0.00    +0.000 C 
BRANCH  16  18
ATOM     17  C   UNL     1      -7.146   3.923 120.476  0.00  0.00    +0.000 C 
ATOM     18  C   UNL     1      -6.078   3.486 121.478  0.00  0.00    +0.000 C 
ATOM     19  C   UNL     1      -4.934   4.525 121.103  0.00  0.00    +0.000 C 
ENDBRANCH  16  18
ENDBRANCH  12  16
ENDBRANCH   1  12
TORSDOF 5
ENDMDL
MODEL 3
REMARK VINA RESULT:      -5.6      2.352      4.599
REMARK  Name = Sibutramine
REMARK  9 active torsions:
REMARK  status: ('A' for Active; 'I' for Inactive)
REMARK    1  A    between atoms: C_1  and  C_2
REMARK    2  A    between atoms: C_2  and  C_3
REMARK    3  A    between atoms: C_2  and  C_4
REMARK    4  A    between atoms: C_4  and  C_5
REMARK    5  A    between atoms: C_5  and  N_6
REMARK    6  A    between atoms: C_5  and  C_9
REMARK    7  A    between atoms: N_6  and  C_7
REMARK    8  A    between atoms: N_6  and  C_8
REMARK    9  A    between atoms: C_9  and  C_13
REMARK                            x       y       z     vdW  Elec       q    Type
REMARK                         _______ _______ _______ _____ _____    ______ ____
ROOT
ATOM      1  C   UNL     1      -8.084  -1.984 125.677  0.00  0.00    +0.000 C 
ATOM      2  C   UNL     1      -9.238  -2.980 125.204  0.00  0.00    +0.000 C 
ATOM      3  C   UNL     1      -8.142  -3.992 124.841  0.00  0.00    +0.000 C 
ATOM      4  C   UNL     1      -7.199  -2.784 124.624  0.00  0.00    +0.000 C 
ENDROOT
BRANCH   1   5
ATOM      5  C   UNL     1      -7.517  -2.196 127.207  0.00  0.00    +0.000 A 
ATOM      6  C   UNL     1      -8.331  -2.811 128.199  0.00  0.00    +0.000 A 
ATOM      7  C   UNL     1      -7.751  -3.459 129.305  0.00  0.00    +0.000 A 
ATOM      8  C   UNL     1      -6.370  -3.397 129.501  0.00  0.00    +0.000 A 
ATOM      9 CL   UNL     1      -5.629  -4.415 130.678  0.00  0.00    +0.000 Cl
ATOM     10  C   UNL     1      -5.561  -2.684 128.609  0.00  0.00    +0.000 A 
ATOM     11  C   UNL     1      -6.136  -2.082 127.483  0.00  0.00    +0.000 A 
ENDBRANCH   1   5
BRANCH   1  12
ATOM     12  C   UNL     1      -8.292  -0.405 125.397  0.00  0.00    +0.000 C 
BRANCH  12  13
ATOM     13  N   UNL     1      -9.492  -0.064 124.525  0.00  0.00    +0.000 NA
ATOM     14  C   UNL     1     -10.191   1.194 124.525  0.00  0.00    +0.000 C 
ATOM     15  C   UNL     1      -9.055  -0.018 123.170  0.00  0.00    +0.000 C 
ENDBRANCH  12  13
BRANCH  12  16
ATOM     16  C   UNL     1      -6.906   0.222 124.769  0.00  0.00    +0.000 C 
BRANCH  16  18
ATOM     17  C   UNL     1      -7.059   2.258 126.311  0.00  0.00    +0.000 C 
ATOM     18  C   UNL     1      -6.111   1.484 125.395  0.00  0.00    +0.000 C 
ATOM     19  C   UNL     1      -4.887   1.296 126.391  0.00  0.00    +0.000 C 
ENDBRANCH  16  18
ENDBRANCH  12  16
ENDBRANCH   1  12
TORSDOF 5
ENDMDL
MODEL 4
REMARK VINA RESULT:      -5.5      2.726      4.812
REMARK  Name = Sibutramine
REMARK  9 active torsions:
REMARK  status: ('A' for Active; 'I' for Inactive)
REMARK    1  A    between atoms: C_1  and  C_2
REMARK    2  A    between atoms: C_2  and  C_3
REMARK    3  A    between atoms: C_2  and  C_4
REMARK    4  A    between atoms: C_4  and  C_5
REMARK    5  A    between atoms: C_5  and  N_6
REMARK    6  A    between atoms: C_5  and  C_9
REMARK    7  A    between atoms: N_6  and  C_7
REMARK    8  A    between atoms: N_6  and  C_8
REMARK    9  A    between atoms: C_9  and  C_13
REMARK                            x       y       z     vdW  Elec       q    Type
REMARK                         _______ _______ _______ _____ _____    ______ ____
ROOT
ATOM      1  C   UNL     1      -7.955  -1.602 126.181  0.00  0.00    +0.000 C 
ATOM      2  C   UNL     1      -9.241  -2.438 125.739  0.00  0.00    +0.000 C 
ATOM      3  C   UNL     1      -8.289  -3.508 125.185  0.00  0.00    +0.000 C 
ATOM      4  C   UNL     1      -7.252  -2.376 124.982  0.00  0.00    +0.000 C 
ENDROOT
BRANCH   1   5
ATOM      5  C   UNL     1      -7.278  -2.009 127.624  0.00  0.00    +0.000 A 
ATOM      6  C   UNL     1      -8.080  -2.542 128.672  0.00  0.00    +0.000 A 
ATOM      7  C   UNL     1      -7.512  -3.352 129.672  0.00  0.00    +0.000 A 
ATOM      8  C   UNL     1      -6.129  -3.538 129.712  0.00  0.00    +0.000 A 
ATOM      9 CL   UNL     1      -5.461  -4.745 130.747  0.00  0.00    +0.000 Cl
ATOM     10  C   UNL     1      -5.304  -2.916 128.769  0.00  0.00    +0.000 A 
ATOM     11  C   UNL     1      -5.878  -2.150 127.746  0.00  0.00    +0.000 A 
ENDBRANCH   1   5
BRANCH   1  12
ATOM     12  C   UNL     1      -8.027   0.010 126.059  0.00  0.00    +0.000 C 
BRANCH  12  13
ATOM     13  N   UNL     1      -7.507   0.765 127.273  0.00  0.00    +0.000 NA
ATOM     14  C   UNL     1      -6.530   1.822 127.240  0.00  0.00    +0.000 C 
ATOM     15  C   UNL     1      -8.579   1.538 127.805  0.00  0.00    +0.000 C 
ENDBRANCH  12  13
BRANCH  12  16
ATOM     16  C   UNL     1      -9.569   0.458 125.698  0.00  0.00    +0.000 C 
BRANCH  16  18
ATOM     17  C   UNL     1      -9.024   2.436 124.170  0.00  0.00    +0.000 C 
ATOM     18  C   UNL     1      -9.994   1.271 124.366  0.00  0.00    +0.000 C 
ATOM     19  C   UNL     1      -9.907   0.618 122.919  0.00  0.00    +0.000 C 
ENDBRANCH  16  18
ENDBRANCH  12  16
ENDBRANCH   1  12
TORSDOF 5
ENDMDL
MODEL 5
REMARK VINA RESULT:      -5.5      3.059      5.201
REMARK  Name = Sibutramine
REMARK  9 active torsions:
REMARK  status: ('A' for Active; 'I' for Inactive)
REMARK    1  A    between atoms: C_1  and  C_2
REMARK    2  A    between atoms: C_2  and  C_3
REMARK    3  A    between atoms: C_2  and  C_4
REMARK    4  A    between atoms: C_4  and  C_5
REMARK    5  A    between atoms: C_5  and  N_6
REMARK    6  A    between atoms: C_5  and  C_9
REMARK    7  A    between atoms: N_6  and  C_7
REMARK    8  A    between atoms: N_6  and  C_8
REMARK    9  A    between atoms: C_9  and  C_13
REMARK                            x       y       z     vdW  Elec       q    Type
REMARK                         _______ _______ _______ _____ _____    ______ ____
ROOT
ATOM      1  C   UNL     1      -6.851  -1.978 128.594  0.00  0.00    +0.000 C 
ATOM      2  C   UNL     1      -5.767  -2.829 129.400  0.00  0.00    +0.000 C 
ATOM      3  C   UNL     1      -6.927  -3.626 130.013  0.00  0.00    +0.000 C 
ATOM      4  C   UNL     1      -7.806  -2.368 129.806  0.00  0.00    +0.000 C 
ENDROOT
BRANCH   1   5
ATOM      5  C   UNL     1      -7.391  -2.629 127.184  0.00  0.00    +0.000 A 
ATOM      6  C   UNL     1      -8.741  -3.060 127.059  0.00  0.00    +0.000 A 
ATOM      7  C   UNL     1      -9.360  -3.128 125.797  0.00  0.00    +0.000 A 
ATOM      8  C   UNL     1      -8.613  -2.890 124.643  0.00  0.00    +0.000 A 
ATOM      9 CL   UNL     1      -9.418  -2.691 123.132  0.00  0.00    +0.000 Cl
ATOM     10  C   UNL     1      -7.249  -2.594 124.733  0.00  0.00    +0.000 A 
ATOM     11  C   UNL     1      -6.647  -2.480 125.992  0.00  0.00    +0.000 A 
ENDBRANCH   1   5
BRANCH   1  12
ATOM     12  C   UNL     1      -6.561  -0.401 128.380  0.00  0.00    +0.000 C 
BRANCH  12  13
ATOM     13  N   UNL     1      -5.729   0.249 129.476  0.00  0.00    +0.000 NA
ATOM     14  C   UNL     1      -4.655   1.184 129.262  0.00  0.00    +0.000 C 
ATOM     15  C   UNL     1      -6.576   1.126 130.213  0.00  0.00    +0.000 C 
ENDBRANCH  12  13
BRANCH  12  16
ATOM     16  C   UNL     1      -7.990   0.390 128.173  0.00  0.00    +0.000 C 
BRANCH  16  18
ATOM     17  C   UNL     1      -7.212   1.207 125.877  0.00  0.00    +0.000 C 
ATOM     18  C   UNL     1      -8.417   1.160 126.816  0.00  0.00    +0.000 C 
ATOM     19  C   UNL     1      -9.499   0.564 125.816  0.00  0.00    +0.000 C 
ENDBRANCH  16  18
ENDBRANCH  12  16
ENDBRANCH   1  12
TORSDOF 5
ENDMDL
MODEL 6
REMARK VINA RESULT:      -5.4      5.028      7.043
REMARK  Name = Sibutramine
REMARK  9 active torsions:
REMARK  status: ('A' for Active; 'I' for Inactive)
REMARK    1  A    between atoms: C_1  and  C_2
REMARK    2  A    between atoms: C_2  and  C_3
REMARK    3  A    between atoms: C_2  and  C_4
REMARK    4  A    between atoms: C_4  and  C_5
REMARK    5  A    between atoms: C_5  and  N_6
REMARK    6  A    between atoms: C_5  and  C_9
REMARK    7  A    between atoms: N_6  and  C_7
REMARK    8  A    between atoms: N_6  and  C_8
REMARK    9  A    between atoms: C_9  and  C_13
REMARK                            x       y       z     vdW  Elec       q    Type
REMARK                         _______ _______ _______ _____ _____    ______ ____
ROOT
ATOM      1  C   UNL     1      -7.432  -1.530 130.660  0.00  0.00    +0.000 C 
ATOM      2  C   UNL     1      -8.622  -0.514 130.978  0.00  0.00    +0.000 C 
ATOM      3  C   UNL     1      -7.884   0.532 130.131  0.00  0.00    +0.000 C 
ATOM      4  C   UNL     1      -6.571  -0.202 130.499  0.00  0.00    +0.000 C 
ENDROOT
BRANCH   1   5
ATOM      5  C   UNL     1      -7.530  -2.346 129.235  0.00  0.00    +0.000 A 
ATOM      6  C   UNL     1      -8.507  -3.364 129.053  0.00  0.00    +0.000 A 
ATOM      7  C   UNL     1      -8.959  -3.705 127.764  0.00  0.00    +0.000 A 
ATOM      8  C   UNL     1      -8.359  -3.131 126.643  0.00  0.00    +0.000 A 
ATOM      9 CL   UNL     1      -9.088  -3.322 125.093  0.00  0.00    +0.000 Cl
ATOM     10  C   UNL     1      -7.304  -2.224 126.793  0.00  0.00    +0.000 A 
ATOM     11  C   UNL     1      -6.890  -1.850 128.077  0.00  0.00    +0.000 A 
ENDBRANCH   1   5
BRANCH   1  12
ATOM     12  C   UNL     1      -6.980  -2.549 131.831  0.00  0.00    +0.000 C 
BRANCH  12  13
ATOM     13  N   UNL     1      -7.457  -2.170 133.226  0.00  0.00    +0.000 NA
ATOM     14  C   UNL     1      -8.239  -3.009 134.095  0.00  0.00    +0.000 C 
ATOM     15  C   UNL     1      -6.314  -2.065 134.071  0.00  0.00    +0.000 C 
ENDBRANCH  12  13
BRANCH  12  16
ATOM     16  C   UNL     1      -5.344  -2.729 131.792  0.00  0.00    +0.000 C 
BRANCH  16  18
ATOM     17  C   UNL     1      -5.568  -5.056 130.755  0.00  0.00    +0.000 C 
ATOM     18  C   UNL     1      -4.577  -3.922 131.017  0.00  0.00    +0.000 C 
ATOM     19  C   UNL     1      -4.004  -3.737 129.546  0.00  0.00    +0.000 C 
ENDBRANCH  16  18
ENDBRANCH  12  16
ENDBRANCH   1  12
TORSDOF 5
ENDMDL
MODEL 7
REMARK VINA RESULT:      -5.3      2.585      4.450
REMARK  Name = Sibutramine
REMARK  9 active torsions:
REMARK  status: ('A' for Active; 'I' for Inactive)
REMARK    1  A    between atoms: C_1  and  C_2
REMARK    2  A    between atoms: C_2  and  C_3
REMARK    3  A    between atoms: C_2  and  C_4
REMARK    4  A    between atoms: C_4  and  C_5
REMARK    5  A    between atoms: C_5  and  N_6
REMARK    6  A    between atoms: C_5  and  C_9
REMARK    7  A    between atoms: N_6  and  C_7
REMARK    8  A    between atoms: N_6  and  C_8
REMARK    9  A    between atoms: C_9  and  C_13
REMARK                            x       y       z     vdW  Elec       q    Type
REMARK                         _______ _______ _______ _____ _____    ______ ____
ROOT
ATOM      1  C   UNL     1      -6.778  -1.878 125.104  0.00  0.00    +0.000 C 
ATOM      2  C   UNL     1      -7.056  -2.866 123.881  0.00  0.00    +0.000 C 
ATOM      3  C   UNL     1      -5.582  -3.287 123.955  0.00  0.00    +0.000 C 
ATOM      4  C   UNL     1      -5.286  -1.889 124.549  0.00  0.00    +0.000 C 
ENDROOT
BRANCH   1   5
ATOM      5  C   UNL     1      -6.852  -2.540 126.608  0.00  0.00    +0.000 A 
ATOM      6  C   UNL     1      -5.759  -2.408 127.509  0.00  0.00    +0.000 A 
ATOM      7  C   UNL     1      -5.959  -2.486 128.899  0.00  0.00    +0.000 A 
ATOM      8  C   UNL     1      -7.218  -2.817 129.403  0.00  0.00    +0.000 A 
ATOM      9 CL   UNL     1      -7.538  -2.634 131.087  0.00  0.00    +0.000 Cl
ATOM     10  C   UNL     1      -8.279  -3.082 128.532  0.00  0.00    +0.000 A 
ATOM     11  C   UNL     1      -8.089  -2.956 127.150  0.00  0.00    +0.000 A 
ENDBRANCH   1   5
BRANCH   1  12
ATOM     12  C   UNL     1      -7.540  -0.452 125.107  0.00  0.00    +0.000 C 
BRANCH  12  13
ATOM     13  N   UNL     1      -8.079  -0.014 123.753  0.00  0.00    +0.000 NA
ATOM     14  C   UNL     1      -9.407   0.485 123.508  0.00  0.00    +0.000 C 
ATOM     15  C   UNL     1      -7.378   1.161 123.357  0.00  0.00    +0.000 C 
ENDBRANCH  12  13
BRANCH  12  16
ATOM     16  C   UNL     1      -6.545   0.693 125.748  0.00  0.00    +0.000 C 
BRANCH  16  18
ATOM     17  C   UNL     1      -7.980   0.746 127.865  0.00  0.00    +0.000 C 
ATOM     18  C   UNL     1      -6.755   1.373 127.200  0.00  0.00    +0.000 C 
ATOM     19  C   UNL     1      -5.701   1.187 128.375  0.00  0.00    +0.000 C 
ENDBRANCH  16  18
ENDBRANCH  12  16
ENDBRANCH   1  12
TORSDOF 5
ENDMDL
MODEL 8
REMARK VINA RESULT:      -5.3     14.721     17.621
REMARK  Name = Sibutramine
REMARK  9 active torsions:
REMARK  status: ('A' for Active; 'I' for Inactive)
REMARK    1  A    between atoms: C_1  and  C_2
REMARK    2  A    between atoms: C_2  and  C_3
REMARK    3  A    between atoms: C_2  and  C_4
REMARK    4  A    between atoms: C_4  and  C_5
REMARK    5  A    between atoms: C_5  and  N_6
REMARK    6  A    between atoms: C_5  and  C_9
REMARK    7  A    between atoms: N_6  and  C_7
REMARK    8  A    between atoms: N_6  and  C_8
REMARK    9  A    between atoms: C_9  and  C_13
REMARK                            x       y       z     vdW  Elec       q    Type
REMARK                         _______ _______ _______ _____ _____    ______ ____
ROOT
ATOM      1  C   UNL     1      -0.372  12.727 132.825  0.00  0.00    +0.000 C 
ATOM      2  C   UNL     1      -0.602  13.110 131.292  0.00  0.00    +0.000 C 
ATOM      3  C   UNL     1       0.823  12.613 131.010  0.00  0.00    +0.000 C 
ATOM      4  C   UNL     1       1.162  12.972 132.477  0.00  0.00    +0.000 C 
ENDROOT
BRANCH   1   5
ATOM      5  C   UNL     1      -0.641  11.157 133.234  0.00  0.00    +0.000 A 
ATOM      6  C   UNL     1      -1.874  10.528 132.908  0.00  0.00    +0.000 A 
ATOM      7  C   UNL     1      -1.954   9.130 132.767  0.00  0.00    +0.000 A 
ATOM      8  C   UNL     1      -0.845   8.337 133.067  0.00  0.00    +0.000 A 
ATOM      9 CL   UNL     1      -0.844   6.671 132.627  0.00  0.00    +0.000 Cl
ATOM     10  C   UNL     1       0.342   8.925 133.518  0.00  0.00    +0.000 A 
ATOM     11  C   UNL     1       0.433  10.319 133.611  0.00  0.00    +0.000 A 
ENDBRANCH   1   5
BRANCH   1  12
ATOM     12  C   UNL     1      -1.023  13.693 133.947  0.00  0.00    +0.000 C 
BRANCH  12  13
ATOM     13  N   UNL     1      -0.792  13.248 135.383  0.00  0.00    +0.000 NA
ATOM     14  C   UNL     1      -0.001  13.953 136.357  0.00  0.00    +0.000 C 
ATOM     15  C   UNL     1      -2.034  13.332 136.077  0.00  0.00    +0.000 C 
ENDBRANCH  12  13
BRANCH  12  16
ATOM     16  C   UNL     1      -2.628  13.882 133.635  0.00  0.00    +0.000 C 
BRANCH  16  18
ATOM     17  C   UNL     1      -2.862  16.399 134.028  0.00  0.00    +0.000 C 
ATOM     18  C   UNL     1      -3.299  15.256 133.111  0.00  0.00    +0.000 C 
ATOM     19  C   UNL     1      -2.919  15.895 131.706  0.00  0.00    +0.000 C 
ENDBRANCH  16  18
ENDBRANCH  12  16
ENDBRANCH   1  12
TORSDOF 5
ENDMDL
MODEL 9
REMARK VINA RESULT:      -5.3      3.014      4.883
REMARK  Name = Sibutramine
REMARK  9 active torsions:
REMARK  status: ('A' for Active; 'I' for Inactive)
REMARK    1  A    between atoms: C_1  and  C_2
REMARK    2  A    between atoms: C_2  and  C_3
REMARK    3  A    between atoms: C_2  and  C_4
REMARK    4  A    between atoms: C_4  and  C_5
REMARK    5  A    between atoms: C_5  and  N_6
REMARK    6  A    between atoms: C_5  and  C_9
REMARK    7  A    between atoms: N_6  and  C_7
REMARK    8  A    between atoms: N_6  and  C_8
REMARK    9  A    between atoms: C_9  and  C_13
REMARK                            x       y       z     vdW  Elec       q    Type
REMARK                         _______ _______ _______ _____ _____    ______ ____
ROOT
ATOM      1  C   UNL     1      -7.549  -0.671 125.001  0.00  0.00    +0.000 C 
ATOM      2  C   UNL     1      -6.121  -1.264 124.609  0.00  0.00    +0.000 C 
ATOM      3  C   UNL     1      -6.773  -1.866 123.356  0.00  0.00    +0.000 C 
ATOM      4  C   UNL     1      -8.101  -1.899 124.152  0.00  0.00    +0.000 C 
ENDROOT
BRANCH   1   5
ATOM      5  C   UNL     1      -7.962   0.761 124.305  0.00  0.00    +0.000 A 
ATOM      6  C   UNL     1      -6.956   1.683 123.900  0.00  0.00    +0.000 A 
ATOM      7  C   UNL     1      -7.209   2.623 122.885  0.00  0.00    +0.000 A 
ATOM      8  C   UNL     1      -8.493   2.740 122.350  0.00  0.00    +0.000 A 
ATOM      9 CL   UNL     1      -8.740   3.677 120.924  0.00  0.00    +0.000 Cl
ATOM     10  C   UNL     1      -9.532   1.934 122.825  0.00  0.00    +0.000 A 
ATOM     11  C   UNL     1      -9.267   0.966 123.802  0.00  0.00    +0.000 A 
ENDBRANCH   1   5
BRANCH   1  12
ATOM     12  C   UNL     1      -7.946  -0.639 126.569  0.00  0.00    +0.000 C 
BRANCH  12  13
ATOM     13  N   UNL     1      -7.544   0.632 127.302  0.00  0.00    +0.000 NA
ATOM     14  C   UNL     1      -8.145   1.119 128.516  0.00  0.00    +0.000 C 
ATOM     15  C   UNL     1      -6.231   0.445 127.823  0.00  0.00    +0.000 C 
ENDBRANCH  12  13
BRANCH  12  16
ATOM     16  C   UNL     1      -7.331  -1.973 127.312  0.00  0.00    +0.000 C 
BRANCH  16  18
ATOM     17  C   UNL     1      -8.902  -3.916 127.854  0.00  0.00    +0.000 C 
ATOM     18  C   UNL     1      -8.083  -2.791 128.486  0.00  0.00    +0.000 C 
ATOM     19  C   UNL     1      -7.283  -3.633 129.570  0.00  0.00    +0.000 C 
ENDBRANCH  16  18
ENDBRANCH  12  16
ENDBRANCH   1  12
TORSDOF 5
ENDMDL
