MODEL 1
REMARK VINA RESULT:      -7.7      0.000      0.000
REMARK  Name = Silodosin
REMARK  16 active torsions:
REMARK  status: ('A' for Active; 'I' for Inactive)
REMARK    1  A    between atoms: C_1  and  C_2
REMARK    2  A    between atoms: C_2  and  C_3
REMARK    3  A    between atoms: C_2  and  N_20
REMARK    4  A    between atoms: C_3  and  C_4
REMARK    5  A    between atoms: N_8  and  C_9
REMARK    6  A    between atoms: C_9  and  C_10
REMARK    7  A    between atoms: C_10  and  C_11
REMARK    8  A    between atoms: C_11  and  O_12
REMARK    9  A    between atoms: C_15  and  C_17
REMARK   10  A    between atoms: N_20  and  C_21
REMARK   11  A    between atoms: C_21  and  C_22
REMARK   12  A    between atoms: C_22  and  O_23
REMARK   13  A    between atoms: O_23  and  C_24
REMARK   14  A    between atoms: C_29  and  O_30
REMARK   15  A    between atoms: O_30  and  C_31
REMARK   16  A    between atoms: C_31  and  C_32
REMARK                            x       y       z     vdW  Elec       q    Type
REMARK                         _______ _______ _______ _____ _____    ______ ____
ROOT
ATOM      1  C   UNL     1      -3.852   3.887 126.449  0.00  0.00    +0.000 C 
ENDROOT
BRANCH   1   2
ATOM      2  C   UNL     1      -4.931   2.856 126.192  0.00  0.00    +0.000 A 
ATOM      3  C   UNL     1      -4.762   1.511 126.508  0.00  0.00    +0.000 A 
ATOM      4  C   UNL     1      -5.573   0.563 125.934  0.00  0.00    +0.000 A 
ATOM      5  C   UNL     1      -6.735   0.890 125.202  0.00  0.00    +0.000 A 
ATOM      6  N   UNL     1      -7.396  -0.334 124.985  0.00  0.00    +0.000 N 
ATOM      7  C   UNL     1      -6.452  -1.444 125.198  0.00  0.00    +0.000 C 
ATOM      8  C   UNL     1      -5.338  -0.910 126.078  0.00  0.00    +0.000 C 
ATOM      9  C   UNL     1      -7.001   2.291 124.960  0.00  0.00    +0.000 A 
ATOM     10  C   UNL     1      -6.081   3.230 125.498  0.00  0.00    +0.000 A 
BRANCH   9  11
ATOM     11  C   UNL     1      -8.124   3.123 124.294  0.00  0.00    +0.000 C 
ATOM     12  N   UNL     1      -8.227   3.371 122.931  0.00  0.00    +0.000 N 
ATOM     13  O   UNL     1      -8.998   3.625 124.979  0.00  0.00    +0.000 OA
ATOM     14  H   UNL     1      -7.662   2.927 122.222  0.00  0.00    +0.000 HD
ATOM     15  H   UNL     1      -9.219   3.316 122.662  0.00  0.00    +0.000 HD
ENDBRANCH   9  11
BRANCH   6  16
ATOM     16  C   UNL     1      -8.756  -0.664 124.567  0.00  0.00    +0.000 C 
BRANCH  16  17
ATOM     17  C   UNL     1      -8.682  -1.261 123.206  0.00  0.00    +0.000 C 
BRANCH  17  18
ATOM     18  C   UNL     1      -8.908  -2.728 122.960  0.00  0.00    +0.000 C 
BRANCH  18  19
ATOM     19  O   UNL     1     -10.092  -3.209 123.614  0.00  0.00    +0.000 OA
ATOM     20  H   UNL     1     -10.179  -4.175 123.505  0.00  0.00    +0.000 HD
ENDBRANCH  18  19
ENDBRANCH  17  18
ENDBRANCH  16  17
ENDBRANCH   6  16
ENDBRANCH   1   2
BRANCH   1  22
ATOM     21  C   UNL     1      -2.550   5.056 128.318  0.00  0.00    +0.000 C 
ATOM     22  C   UNL     1      -3.868   4.356 127.918  0.00  0.00    +0.000 C 
BRANCH  22  23
ATOM     23  N   UNL     1      -4.926   5.321 128.195  0.00  0.00    +0.000 NA
ATOM     24  H   UNL     1      -5.512   5.413 127.355  0.00  0.00    +0.000 HD
BRANCH  23  25
ATOM     25  C   UNL     1      -5.718   4.840 129.361  0.00  0.00    +0.000 C 
BRANCH  25  26
ATOM     26  C   UNL     1      -5.491   5.787 130.496  0.00  0.00    +0.000 C 
BRANCH  26  27
ATOM     27  O   UNL     1      -6.357   6.906 130.536  0.00  0.00    +0.000 OA
BRANCH  27  28
ATOM     28  C   UNL     1      -7.599   6.710 131.109  0.00  0.00    +0.000 A 
ATOM     29  C   UNL     1      -7.483   6.217 132.426  0.00  0.00    +0.000 A 
ATOM     30  C   UNL     1      -8.599   5.767 133.137  0.00  0.00    +0.000 A 
ATOM     31  C   UNL     1      -9.864   5.876 132.576  0.00  0.00    +0.000 A 
ATOM     32  C   UNL     1     -10.002   6.365 131.283  0.00  0.00    +0.000 A 
ATOM     33  C   UNL     1      -8.893   6.749 130.514  0.00  0.00    +0.000 A 
BRANCH  33  34
ATOM     34  O   UNL     1      -9.343   7.037 129.229  0.00  0.00    +0.000 OA
BRANCH  34  35
ATOM     35  C   UNL     1     -10.291   8.058 129.212  0.00  0.00    +0.000 C 
BRANCH  35  36
ATOM     36  C   UNL     1     -11.701   7.964 128.707  0.00  0.00    +0.000 C 
ATOM     37  F   UNL     1     -12.605   8.394 129.596  0.00  0.00    +0.000 F 
ATOM     38  F   UNL     1     -11.851   8.613 127.537  0.00  0.00    +0.000 F 
ATOM     39  F   UNL     1     -11.967   6.645 128.455  0.00  0.00    +0.000 F 
ENDBRANCH  35  36
ENDBRANCH  34  35
ENDBRANCH  33  34
ENDBRANCH  27  28
ENDBRANCH  26  27
ENDBRANCH  25  26
ENDBRANCH  23  25
ENDBRANCH  22  23
ENDBRANCH   1  22
TORSDOF 15
ENDMDL
MODEL 2
REMARK VINA RESULT:      -7.6      5.015      7.262
REMARK  Name = Silodosin
REMARK  16 active torsions:
REMARK  status: ('A' for Active; 'I' for Inactive)
REMARK    1  A    between atoms: C_1  and  C_2
REMARK    2  A    between atoms: C_2  and  C_3
REMARK    3  A    between atoms: C_2  and  N_20
REMARK    4  A    between atoms: C_3  and  C_4
REMARK    5  A    between atoms: N_8  and  C_9
REMARK    6  A    between atoms: C_9  and  C_10
REMARK    7  A    between atoms: C_10  and  C_11
REMARK    8  A    between atoms: C_11  and  O_12
REMARK    9  A    between atoms: C_15  and  C_17
REMARK   10  A    between atoms: N_20  and  C_21
REMARK   11  A    between atoms: C_21  and  C_22
REMARK   12  A    between atoms: C_22  and  O_23
REMARK   13  A    between atoms: O_23  and  C_24
REMARK   14  A    between atoms: C_29  and  O_30
REMARK   15  A    between atoms: O_30  and  C_31
REMARK   16  A    between atoms: C_31  and  C_32
REMARK                            x       y       z     vdW  Elec       q    Type
REMARK                         _______ _______ _______ _____ _____    ______ ____
ROOT
ATOM      1  C   UNL     1      -8.658   1.197 131.263  0.00  0.00    +0.000 C 
ENDROOT
BRANCH   1   2
ATOM      2  C   UNL     1      -8.827   2.667 130.939  0.00  0.00    +0.000 A 
ATOM      3  C   UNL     1      -9.489   3.544 131.792  0.00  0.00    +0.000 A 
ATOM      4  C   UNL     1      -9.951   4.748 131.318  0.00  0.00    +0.000 A 
ATOM      5  C   UNL     1      -9.594   5.261 130.052  0.00  0.00    +0.000 A 
ATOM      6  N   UNL     1     -10.072   6.585 130.038  0.00  0.00    +0.000 N 
ATOM      7  C   UNL     1     -11.082   6.752 131.098  0.00  0.00    +0.000 C 
ATOM      8  C   UNL     1     -10.829   5.660 132.120  0.00  0.00    +0.000 C 
ATOM      9  C   UNL     1      -8.800   4.415 129.188  0.00  0.00    +0.000 A 
ATOM     10  C   UNL     1      -8.426   3.141 129.690  0.00  0.00    +0.000 A 
BRANCH   9  11
ATOM     11  C   UNL     1      -8.135   4.541 127.796  0.00  0.00    +0.000 C 
ATOM     12  N   UNL     1      -6.946   3.925 127.426  0.00  0.00    +0.000 N 
ATOM     13  O   UNL     1      -8.652   5.230 126.934  0.00  0.00    +0.000 OA
ATOM     14  H   UNL     1      -6.464   3.229 127.975  0.00  0.00    +0.000 HD
ATOM     15  H   UNL     1      -7.037   3.593 126.455  0.00  0.00    +0.000 HD
ENDBRANCH   9  11
BRANCH   6  16
ATOM     16  C   UNL     1      -9.789   7.730 129.177  0.00  0.00    +0.000 C 
BRANCH  16  17
ATOM     17  C   UNL     1     -10.985   7.964 128.323  0.00  0.00    +0.000 C 
BRANCH  17  18
ATOM     18  C   UNL     1     -10.918   7.918 126.820  0.00  0.00    +0.000 C 
BRANCH  18  19
ATOM     19  O   UNL     1     -11.266   6.625 126.304  0.00  0.00    +0.000 OA
ATOM     20  H   UNL     1     -10.796   6.449 125.466  0.00  0.00    +0.000 HD
ENDBRANCH  18  19
ENDBRANCH  17  18
ENDBRANCH  16  17
ENDBRANCH   6  16
ENDBRANCH   1   2
BRANCH   1  22
ATOM     21  C   UNL     1      -7.219  -0.385 132.671  0.00  0.00    +0.000 C 
ATOM     22  C   UNL     1      -7.252   0.909 131.826  0.00  0.00    +0.000 C 
BRANCH  22  23
ATOM     23  N   UNL     1      -6.249   0.724 130.784  0.00  0.00    +0.000 NA
ATOM     24  H   UNL     1      -6.343   1.487 130.102  0.00  0.00    +0.000 HD
BRANCH  23  25
ATOM     25  C   UNL     1      -4.900   0.720 131.414  0.00  0.00    +0.000 C 
BRANCH  25  26
ATOM     26  C   UNL     1      -4.585   2.118 131.841  0.00  0.00    +0.000 C 
BRANCH  26  27
ATOM     27  O   UNL     1      -4.638   3.093 130.816  0.00  0.00    +0.000 OA
BRANCH  27  28
ATOM     28  C   UNL     1      -5.210   4.308 131.142  0.00  0.00    +0.000 A 
ATOM     29  C   UNL     1      -5.813   4.262 132.416  0.00  0.00    +0.000 A 
ATOM     30  C   UNL     1      -6.614   5.310 132.881  0.00  0.00    +0.000 A 
ATOM     31  C   UNL     1      -6.762   6.457 132.115  0.00  0.00    +0.000 A 
ATOM     32  C   UNL     1      -6.170   6.526 130.860  0.00  0.00    +0.000 A 
ATOM     33  C   UNL     1      -5.427   5.459 130.332  0.00  0.00    +0.000 A 
BRANCH  33  34
ATOM     34  O   UNL     1      -5.108   5.771 129.014  0.00  0.00    +0.000 OA
BRANCH  34  35
ATOM     35  C   UNL     1      -3.930   6.508 128.910  0.00  0.00    +0.000 C 
BRANCH  35  36
ATOM     36  C   UNL     1      -2.552   6.053 129.292  0.00  0.00    +0.000 C 
ATOM     37  F   UNL     1      -2.226   6.371 130.552  0.00  0.00    +0.000 F 
ATOM     38  F   UNL     1      -2.394   4.731 129.089  0.00  0.00    +0.000 F 
ATOM     39  F   UNL     1      -1.659   6.682 128.465  0.00  0.00    +0.000 F 
ENDBRANCH  35  36
ENDBRANCH  34  35
ENDBRANCH  33  34
ENDBRANCH  27  28
ENDBRANCH  26  27
ENDBRANCH  25  26
ENDBRANCH  23  25
ENDBRANCH  22  23
ENDBRANCH   1  22
TORSDOF 15
ENDMDL
MODEL 3
REMARK VINA RESULT:      -7.6      3.701      8.322
REMARK  Name = Silodosin
REMARK  16 active torsions:
REMARK  status: ('A' for Active; 'I' for Inactive)
REMARK    1  A    between atoms: C_1  and  C_2
REMARK    2  A    between atoms: C_2  and  C_3
REMARK    3  A    between atoms: C_2  and  N_20
REMARK    4  A    between atoms: C_3  and  C_4
REMARK    5  A    between atoms: N_8  and  C_9
REMARK    6  A    between atoms: C_9  and  C_10
REMARK    7  A    between atoms: C_10  and  C_11
REMARK    8  A    between atoms: C_11  and  O_12
REMARK    9  A    between atoms: C_15  and  C_17
REMARK   10  A    between atoms: N_20  and  C_21
REMARK   11  A    between atoms: C_21  and  C_22
REMARK   12  A    between atoms: C_22  and  O_23
REMARK   13  A    between atoms: O_23  and  C_24
REMARK   14  A    between atoms: C_29  and  O_30
REMARK   15  A    between atoms: O_30  and  C_31
REMARK   16  A    between atoms: C_31  and  C_32
REMARK                            x       y       z     vdW  Elec       q    Type
REMARK                         _______ _______ _______ _____ _____    ______ ____
ROOT
ATOM      1  C   UNL     1      -7.857  -1.150 129.824  0.00  0.00    +0.000 C 
ENDROOT
BRANCH   1   2
ATOM      2  C   UNL     1      -7.499  -0.002 128.902  0.00  0.00    +0.000 A 
ATOM      3  C   UNL     1      -6.577  -0.141 127.869  0.00  0.00    +0.000 A 
ATOM      4  C   UNL     1      -6.000   0.973 127.308  0.00  0.00    +0.000 A 
ATOM      5  C   UNL     1      -6.457   2.284 127.564  0.00  0.00    +0.000 A 
ATOM      6  N   UNL     1      -5.773   3.103 126.646  0.00  0.00    +0.000 N 
ATOM      7  C   UNL     1      -4.600   2.381 126.126  0.00  0.00    +0.000 C 
ATOM      8  C   UNL     1      -4.869   0.902 126.327  0.00  0.00    +0.000 C 
ATOM      9  C   UNL     1      -7.503   2.447 128.550  0.00  0.00    +0.000 A 
ATOM     10  C   UNL     1      -8.003   1.270 129.169  0.00  0.00    +0.000 A 
BRANCH   9  11
ATOM     11  C   UNL     1      -8.345   3.618 129.111  0.00  0.00    +0.000 C 
ATOM     12  N   UNL     1      -9.443   3.476 129.950  0.00  0.00    +0.000 N 
ATOM     13  O   UNL     1      -8.065   4.767 128.814  0.00  0.00    +0.000 OA
ATOM     14  H   UNL     1      -9.725   2.611 130.387  0.00  0.00    +0.000 HD
ATOM     15  H   UNL     1      -9.414   4.223 130.659  0.00  0.00    +0.000 HD
ENDBRANCH   9  11
BRANCH   6  16
ATOM     16  C   UNL     1      -5.992   4.473 126.188  0.00  0.00    +0.000 C 
BRANCH  16  17
ATOM     17  C   UNL     1      -7.064   4.442 125.156  0.00  0.00    +0.000 C 
BRANCH  17  18
ATOM     18  C   UNL     1      -6.850   3.836 123.796  0.00  0.00    +0.000 C 
BRANCH  18  19
ATOM     19  O   UNL     1      -5.914   4.588 123.010  0.00  0.00    +0.000 OA
ATOM     20  H   UNL     1      -6.376   5.100 122.318  0.00  0.00    +0.000 HD
ENDBRANCH  18  19
ENDBRANCH  17  18
ENDBRANCH  16  17
ENDBRANCH   6  16
ENDBRANCH   1   2
BRANCH   1  22
ATOM     21  C   UNL     1      -6.471  -3.302 129.862  0.00  0.00    +0.000 C 
ATOM     22  C   UNL     1      -7.590  -2.510 129.149  0.00  0.00    +0.000 C 
BRANCH  22  23
ATOM     23  N   UNL     1      -8.756  -3.386 129.155  0.00  0.00    +0.000 NA
ATOM     24  H   UNL     1      -9.582  -2.828 129.406  0.00  0.00    +0.000 HD
BRANCH  23  25
ATOM     25  C   UNL     1      -8.901  -3.996 127.804  0.00  0.00    +0.000 C 
BRANCH  25  26
ATOM     26  C   UNL     1      -8.684  -2.922 126.786  0.00  0.00    +0.000 C 
BRANCH  26  27
ATOM     27  O   UNL     1      -9.138  -3.222 125.479  0.00  0.00    +0.000 OA
BRANCH  27  28
ATOM     28  C   UNL     1      -8.322  -2.836 124.433  0.00  0.00    +0.000 A 
ATOM     29  C   UNL     1      -7.006  -3.310 124.611  0.00  0.00    +0.000 A 
ATOM     30  C   UNL     1      -5.961  -2.890 123.782  0.00  0.00    +0.000 A 
ATOM     31  C   UNL     1      -6.227  -2.051 122.710  0.00  0.00    +0.000 A 
ATOM     32  C   UNL     1      -7.519  -1.578 122.512  0.00  0.00    +0.000 A 
ATOM     33  C   UNL     1      -8.572  -1.917 123.374  0.00  0.00    +0.000 A 
BRANCH  33  34
ATOM     34  O   UNL     1      -9.685  -1.167 123.006  0.00  0.00    +0.000 OA
BRANCH  34  35
ATOM     35  C   UNL     1      -9.542   0.185 123.312  0.00  0.00    +0.000 C 
BRANCH  35  36
ATOM     36  C   UNL     1      -9.228   0.772 124.657  0.00  0.00    +0.000 C 
ATOM     37  F   UNL     1      -9.784   0.091 125.667  0.00  0.00    +0.000 F 
ATOM     38  F   UNL     1      -7.900   0.888 124.847  0.00  0.00    +0.000 F 
ATOM     39  F   UNL     1      -9.737   2.043 124.688  0.00  0.00    +0.000 F 
ENDBRANCH  35  36
ENDBRANCH  34  35
ENDBRANCH  33  34
ENDBRANCH  27  28
ENDBRANCH  26  27
ENDBRANCH  25  26
ENDBRANCH  23  25
ENDBRANCH  22  23
ENDBRANCH   1  22
TORSDOF 15
ENDMDL
MODEL 4
REMARK VINA RESULT:      -7.6      3.187      3.715
REMARK  Name = Silodosin
REMARK  16 active torsions:
REMARK  status: ('A' for Active; 'I' for Inactive)
REMARK    1  A    between atoms: C_1  and  C_2
REMARK    2  A    between atoms: C_2  and  C_3
REMARK    3  A    between atoms: C_2  and  N_20
REMARK    4  A    between atoms: C_3  and  C_4
REMARK    5  A    between atoms: N_8  and  C_9
REMARK    6  A    between atoms: C_9  and  C_10
REMARK    7  A    between atoms: C_10  and  C_11
REMARK    8  A    between atoms: C_11  and  O_12
REMARK    9  A    between atoms: C_15  and  C_17
REMARK   10  A    between atoms: N_20  and  C_21
REMARK   11  A    between atoms: C_21  and  C_22
REMARK   12  A    between atoms: C_22  and  O_23
REMARK   13  A    between atoms: O_23  and  C_24
REMARK   14  A    between atoms: C_29  and  O_30
REMARK   15  A    between atoms: O_30  and  C_31
REMARK   16  A    between atoms: C_31  and  C_32
REMARK                            x       y       z     vdW  Elec       q    Type
REMARK                         _______ _______ _______ _____ _____    ______ ____
ROOT
ATOM      1  C   UNL     1      -7.428   0.975 129.814  0.00  0.00    +0.000 C 
ENDROOT
BRANCH   1   2
ATOM      2  C   UNL     1      -7.461   0.320 128.449  0.00  0.00    +0.000 A 
ATOM      3  C   UNL     1      -6.567  -0.683 128.086  0.00  0.00    +0.000 A 
ATOM      4  C   UNL     1      -6.373  -0.984 126.760  0.00  0.00    +0.000 A 
ATOM      5  C   UNL     1      -7.201  -0.486 125.731  0.00  0.00    +0.000 A 
ATOM      6  N   UNL     1      -6.824  -1.193 124.574  0.00  0.00    +0.000 N 
ATOM      7  C   UNL     1      -5.500  -1.802 124.782  0.00  0.00    +0.000 C 
ATOM      8  C   UNL     1      -5.300  -1.915 126.282  0.00  0.00    +0.000 C 
ATOM      9  C   UNL     1      -8.222   0.470 126.099  0.00  0.00    +0.000 A 
ATOM     10  C   UNL     1      -8.322   0.819 127.473  0.00  0.00    +0.000 A 
BRANCH   9  11
ATOM     11  C   UNL     1      -9.366   1.225 125.380  0.00  0.00    +0.000 C 
ATOM     12  N   UNL     1      -9.247   2.482 124.801  0.00  0.00    +0.000 N 
ATOM     13  O   UNL     1     -10.473   0.721 125.300  0.00  0.00    +0.000 OA
ATOM     14  H   UNL     1      -8.376   2.975 124.671  0.00  0.00    +0.000 HD
ATOM     15  H   UNL     1      -9.779   2.489 123.919  0.00  0.00    +0.000 HD
ENDBRANCH   9  11
BRANCH   6  16
ATOM     16  C   UNL     1      -7.462  -1.372 123.272  0.00  0.00    +0.000 C 
BRANCH  16  17
ATOM     17  C   UNL     1      -7.766  -2.820 123.110  0.00  0.00    +0.000 C 
BRANCH  17  18
ATOM     18  C   UNL     1      -8.671  -3.560 124.057  0.00  0.00    +0.000 C 
BRANCH  18  19
ATOM     19  O   UNL     1     -10.039  -3.146 123.932  0.00  0.00    +0.000 OA
ATOM     20  H   UNL     1     -10.139  -2.205 124.174  0.00  0.00    +0.000 HD
ENDBRANCH  18  19
ENDBRANCH  17  18
ENDBRANCH  16  17
ENDBRANCH   6  16
ENDBRANCH   1   2
BRANCH   1  22
ATOM     21  C   UNL     1      -8.073  -0.392 131.880  0.00  0.00    +0.000 C 
ATOM     22  C   UNL     1      -8.582   0.469 130.703  0.00  0.00    +0.000 C 
BRANCH  22  23
ATOM     23  N   UNL     1      -9.350   1.550 131.309  0.00  0.00    +0.000 NA
ATOM     24  H   UNL     1      -9.072   1.634 132.295  0.00  0.00    +0.000 HD
BRANCH  23  25
ATOM     25  C   UNL     1      -9.079   2.808 130.559  0.00  0.00    +0.000 C 
BRANCH  25  26
ATOM     26  C   UNL     1     -10.378   3.526 130.377  0.00  0.00    +0.000 C 
BRANCH  26  27
ATOM     27  O   UNL     1     -10.308   4.732 129.640  0.00  0.00    +0.000 OA
BRANCH  27  28
ATOM     28  C   UNL     1     -11.148   5.754 130.038  0.00  0.00    +0.000 A 
ATOM     29  C   UNL     1     -10.997   6.032 131.413  0.00  0.00    +0.000 A 
ATOM     30  C   UNL     1     -11.871   6.894 132.083  0.00  0.00    +0.000 A 
ATOM     31  C   UNL     1     -12.863   7.557 131.374  0.00  0.00    +0.000 A 
ATOM     32  C   UNL     1     -13.025   7.303 130.018  0.00  0.00    +0.000 A 
ATOM     33  C   UNL     1     -12.215   6.383 129.335  0.00  0.00    +0.000 A 
BRANCH  33  34
ATOM     34  O   UNL     1     -12.725   6.238 128.048  0.00  0.00    +0.000 OA
BRANCH  34  35
ATOM     35  C   UNL     1     -12.278   7.234 127.182  0.00  0.00    +0.000 C 
BRANCH  35  36
ATOM     36  C   UNL     1     -10.856   7.661 126.964  0.00  0.00    +0.000 C 
ATOM     37  F   UNL     1     -10.461   8.619 127.811  0.00  0.00    +0.000 F 
ATOM     38  F   UNL     1     -10.013   6.613 127.019  0.00  0.00    +0.000 F 
ATOM     39  F   UNL     1     -10.762   8.169 125.696  0.00  0.00    +0.000 F 
ENDBRANCH  35  36
ENDBRANCH  34  35
ENDBRANCH  33  34
ENDBRANCH  27  28
ENDBRANCH  26  27
ENDBRANCH  25  26
ENDBRANCH  23  25
ENDBRANCH  22  23
ENDBRANCH   1  22
TORSDOF 15
ENDMDL
MODEL 5
REMARK VINA RESULT:      -7.6      5.154      7.019
REMARK  Name = Silodosin
REMARK  16 active torsions:
REMARK  status: ('A' for Active; 'I' for Inactive)
REMARK    1  A    between atoms: C_1  and  C_2
REMARK    2  A    between atoms: C_2  and  C_3
REMARK    3  A    between atoms: C_2  and  N_20
REMARK    4  A    between atoms: C_3  and  C_4
REMARK    5  A    between atoms: N_8  and  C_9
REMARK    6  A    between atoms: C_9  and  C_10
REMARK    7  A    between atoms: C_10  and  C_11
REMARK    8  A    between atoms: C_11  and  O_12
REMARK    9  A    between atoms: C_15  and  C_17
REMARK   10  A    between atoms: N_20  and  C_21
REMARK   11  A    between atoms: C_21  and  C_22
REMARK   12  A    between atoms: C_22  and  O_23
REMARK   13  A    between atoms: O_23  and  C_24
REMARK   14  A    between atoms: C_29  and  O_30
REMARK   15  A    between atoms: O_30  and  C_31
REMARK   16  A    between atoms: C_31  and  C_32
REMARK                            x       y       z     vdW  Elec       q    Type
REMARK                         _______ _______ _______ _____ _____    ______ ____
ROOT
ATOM      1  C   UNL     1      -8.089  -3.671 129.224  0.00  0.00    +0.000 C 
ENDROOT
BRANCH   1   2
ATOM      2  C   UNL     1      -8.195  -2.914 127.917  0.00  0.00    +0.000 A 
ATOM      3  C   UNL     1      -8.921  -3.401 126.835  0.00  0.00    +0.000 A 
ATOM      4  C   UNL     1      -8.696  -2.902 125.575  0.00  0.00    +0.000 A 
ATOM      5  C   UNL     1      -7.919  -1.748 125.335  0.00  0.00    +0.000 A 
ATOM      6  N   UNL     1      -8.117  -1.441 123.975  0.00  0.00    +0.000 N 
ATOM      7  C   UNL     1      -8.656  -2.622 123.280  0.00  0.00    +0.000 C 
ATOM      8  C   UNL     1      -9.299  -3.498 124.339  0.00  0.00    +0.000 C 
ATOM      9  C   UNL     1      -7.247  -1.148 126.466  0.00  0.00    +0.000 A 
ATOM     10  C   UNL     1      -7.439  -1.756 127.735  0.00  0.00    +0.000 A 
BRANCH   9  11
ATOM     11  C   UNL     1      -6.371   0.104 126.718  0.00  0.00    +0.000 C 
ATOM     12  N   UNL     1      -4.990   0.149 126.571  0.00  0.00    +0.000 N 
ATOM     13  O   UNL     1      -6.887   1.145 127.084  0.00  0.00    +0.000 OA
ATOM     14  H   UNL     1      -4.432  -0.584 126.159  0.00  0.00    +0.000 HD
ATOM     15  H   UNL     1      -4.735   1.053 126.149  0.00  0.00    +0.000 HD
ENDBRANCH   9  11
BRANCH   6  16
ATOM     16  C   UNL     1      -7.851  -0.243 123.183  0.00  0.00    +0.000 C 
BRANCH  16  17
ATOM     17  C   UNL     1      -8.746   0.838 123.679  0.00  0.00    +0.000 C 
BRANCH  17  18
ATOM     18  C   UNL     1      -9.922   1.334 122.882  0.00  0.00    +0.000 C 
BRANCH  18  19
ATOM     19  O   UNL     1     -10.792   0.266 122.481  0.00  0.00    +0.000 OA
ATOM     20  H   UNL     1     -11.596   0.617 122.051  0.00  0.00    +0.000 HD
ENDBRANCH  18  19
ENDBRANCH  17  18
ENDBRANCH  16  17
ENDBRANCH   6  16
ENDBRANCH   1   2
BRANCH   1  22
ATOM     21  C   UNL     1      -7.484  -2.838 131.569  0.00  0.00    +0.000 C 
ATOM     22  C   UNL     1      -6.988  -3.075 130.125  0.00  0.00    +0.000 C 
BRANCH  22  23
ATOM     23  N   UNL     1      -5.822  -3.943 130.247  0.00  0.00    +0.000 NA
ATOM     24  H   UNL     1      -6.089  -4.891 129.953  0.00  0.00    +0.000 HD
BRANCH  23  25
ATOM     25  C   UNL     1      -4.729  -3.398 129.395  0.00  0.00    +0.000 C 
BRANCH  25  26
ATOM     26  C   UNL     1      -4.165  -2.194 130.082  0.00  0.00    +0.000 C 
BRANCH  26  27
ATOM     27  O   UNL     1      -4.401  -0.958 129.433  0.00  0.00    +0.000 OA
BRANCH  27  28
ATOM     28  C   UNL     1      -4.227   0.185 130.190  0.00  0.00    +0.000 A 
ATOM     29  C   UNL     1      -4.343  -0.094 131.568  0.00  0.00    +0.000 A 
ATOM     30  C   UNL     1      -4.392   0.932 132.517  0.00  0.00    +0.000 A 
ATOM     31  C   UNL     1      -4.244   2.252 132.114  0.00  0.00    +0.000 A 
ATOM     32  C   UNL     1      -4.121   2.547 130.762  0.00  0.00    +0.000 A 
ATOM     33  C   UNL     1      -4.149   1.546 129.780  0.00  0.00    +0.000 A 
BRANCH  33  34
ATOM     34  O   UNL     1      -4.165   2.169 128.535  0.00  0.00    +0.000 OA
BRANCH  34  35
ATOM     35  C   UNL     1      -3.316   3.273 128.480  0.00  0.00    +0.000 C 
BRANCH  35  36
ATOM     36  C   UNL     1      -2.552   3.757 127.283  0.00  0.00    +0.000 C 
ATOM     37  F   UNL     1      -3.232   3.622 126.138  0.00  0.00    +0.000 F 
ATOM     38  F   UNL     1      -2.148   5.032 127.439  0.00  0.00    +0.000 F 
ATOM     39  F   UNL     1      -1.415   3.000 127.178  0.00  0.00    +0.000 F 
ENDBRANCH  35  36
ENDBRANCH  34  35
ENDBRANCH  33  34
ENDBRANCH  27  28
ENDBRANCH  26  27
ENDBRANCH  25  26
ENDBRANCH  23  25
ENDBRANCH  22  23
ENDBRANCH   1  22
TORSDOF 15
ENDMDL
MODEL 6
REMARK VINA RESULT:      -7.6      3.986      9.198
REMARK  Name = Silodosin
REMARK  16 active torsions:
REMARK  status: ('A' for Active; 'I' for Inactive)
REMARK    1  A    between atoms: C_1  and  C_2
REMARK    2  A    between atoms: C_2  and  C_3
REMARK    3  A    between atoms: C_2  and  N_20
REMARK    4  A    between atoms: C_3  and  C_4
REMARK    5  A    between atoms: N_8  and  C_9
REMARK    6  A    between atoms: C_9  and  C_10
REMARK    7  A    between atoms: C_10  and  C_11
REMARK    8  A    between atoms: C_11  and  O_12
REMARK    9  A    between atoms: C_15  and  C_17
REMARK   10  A    between atoms: N_20  and  C_21
REMARK   11  A    between atoms: C_21  and  C_22
REMARK   12  A    between atoms: C_22  and  O_23
REMARK   13  A    between atoms: O_23  and  C_24
REMARK   14  A    between atoms: C_29  and  O_30
REMARK   15  A    between atoms: O_30  and  C_31
REMARK   16  A    between atoms: C_31  and  C_32
REMARK                            x       y       z     vdW  Elec       q    Type
REMARK                         _______ _______ _______ _____ _____    ______ ____
ROOT
ATOM      1  C   UNL     1      -7.891  -1.535 130.400  0.00  0.00    +0.000 C 
ENDROOT
BRANCH   1   2
ATOM      2  C   UNL     1      -8.182  -0.053 130.284  0.00  0.00    +0.000 A 
ATOM      3  C   UNL     1      -8.138   0.619 129.067  0.00  0.00    +0.000 A 
ATOM      4  C   UNL     1      -8.032   1.988 129.040  0.00  0.00    +0.000 A 
ATOM      5  C   UNL     1      -8.192   2.792 130.190  0.00  0.00    +0.000 A 
ATOM      6  N   UNL     1      -8.238   4.116 129.716  0.00  0.00    +0.000 N 
ATOM      7  C   UNL     1      -7.685   4.167 128.352  0.00  0.00    +0.000 C 
ATOM      8  C   UNL     1      -7.793   2.766 127.782  0.00  0.00    +0.000 C 
ATOM      9  C   UNL     1      -8.361   2.117 131.459  0.00  0.00    +0.000 A 
ATOM     10  C   UNL     1      -8.372   0.697 131.444  0.00  0.00    +0.000 A 
BRANCH   9  11
ATOM     11  C   UNL     1      -8.624   2.534 132.926  0.00  0.00    +0.000 C 
ATOM     12  N   UNL     1      -9.737   3.240 133.364  0.00  0.00    +0.000 N 
ATOM     13  O   UNL     1      -7.815   2.252 133.793  0.00  0.00    +0.000 OA
ATOM     14  H   UNL     1     -10.551   3.437 132.800  0.00  0.00    +0.000 HD
ATOM     15  H   UNL     1     -10.035   2.853 134.271  0.00  0.00    +0.000 HD
ENDBRANCH   9  11
BRANCH   6  16
ATOM     16  C   UNL     1      -8.671   5.371 130.326  0.00  0.00    +0.000 C 
BRANCH  16  17
ATOM     17  C   UNL     1     -10.070   5.629 129.891  0.00  0.00    +0.000 C 
BRANCH  17  18
ATOM     18  C   UNL     1     -11.246   4.927 130.514  0.00  0.00    +0.000 C 
BRANCH  18  19
ATOM     19  O   UNL     1     -11.900   5.739 131.500  0.00  0.00    +0.000 OA
ATOM     20  H   UNL     1     -11.430   5.689 132.355  0.00  0.00    +0.000 HD
ENDBRANCH  18  19
ENDBRANCH  17  18
ENDBRANCH  16  17
ENDBRANCH   6  16
ENDBRANCH   1   2
BRANCH   1  22
ATOM     21  C   UNL     1      -5.687  -1.912 129.151  0.00  0.00    +0.000 C 
ATOM     22  C   UNL     1      -7.224  -2.073 129.118  0.00  0.00    +0.000 C 
BRANCH  22  23
ATOM     23  N   UNL     1      -7.466  -3.495 128.906  0.00  0.00    +0.000 NA
ATOM     24  H   UNL     1      -7.579  -3.948 129.822  0.00  0.00    +0.000 HD
BRANCH  23  25
ATOM     25  C   UNL     1      -8.686  -3.653 128.066  0.00  0.00    +0.000 C 
BRANCH  25  26
ATOM     26  C   UNL     1      -8.565  -2.727 126.898  0.00  0.00    +0.000 C 
BRANCH  26  27
ATOM     27  O   UNL     1      -8.910  -3.284 125.643  0.00  0.00    +0.000 OA
BRANCH  27  28
ATOM     28  C   UNL     1      -8.143  -2.899 124.560  0.00  0.00    +0.000 A 
ATOM     29  C   UNL     1      -6.831  -3.409 124.657  0.00  0.00    +0.000 A 
ATOM     30  C   UNL     1      -5.823  -3.000 123.778  0.00  0.00    +0.000 A 
ATOM     31  C   UNL     1      -6.126  -2.135 122.736  0.00  0.00    +0.000 A 
ATOM     32  C   UNL     1      -7.414  -1.627 122.619  0.00  0.00    +0.000 A 
ATOM     33  C   UNL     1      -8.426  -1.956 123.532  0.00  0.00    +0.000 A 
BRANCH  33  34
ATOM     34  O   UNL     1      -9.539  -1.172 123.238  0.00  0.00    +0.000 OA
BRANCH  34  35
ATOM     35  C   UNL     1      -9.340   0.173 123.545  0.00  0.00    +0.000 C 
BRANCH  35  36
ATOM     36  C   UNL     1      -9.207   0.770 124.915  0.00  0.00    +0.000 C 
ATOM     37  F   UNL     1      -9.496   2.077 124.947  0.00  0.00    +0.000 F 
ATOM     38  F   UNL     1      -9.954   0.104 125.817  0.00  0.00    +0.000 F 
ATOM     39  F   UNL     1      -7.904   0.627 125.309  0.00  0.00    +0.000 F 
ENDBRANCH  35  36
ENDBRANCH  34  35
ENDBRANCH  33  34
ENDBRANCH  27  28
ENDBRANCH  26  27
ENDBRANCH  25  26
ENDBRANCH  23  25
ENDBRANCH  22  23
ENDBRANCH   1  22
TORSDOF 15
ENDMDL
MODEL 7
REMARK VINA RESULT:      -7.6      5.099      8.250
REMARK  Name = Silodosin
REMARK  16 active torsions:
REMARK  status: ('A' for Active; 'I' for Inactive)
REMARK    1  A    between atoms: C_1  and  C_2
REMARK    2  A    between atoms: C_2  and  C_3
REMARK    3  A    between atoms: C_2  and  N_20
REMARK    4  A    between atoms: C_3  and  C_4
REMARK    5  A    between atoms: N_8  and  C_9
REMARK    6  A    between atoms: C_9  and  C_10
REMARK    7  A    between atoms: C_10  and  C_11
REMARK    8  A    between atoms: C_11  and  O_12
REMARK    9  A    between atoms: C_15  and  C_17
REMARK   10  A    between atoms: N_20  and  C_21
REMARK   11  A    between atoms: C_21  and  C_22
REMARK   12  A    between atoms: C_22  and  O_23
REMARK   13  A    between atoms: O_23  and  C_24
REMARK   14  A    between atoms: C_29  and  O_30
REMARK   15  A    between atoms: O_30  and  C_31
REMARK   16  A    between atoms: C_31  and  C_32
REMARK                            x       y       z     vdW  Elec       q    Type
REMARK                         _______ _______ _______ _____ _____    ______ ____
ROOT
ATOM      1  C   UNL     1      -9.476  -2.532 125.816  0.00  0.00    +0.000 C 
ENDROOT
BRANCH   1   2
ATOM      2  C   UNL     1      -8.482  -2.193 126.908  0.00  0.00    +0.000 A 
ATOM      3  C   UNL     1      -7.935  -3.165 127.740  0.00  0.00    +0.000 A 
ATOM      4  C   UNL     1      -7.352  -2.803 128.929  0.00  0.00    +0.000 A 
ATOM      5  C   UNL     1      -7.067  -1.462 129.266  0.00  0.00    +0.000 A 
ATOM      6  N   UNL     1      -6.281  -1.529 130.433  0.00  0.00    +0.000 N 
ATOM      7  C   UNL     1      -6.438  -2.856 131.052  0.00  0.00    +0.000 C 
ATOM      8  C   UNL     1      -6.909  -3.797 129.960  0.00  0.00    +0.000 C 
ATOM      9  C   UNL     1      -7.520  -0.433 128.356  0.00  0.00    +0.000 A 
ATOM     10  C   UNL     1      -8.199  -0.856 127.183  0.00  0.00    +0.000 A 
BRANCH   9  11
ATOM     11  C   UNL     1      -7.403   1.107 128.253  0.00  0.00    +0.000 C 
ATOM     12  N   UNL     1      -8.041   1.890 127.298  0.00  0.00    +0.000 N 
ATOM     13  O   UNL     1      -6.704   1.719 129.042  0.00  0.00    +0.000 OA
ATOM     14  H   UNL     1      -8.747   1.555 126.659  0.00  0.00    +0.000 HD
ATOM     15  H   UNL     1      -8.370   2.755 127.750  0.00  0.00    +0.000 HD
ENDBRANCH   9  11
BRANCH   6  16
ATOM     16  C   UNL     1      -5.432  -0.553 131.111  0.00  0.00    +0.000 C 
BRANCH  16  17
ATOM     17  C   UNL     1      -4.079  -0.622 130.494  0.00  0.00    +0.000 C 
BRANCH  17  18
ATOM     18  C   UNL     1      -3.082  -1.688 130.862  0.00  0.00    +0.000 C 
BRANCH  18  19
ATOM     19  O   UNL     1      -2.508  -2.313 129.705  0.00  0.00    +0.000 OA
ATOM     20  H   UNL     1      -2.278  -3.243 129.894  0.00  0.00    +0.000 HD
ENDBRANCH  18  19
ENDBRANCH  17  18
ENDBRANCH  16  17
ENDBRANCH   6  16
ENDBRANCH   1   2
BRANCH   1  22
ATOM     21  C   UNL     1      -9.576  -3.461 123.432  0.00  0.00    +0.000 C 
ATOM     22  C   UNL     1      -8.789  -2.588 124.436  0.00  0.00    +0.000 C 
BRANCH  22  23
ATOM     23  N   UNL     1      -8.668  -1.278 123.808  0.00  0.00    +0.000 NA
ATOM     24  H   UNL     1      -8.938  -0.561 124.493  0.00  0.00    +0.000 HD
BRANCH  23  25
ATOM     25  C   UNL     1      -7.261  -1.095 123.354  0.00  0.00    +0.000 C 
BRANCH  25  26
ATOM     26  C   UNL     1      -6.639  -0.027 124.198  0.00  0.00    +0.000 C 
BRANCH  26  27
ATOM     27  O   UNL     1      -7.385   1.170 124.310  0.00  0.00    +0.000 OA
BRANCH  27  28
ATOM     28  C   UNL     1      -6.750   2.337 123.929  0.00  0.00    +0.000 A 
ATOM     29  C   UNL     1      -6.783   2.502 122.528  0.00  0.00    +0.000 A 
ATOM     30  C   UNL     1      -6.045   3.506 121.896  0.00  0.00    +0.000 A 
ATOM     31  C   UNL     1      -5.324   4.416 122.656  0.00  0.00    +0.000 A 
ATOM     32  C   UNL     1      -5.284   4.276 124.038  0.00  0.00    +0.000 A 
ATOM     33  C   UNL     1      -5.948   3.230 124.696  0.00  0.00    +0.000 A 
BRANCH  33  34
ATOM     34  O   UNL     1      -5.588   3.272 126.040  0.00  0.00    +0.000 OA
BRANCH  34  35
ATOM     35  C   UNL     1      -4.437   2.532 126.307  0.00  0.00    +0.000 C 
BRANCH  35  36
ATOM     36  C   UNL     1      -3.167   3.042 126.922  0.00  0.00    +0.000 C 
ATOM     37  F   UNL     1      -3.059   4.376 126.873  0.00  0.00    +0.000 F 
ATOM     38  F   UNL     1      -3.024   2.609 128.189  0.00  0.00    +0.000 F 
ATOM     39  F   UNL     1      -2.119   2.518 126.213  0.00  0.00    +0.000 F 
ENDBRANCH  35  36
ENDBRANCH  34  35
ENDBRANCH  33  34
ENDBRANCH  27  28
ENDBRANCH  26  27
ENDBRANCH  25  26
ENDBRANCH  23  25
ENDBRANCH  22  23
ENDBRANCH   1  22
TORSDOF 15
ENDMDL
MODEL 8
REMARK VINA RESULT:      -7.5      5.281      7.752
REMARK  Name = Silodosin
REMARK  16 active torsions:
REMARK  status: ('A' for Active; 'I' for Inactive)
REMARK    1  A    between atoms: C_1  and  C_2
REMARK    2  A    between atoms: C_2  and  C_3
REMARK    3  A    between atoms: C_2  and  N_20
REMARK    4  A    between atoms: C_3  and  C_4
REMARK    5  A    between atoms: N_8  and  C_9
REMARK    6  A    between atoms: C_9  and  C_10
REMARK    7  A    between atoms: C_10  and  C_11
REMARK    8  A    between atoms: C_11  and  O_12
REMARK    9  A    between atoms: C_15  and  C_17
REMARK   10  A    between atoms: N_20  and  C_21
REMARK   11  A    between atoms: C_21  and  C_22
REMARK   12  A    between atoms: C_22  and  O_23
REMARK   13  A    between atoms: O_23  and  C_24
REMARK   14  A    between atoms: C_29  and  O_30
REMARK   15  A    between atoms: O_30  and  C_31
REMARK   16  A    between atoms: C_31  and  C_32
REMARK                            x       y       z     vdW  Elec       q    Type
REMARK                         _______ _______ _______ _____ _____    ______ ____
ROOT
ATOM      1  C   UNL     1      -5.703   3.586 126.976  0.00  0.00    +0.000 C 
ENDROOT
BRANCH   1   2
ATOM      2  C   UNL     1      -5.746   3.430 125.470  0.00  0.00    +0.000 A 
ATOM      3  C   UNL     1      -4.832   4.062 124.632  0.00  0.00    +0.000 A 
ATOM      4  C   UNL     1      -5.114   4.211 123.296  0.00  0.00    +0.000 A 
ATOM      5  C   UNL     1      -6.191   3.555 122.661  0.00  0.00    +0.000 A 
ATOM      6  N   UNL     1      -6.005   3.779 121.284  0.00  0.00    +0.000 N 
ATOM      7  C   UNL     1      -5.080   4.909 121.092  0.00  0.00    +0.000 C 
ATOM      8  C   UNL     1      -4.273   5.038 122.370  0.00  0.00    +0.000 C 
ATOM      9  C   UNL     1      -7.091   2.789 123.495  0.00  0.00    +0.000 A 
ATOM     10  C   UNL     1      -6.808   2.741 124.886  0.00  0.00    +0.000 A 
BRANCH   9  11
ATOM     11  C   UNL     1      -8.326   1.881 123.276  0.00  0.00    +0.000 C 
ATOM     12  N   UNL     1      -8.325   0.497 123.397  0.00  0.00    +0.000 N 
ATOM     13  O   UNL     1      -9.396   2.373 122.964  0.00  0.00    +0.000 OA
ATOM     14  H   UNL     1      -7.560  -0.047 123.768  0.00  0.00    +0.000 HD
ATOM     15  H   UNL     1      -9.203   0.207 123.851  0.00  0.00    +0.000 HD
ENDBRANCH   9  11
BRANCH   6  16
ATOM     16  C   UNL     1      -6.572   3.150 120.094  0.00  0.00    +0.000 C 
BRANCH  16  17
ATOM     17  C   UNL     1      -7.246   4.211 119.296  0.00  0.00    +0.000 C 
BRANCH  17  18
ATOM     18  C   UNL     1      -8.743   4.360 119.262  0.00  0.00    +0.000 C 
BRANCH  18  19
ATOM     19  O   UNL     1      -9.390   3.537 120.244  0.00  0.00    +0.000 OA
ATOM     20  H   UNL     1     -10.118   3.026 119.840  0.00  0.00    +0.000 HD
ENDBRANCH  18  19
ENDBRANCH  17  18
ENDBRANCH  16  17
ENDBRANCH   6  16
ENDBRANCH   1   2
BRANCH   1  22
ATOM     21  C   UNL     1      -4.242   3.359 129.067  0.00  0.00    +0.000 C 
ATOM     22  C   UNL     1      -4.355   3.101 127.547  0.00  0.00    +0.000 C 
BRANCH  22  23
ATOM     23  N   UNL     1      -4.148   1.668 127.376  0.00  0.00    +0.000 NA
ATOM     24  H   UNL     1      -3.205   1.432 127.710  0.00  0.00    +0.000 HD
BRANCH  23  25
ATOM     25  C   UNL     1      -5.196   0.938 128.143  0.00  0.00    +0.000 C 
BRANCH  25  26
ATOM     26  C   UNL     1      -5.741  -0.144 127.267  0.00  0.00    +0.000 C 
BRANCH  26  27
ATOM     27  O   UNL     1      -7.143  -0.121 127.074  0.00  0.00    +0.000 OA
BRANCH  27  28
ATOM     28  C   UNL     1      -7.807  -1.327 127.194  0.00  0.00    +0.000 A 
ATOM     29  C   UNL     1      -7.806  -1.780 128.530  0.00  0.00    +0.000 A 
ATOM     30  C   UNL     1      -8.251  -3.062 128.865  0.00  0.00    +0.000 A 
ATOM     31  C   UNL     1      -8.781  -3.887 127.882  0.00  0.00    +0.000 A 
ATOM     32  C   UNL     1      -8.797  -3.458 126.561  0.00  0.00    +0.000 A 
ATOM     33  C   UNL     1      -8.284  -2.208 126.182  0.00  0.00    +0.000 A 
BRANCH  33  34
ATOM     34  O   UNL     1      -8.301  -2.143 124.791  0.00  0.00    +0.000 OA
BRANCH  34  35
ATOM     35  C   UNL     1      -7.270  -2.879 124.211  0.00  0.00    +0.000 C 
BRANCH  35  36
ATOM     36  C   UNL     1      -5.817  -2.506 124.167  0.00  0.00    +0.000 C 
ATOM     37  F   UNL     1      -5.126  -2.966 125.219  0.00  0.00    +0.000 F 
ATOM     38  F   UNL     1      -5.239  -2.907 123.019  0.00  0.00    +0.000 F 
ATOM     39  F   UNL     1      -5.735  -1.140 124.187  0.00  0.00    +0.000 F 
ENDBRANCH  35  36
ENDBRANCH  34  35
ENDBRANCH  33  34
ENDBRANCH  27  28
ENDBRANCH  26  27
ENDBRANCH  25  26
ENDBRANCH  23  25
ENDBRANCH  22  23
ENDBRANCH   1  22
TORSDOF 15
ENDMDL
MODEL 9
REMARK VINA RESULT:      -7.4      3.922      8.821
REMARK  Name = Silodosin
REMARK  16 active torsions:
REMARK  status: ('A' for Active; 'I' for Inactive)
REMARK    1  A    between atoms: C_1  and  C_2
REMARK    2  A    between atoms: C_2  and  C_3
REMARK    3  A    between atoms: C_2  and  N_20
REMARK    4  A    between atoms: C_3  and  C_4
REMARK    5  A    between atoms: N_8  and  C_9
REMARK    6  A    between atoms: C_9  and  C_10
REMARK    7  A    between atoms: C_10  and  C_11
REMARK    8  A    between atoms: C_11  and  O_12
REMARK    9  A    between atoms: C_15  and  C_17
REMARK   10  A    between atoms: N_20  and  C_21
REMARK   11  A    between atoms: C_21  and  C_22
REMARK   12  A    between atoms: C_22  and  O_23
REMARK   13  A    between atoms: O_23  and  C_24
REMARK   14  A    between atoms: C_29  and  O_30
REMARK   15  A    between atoms: O_30  and  C_31
REMARK   16  A    between atoms: C_31  and  C_32
REMARK                            x       y       z     vdW  Elec       q    Type
REMARK                         _______ _______ _______ _____ _____    ______ ____
ROOT
ATOM      1  C   UNL     1      -8.316  -1.567 130.980  0.00  0.00    +0.000 C 
ENDROOT
BRANCH   1   2
ATOM      2  C   UNL     1      -8.240  -0.055 130.940  0.00  0.00    +0.000 A 
ATOM      3  C   UNL     1      -8.441   0.728 132.073  0.00  0.00    +0.000 A 
ATOM      4  C   UNL     1      -8.738   2.063 131.943  0.00  0.00    +0.000 A 
ATOM      5  C   UNL     1      -8.631   2.756 130.717  0.00  0.00    +0.000 A 
ATOM      6  N   UNL     1      -8.794   4.116 131.042  0.00  0.00    +0.000 N 
ATOM      7  C   UNL     1      -9.420   4.230 132.370  0.00  0.00    +0.000 C 
ATOM      8  C   UNL     1      -9.149   2.926 133.097  0.00  0.00    +0.000 C 
ATOM      9  C   UNL     1      -8.303   1.983 129.539  0.00  0.00    +0.000 A 
ATOM     10  C   UNL     1      -8.095   0.589 129.712  0.00  0.00    +0.000 A 
BRANCH   9  11
ATOM     11  C   UNL     1      -8.023   2.277 128.045  0.00  0.00    +0.000 C 
ATOM     12  N   UNL     1      -7.318   1.440 127.190  0.00  0.00    +0.000 N 
ATOM     13  O   UNL     1      -8.425   3.312 127.542  0.00  0.00    +0.000 OA
ATOM     14  H   UNL     1      -7.031   0.499 127.414  0.00  0.00    +0.000 HD
ATOM     15  H   UNL     1      -7.780   1.447 126.269  0.00  0.00    +0.000 HD
ENDBRANCH   9  11
BRANCH   6  16
ATOM     16  C   UNL     1      -8.508   5.349 130.313  0.00  0.00    +0.000 C 
BRANCH  16  17
ATOM     17  C   UNL     1      -9.345   6.430 130.902  0.00  0.00    +0.000 C 
BRANCH  17  18
ATOM     18  C   UNL     1     -10.308   7.239 130.077  0.00  0.00    +0.000 C 
BRANCH  18  19
ATOM     19  O   UNL     1      -9.751   7.612 128.808  0.00  0.00    +0.000 OA
ATOM     20  H   UNL     1     -10.376   7.412 128.084  0.00  0.00    +0.000 HD
ENDBRANCH  18  19
ENDBRANCH  17  18
ENDBRANCH  16  17
ENDBRANCH   6  16
ENDBRANCH   1   2
BRANCH   1  22
ATOM     21  C   UNL     1      -6.284  -2.758 131.983  0.00  0.00    +0.000 C 
ATOM     22  C   UNL     1      -6.939  -2.201 130.699  0.00  0.00    +0.000 C 
BRANCH  22  23
ATOM     23  N   UNL     1      -7.009  -3.326 129.774  0.00  0.00    +0.000 NA
ATOM     24  H   UNL     1      -7.100  -4.193 130.320  0.00  0.00    +0.000 HD
BRANCH  23  25
ATOM     25  C   UNL     1      -8.176  -3.129 128.869  0.00  0.00    +0.000 C 
BRANCH  25  26
ATOM     26  C   UNL     1      -7.664  -2.613 127.562  0.00  0.00    +0.000 C 
BRANCH  26  27
ATOM     27  O   UNL     1      -8.444  -1.595 126.963  0.00  0.00    +0.000 OA
BRANCH  27  28
ATOM     28  C   UNL     1      -8.678  -1.708 125.606  0.00  0.00    +0.000 A 
ATOM     29  C   UNL     1      -9.250  -2.958 125.289  0.00  0.00    +0.000 A 
ATOM     30  C   UNL     1      -9.402  -3.375 123.964  0.00  0.00    +0.000 A 
ATOM     31  C   UNL     1      -9.060  -2.518 122.928  0.00  0.00    +0.000 A 
ATOM     32  C   UNL     1      -8.501  -1.279 123.218  0.00  0.00    +0.000 A 
ATOM     33  C   UNL     1      -8.262  -0.865 124.536  0.00  0.00    +0.000 A 
BRANCH  33  34
ATOM     34  O   UNL     1      -7.559   0.335 124.487  0.00  0.00    +0.000 OA
BRANCH  34  35
ATOM     35  C   UNL     1      -7.990   1.164 123.453  0.00  0.00    +0.000 C 
BRANCH  35  36
ATOM     36  C   UNL     1      -8.912   2.341 123.573  0.00  0.00    +0.000 C 
ATOM     37  F   UNL     1      -8.428   3.308 124.363  0.00  0.00    +0.000 F 
ATOM     38  F   UNL     1      -9.233   2.843 122.365  0.00  0.00    +0.000 F 
ATOM     39  F   UNL     1     -10.082   1.901 124.133  0.00  0.00    +0.000 F 
ENDBRANCH  35  36
ENDBRANCH  34  35
ENDBRANCH  33  34
ENDBRANCH  27  28
ENDBRANCH  26  27
ENDBRANCH  25  26
ENDBRANCH  23  25
ENDBRANCH  22  23
ENDBRANCH   1  22
TORSDOF 15
ENDMDL
