MODEL 1
REMARK VINA RESULT:      -8.3      0.000      0.000
REMARK  Name = Simvastatin
REMARK  13 active torsions:
REMARK  status: ('A' for Active; 'I' for Inactive)
REMARK    1  A    between atoms: C_3  and  O_24
REMARK    2  A    between atoms: C_5  and  C_6
REMARK    3  A    between atoms: C_11  and  C_12
REMARK    4  A    between atoms: C_13  and  C_14
REMARK    5  A    between atoms: C_14  and  C_15
REMARK    6  A    between atoms: C_15  and  C_16
REMARK    7  A    between atoms: C_18  and  O_19
REMARK    8  A    between atoms: O_24  and  C_25
REMARK    9  A    between atoms: C_25  and  C_27
REMARK   10  A    between atoms: C_27  and  C_28
REMARK   11  A    between atoms: C_27  and  C_29
REMARK   12  A    between atoms: C_27  and  C_30
REMARK   13  A    between atoms: C_30  and  C_31
REMARK                            x       y       z     vdW  Elec       q    Type
REMARK                         _______ _______ _______ _____ _____    ______ ____
ROOT
ATOM      1  C   UNL     1      -7.091   3.760 131.205  0.00  0.00    +0.000 C 
ATOM      2  C   UNL     1      -5.783   4.410 130.678  0.00  0.00    +0.000 C 
ATOM      3  C   UNL     1      -4.624   3.436 130.574  0.00  0.00    +0.000 C 
ATOM      4  C   UNL     1      -4.245   2.883 131.917  0.00  0.00    +0.000 C 
ATOM      5  C   UNL     1      -3.266   3.853 132.583  0.00  0.00    +0.000 C 
ATOM      6  C   UNL     1      -5.459   2.629 132.768  0.00  0.00    +0.000 C 
ATOM      7  C   UNL     1      -6.726   2.994 132.472  0.00  0.00    +0.000 C 
ATOM      8  C   UNL     1      -7.802   2.685 133.389  0.00  0.00    +0.000 C 
ATOM      9  C   UNL     1      -9.074   3.052 133.187  0.00  0.00    +0.000 C 
ATOM     10  C   UNL     1      -9.536   3.846 132.009  0.00  0.00    +0.000 C 
ATOM     11  C   UNL     1     -10.185   2.915 130.970  0.00  0.00    +0.000 C 
ATOM     12  C   UNL     1      -8.386   4.676 131.407  0.00  0.00    +0.000 C 
ENDROOT
BRANCH  12  13
ATOM     13  C   UNL     1      -9.058   5.386 130.174  0.00  0.00    +0.000 C 
BRANCH  13  14
ATOM     14  C   UNL     1      -9.509   6.733 130.564  0.00  0.00    +0.000 C 
BRANCH  14  15
ATOM     15  C   UNL     1     -10.378   7.650 129.656  0.00  0.00    +0.000 C 
ATOM     16  C   UNL     1     -11.920   7.477 129.761  0.00  0.00    +0.000 C 
ATOM     17  C   UNL     1     -12.709   8.100 128.689  0.00  0.00    +0.000 C 
ATOM     18  C   UNL     1     -12.287   7.258 127.545  0.00  0.00    +0.000 C 
ATOM     19  C   UNL     1     -10.798   7.172 127.351  0.00  0.00    +0.000 C 
ATOM     20  O   UNL     1     -10.333   6.745 126.273  0.00  0.00    +0.000 OA
ATOM     21  O   UNL     1      -9.940   7.503 128.322  0.00  0.00    +0.000 OA
BRANCH  17  22
ATOM     22  O   UNL     1     -12.471   9.496 128.617  0.00  0.00    +0.000 OA
ATOM     23  H   UNL     1     -12.491   9.803 127.695  0.00  0.00    +0.000 HD
ENDBRANCH  17  22
ENDBRANCH  14  15
ENDBRANCH  13  14
ENDBRANCH  12  13
BRANCH   2  24
ATOM     24  O   UNL     1      -5.441   5.652 131.336  0.00  0.00    +0.000 OA
BRANCH  24  25
ATOM     25  C   UNL     1      -5.234   6.906 130.847  0.00  0.00    +0.000 C 
ATOM     26  O   UNL     1      -6.222   7.564 130.513  0.00  0.00    +0.000 OA
BRANCH  25  27
ATOM     27  C   UNL     1      -3.787   7.441 130.562  0.00  0.00    +0.000 C 
ATOM     28  C   UNL     1      -2.911   6.740 129.583  0.00  0.00    +0.000 C 
ATOM     29  C   UNL     1      -3.892   8.690 129.811  0.00  0.00    +0.000 C 
BRANCH  27  30
ATOM     30  C   UNL     1      -3.081   7.837 131.925  0.00  0.00    +0.000 C 
ATOM     31  C   UNL     1      -1.704   7.198 132.205  0.00  0.00    +0.000 C 
ENDBRANCH  27  30
ENDBRANCH  25  27
ENDBRANCH  24  25
ENDBRANCH   2  24
TORSDOF 8
ENDMDL
MODEL 2
REMARK VINA RESULT:      -8.1      1.726      2.703
REMARK  Name = Simvastatin
REMARK  13 active torsions:
REMARK  status: ('A' for Active; 'I' for Inactive)
REMARK    1  A    between atoms: C_3  and  O_24
REMARK    2  A    between atoms: C_5  and  C_6
REMARK    3  A    between atoms: C_11  and  C_12
REMARK    4  A    between atoms: C_13  and  C_14
REMARK    5  A    between atoms: C_14  and  C_15
REMARK    6  A    between atoms: C_15  and  C_16
REMARK    7  A    between atoms: C_18  and  O_19
REMARK    8  A    between atoms: O_24  and  C_25
REMARK    9  A    between atoms: C_25  and  C_27
REMARK   10  A    between atoms: C_27  and  C_28
REMARK   11  A    between atoms: C_27  and  C_29
REMARK   12  A    between atoms: C_27  and  C_30
REMARK   13  A    between atoms: C_30  and  C_31
REMARK                            x       y       z     vdW  Elec       q    Type
REMARK                         _______ _______ _______ _____ _____    ______ ____
ROOT
ATOM      1  C   UNL     1      -8.790   4.104 130.899  0.00  0.00    +0.000 C 
ATOM      2  C   UNL     1      -8.095   3.665 129.582  0.00  0.00    +0.000 C 
ATOM      3  C   UNL     1      -8.618   2.350 129.032  0.00  0.00    +0.000 C 
ATOM      4  C   UNL     1      -8.363   1.214 129.979  0.00  0.00    +0.000 C 
ATOM      5  C   UNL     1      -6.955   0.672 129.717  0.00  0.00    +0.000 C 
ATOM      6  C   UNL     1      -8.549   1.641 131.410  0.00  0.00    +0.000 C 
ATOM      7  C   UNL     1      -8.751   2.905 131.841  0.00  0.00    +0.000 C 
ATOM      8  C   UNL     1      -8.913   3.171 133.254  0.00  0.00    +0.000 C 
ATOM      9  C   UNL     1      -9.073   4.400 133.761  0.00  0.00    +0.000 C 
ATOM     10  C   UNL     1      -9.077   5.648 132.940  0.00  0.00    +0.000 C 
ATOM     11  C   UNL     1     -10.522   6.120 132.708  0.00  0.00    +0.000 C 
ATOM     12  C   UNL     1      -8.312   5.449 131.617  0.00  0.00    +0.000 C 
ENDROOT
BRANCH  12  13
ATOM     13  C   UNL     1      -8.473   6.837 130.893  0.00  0.00    +0.000 C 
BRANCH  13  14
ATOM     14  C   UNL     1      -9.353   6.686 129.722  0.00  0.00    +0.000 C 
BRANCH  14  15
ATOM     15  C   UNL     1     -10.362   7.773 129.252  0.00  0.00    +0.000 C 
ATOM     16  C   UNL     1     -11.868   7.491 129.523  0.00  0.00    +0.000 C 
ATOM     17  C   UNL     1     -12.819   8.348 128.800  0.00  0.00    +0.000 C 
ATOM     18  C   UNL     1     -12.568   7.890 127.414  0.00  0.00    +0.000 C 
ATOM     19  C   UNL     1     -11.125   7.945 126.992  0.00  0.00    +0.000 C 
ATOM     20  O   UNL     1     -10.826   7.867 125.781  0.00  0.00    +0.000 OA
ATOM     21  O   UNL     1     -10.133   8.034 127.884  0.00  0.00    +0.000 OA
BRANCH  17  22
ATOM     22  O   UNL     1     -12.612   9.718 129.101  0.00  0.00    +0.000 OA
ATOM     23  H   UNL     1     -11.669   9.900 129.252  0.00  0.00    +0.000 HD
ENDBRANCH  17  22
ENDBRANCH  14  15
ENDBRANCH  13  14
ENDBRANCH  12  13
BRANCH   2  24
ATOM     24  O   UNL     1      -6.651   3.742 129.627  0.00  0.00    +0.000 OA
BRANCH  24  25
ATOM     25  C   UNL     1      -5.776   4.620 129.066  0.00  0.00    +0.000 C 
ATOM     26  O   UNL     1      -5.815   4.770 127.843  0.00  0.00    +0.000 OA
BRANCH  25  27
ATOM     27  C   UNL     1      -4.645   5.299 129.917  0.00  0.00    +0.000 C 
ATOM     28  C   UNL     1      -4.829   6.685 130.431  0.00  0.00    +0.000 C 
ATOM     29  C   UNL     1      -4.595   4.652 131.226  0.00  0.00    +0.000 C 
BRANCH  27  30
ATOM     30  C   UNL     1      -3.231   5.013 129.260  0.00  0.00    +0.000 C 
ATOM     31  C   UNL     1      -2.316   6.233 129.024  0.00  0.00    +0.000 C 
ENDBRANCH  27  30
ENDBRANCH  25  27
ENDBRANCH  24  25
ENDBRANCH   2  24
TORSDOF 8
ENDMDL
MODEL 3
REMARK VINA RESULT:      -8.0      3.260      5.037
REMARK  Name = Simvastatin
REMARK  13 active torsions:
REMARK  status: ('A' for Active; 'I' for Inactive)
REMARK    1  A    between atoms: C_3  and  O_24
REMARK    2  A    between atoms: C_5  and  C_6
REMARK    3  A    between atoms: C_11  and  C_12
REMARK    4  A    between atoms: C_13  and  C_14
REMARK    5  A    between atoms: C_14  and  C_15
REMARK    6  A    between atoms: C_15  and  C_16
REMARK    7  A    between atoms: C_18  and  O_19
REMARK    8  A    between atoms: O_24  and  C_25
REMARK    9  A    between atoms: C_25  and  C_27
REMARK   10  A    between atoms: C_27  and  C_28
REMARK   11  A    between atoms: C_27  and  C_29
REMARK   12  A    between atoms: C_27  and  C_30
REMARK   13  A    between atoms: C_30  and  C_31
REMARK                            x       y       z     vdW  Elec       q    Type
REMARK                         _______ _______ _______ _____ _____    ______ ____
ROOT
ATOM      1  C   UNL     1      -5.340   4.733 129.960  0.00  0.00    +0.000 C 
ATOM      2  C   UNL     1      -5.635   3.820 128.739  0.00  0.00    +0.000 C 
ATOM      3  C   UNL     1      -4.528   2.822 128.449  0.00  0.00    +0.000 C 
ATOM      4  C   UNL     1      -3.243   3.510 128.094  0.00  0.00    +0.000 C 
ATOM      5  C   UNL     1      -3.254   3.813 126.593  0.00  0.00    +0.000 C 
ATOM      6  C   UNL     1      -3.037   4.751 128.920  0.00  0.00    +0.000 C 
ATOM      7  C   UNL     1      -3.940   5.303 129.760  0.00  0.00    +0.000 C 
ATOM      8  C   UNL     1      -3.606   6.504 130.494  0.00  0.00    +0.000 C 
ATOM      9  C   UNL     1      -4.462   7.134 131.309  0.00  0.00    +0.000 C 
ATOM     10  C   UNL     1      -5.871   6.695 131.541  0.00  0.00    +0.000 C 
ATOM     11  C   UNL     1      -5.970   5.935 132.875  0.00  0.00    +0.000 C 
ATOM     12  C   UNL     1      -6.400   5.862 130.358  0.00  0.00    +0.000 C 
ENDROOT
BRANCH  12  13
ATOM     13  C   UNL     1      -7.852   5.464 130.815  0.00  0.00    +0.000 C 
BRANCH  13  14
ATOM     14  C   UNL     1      -8.749   6.625 130.678  0.00  0.00    +0.000 C 
BRANCH  14  15
ATOM     15  C   UNL     1     -10.040   6.623 129.809  0.00  0.00    +0.000 C 
ATOM     16  C   UNL     1     -10.292   7.882 128.933  0.00  0.00    +0.000 C 
ATOM     17  C   UNL     1     -11.647   8.013 128.377  0.00  0.00    +0.000 C 
ATOM     18  C   UNL     1     -12.411   8.234 129.627  0.00  0.00    +0.000 C 
ATOM     19  C   UNL     1     -12.193   7.185 130.683  0.00  0.00    +0.000 C 
ATOM     20  O   UNL     1     -12.983   7.097 131.647  0.00  0.00    +0.000 OA
ATOM     21  O   UNL     1     -11.143   6.358 130.648  0.00  0.00    +0.000 OA
BRANCH  17  22
ATOM     22  O   UNL     1     -11.986   6.896 127.572  0.00  0.00    +0.000 OA
ATOM     23  H   UNL     1     -12.686   6.368 127.991  0.00  0.00    +0.000 HD
ENDBRANCH  17  22
ENDBRANCH  14  15
ENDBRANCH  13  14
ENDBRANCH  12  13
BRANCH   2  24
ATOM     24  O   UNL     1      -6.090   4.538 127.568  0.00  0.00    +0.000 OA
BRANCH  24  25
ATOM     25  C   UNL     1      -7.089   4.277 126.680  0.00  0.00    +0.000 C 
ATOM     26  O   UNL     1      -8.252   4.442 127.057  0.00  0.00    +0.000 OA
BRANCH  25  27
ATOM     27  C   UNL     1      -6.788   3.634 125.281  0.00  0.00    +0.000 C 
ATOM     28  C   UNL     1      -6.348   2.213 125.192  0.00  0.00    +0.000 C 
ATOM     29  C   UNL     1      -8.053   3.450 124.572  0.00  0.00    +0.000 C 
BRANCH  27  30
ATOM     30  C   UNL     1      -5.958   4.647 124.389  0.00  0.00    +0.000 C 
ATOM     31  C   UNL     1      -5.583   4.175 122.968  0.00  0.00    +0.000 C 
ENDBRANCH  27  30
ENDBRANCH  25  27
ENDBRANCH  24  25
ENDBRANCH   2  24
TORSDOF 8
ENDMDL
MODEL 4
REMARK VINA RESULT:      -8.0      5.821      7.453
REMARK  Name = Simvastatin
REMARK  13 active torsions:
REMARK  status: ('A' for Active; 'I' for Inactive)
REMARK    1  A    between atoms: C_3  and  O_24
REMARK    2  A    between atoms: C_5  and  C_6
REMARK    3  A    between atoms: C_11  and  C_12
REMARK    4  A    between atoms: C_13  and  C_14
REMARK    5  A    between atoms: C_14  and  C_15
REMARK    6  A    between atoms: C_15  and  C_16
REMARK    7  A    between atoms: C_18  and  O_19
REMARK    8  A    between atoms: O_24  and  C_25
REMARK    9  A    between atoms: C_25  and  C_27
REMARK   10  A    between atoms: C_27  and  C_28
REMARK   11  A    between atoms: C_27  and  C_29
REMARK   12  A    between atoms: C_27  and  C_30
REMARK   13  A    between atoms: C_30  and  C_31
REMARK                            x       y       z     vdW  Elec       q    Type
REMARK                         _______ _______ _______ _____ _____    ______ ____
ROOT
ATOM      1  C   UNL     1      -7.173  -2.014 127.347  0.00  0.00    +0.000 C 
ATOM      2  C   UNL     1      -6.435  -1.442 128.587  0.00  0.00    +0.000 C 
ATOM      3  C   UNL     1      -5.799  -2.512 129.458  0.00  0.00    +0.000 C 
ATOM      4  C   UNL     1      -6.828  -3.438 130.036  0.00  0.00    +0.000 C 
ATOM      5  C   UNL     1      -7.366  -2.818 131.329  0.00  0.00    +0.000 C 
ATOM      6  C   UNL     1      -7.925  -3.726 129.047  0.00  0.00    +0.000 C 
ATOM      7  C   UNL     1      -8.092  -3.122 127.850  0.00  0.00    +0.000 C 
ATOM      8  C   UNL     1      -9.198  -3.499 126.997  0.00  0.00    +0.000 C 
ATOM      9  C   UNL     1      -9.455  -2.917 125.818  0.00  0.00    +0.000 C 
ATOM     10  C   UNL     1      -8.653  -1.791 125.251  0.00  0.00    +0.000 C 
ATOM     11  C   UNL     1      -7.679  -2.324 124.187  0.00  0.00    +0.000 C 
ATOM     12  C   UNL     1      -7.927  -1.006 126.362  0.00  0.00    +0.000 C 
ENDROOT
BRANCH  12  13
ATOM     13  C   UNL     1      -7.117   0.083 125.565  0.00  0.00    +0.000 C 
BRANCH  13  14
ATOM     14  C   UNL     1      -8.035   1.131 125.087  0.00  0.00    +0.000 C 
BRANCH  14  15
ATOM     15  C   UNL     1      -7.563   2.465 124.440  0.00  0.00    +0.000 C 
ATOM     16  C   UNL     1      -6.074   2.858 124.660  0.00  0.00    +0.000 C 
ATOM     17  C   UNL     1      -5.724   4.248 124.332  0.00  0.00    +0.000 C 
ATOM     18  C   UNL     1      -6.486   4.954 125.388  0.00  0.00    +0.000 C 
ATOM     19  C   UNL     1      -7.947   4.601 125.444  0.00  0.00    +0.000 C 
ATOM     20  O   UNL     1      -8.740   5.327 126.080  0.00  0.00    +0.000 OA
ATOM     21  O   UNL     1      -8.428   3.498 124.862  0.00  0.00    +0.000 OA
BRANCH  17  22
ATOM     22  O   UNL     1      -6.018   4.549 122.978  0.00  0.00    +0.000 OA
ATOM     23  H   UNL     1      -6.616   5.312 122.916  0.00  0.00    +0.000 HD
ENDBRANCH  17  22
ENDBRANCH  14  15
ENDBRANCH  13  14
ENDBRANCH  12  13
BRANCH   2  24
ATOM     24  O   UNL     1      -7.206  -0.471 129.332  0.00  0.00    +0.000 OA
BRANCH  24  25
ATOM     25  C   UNL     1      -6.870   0.741 129.852  0.00  0.00    +0.000 C 
ATOM     26  O   UNL     1      -6.292   0.760 130.942  0.00  0.00    +0.000 OA
BRANCH  25  27
ATOM     27  C   UNL     1      -7.342   2.077 129.177  0.00  0.00    +0.000 C 
ATOM     28  C   UNL     1      -8.644   2.130 128.456  0.00  0.00    +0.000 C 
ATOM     29  C   UNL     1      -7.706   3.026 130.227  0.00  0.00    +0.000 C 
BRANCH  27  30
ATOM     30  C   UNL     1      -6.128   2.753 128.413  0.00  0.00    +0.000 C 
ATOM     31  C   UNL     1      -4.946   1.834 128.039  0.00  0.00    +0.000 C 
ENDBRANCH  27  30
ENDBRANCH  25  27
ENDBRANCH  24  25
ENDBRANCH   2  24
TORSDOF 8
ENDMDL
MODEL 5
REMARK VINA RESULT:      -7.9      5.453      7.336
REMARK  Name = Simvastatin
REMARK  13 active torsions:
REMARK  status: ('A' for Active; 'I' for Inactive)
REMARK    1  A    between atoms: C_3  and  O_24
REMARK    2  A    between atoms: C_5  and  C_6
REMARK    3  A    between atoms: C_11  and  C_12
REMARK    4  A    between atoms: C_13  and  C_14
REMARK    5  A    between atoms: C_14  and  C_15
REMARK    6  A    between atoms: C_15  and  C_16
REMARK    7  A    between atoms: C_18  and  O_19
REMARK    8  A    between atoms: O_24  and  C_25
REMARK    9  A    between atoms: C_25  and  C_27
REMARK   10  A    between atoms: C_27  and  C_28
REMARK   11  A    between atoms: C_27  and  C_29
REMARK   12  A    between atoms: C_27  and  C_30
REMARK   13  A    between atoms: C_30  and  C_31
REMARK                            x       y       z     vdW  Elec       q    Type
REMARK                         _______ _______ _______ _____ _____    ______ ____
ROOT
ATOM      1  C   UNL     1      -7.376  -1.578 128.291  0.00  0.00    +0.000 C 
ATOM      2  C   UNL     1      -7.062  -0.487 129.350  0.00  0.00    +0.000 C 
ATOM      3  C   UNL     1      -6.211  -0.989 130.502  0.00  0.00    +0.000 C 
ATOM      4  C   UNL     1      -6.912  -2.064 131.279  0.00  0.00    +0.000 C 
ATOM      5  C   UNL     1      -7.803  -1.400 132.332  0.00  0.00    +0.000 C 
ATOM      6  C   UNL     1      -7.691  -2.978 130.372  0.00  0.00    +0.000 C 
ATOM      7  C   UNL     1      -7.900  -2.793 129.050  0.00  0.00    +0.000 C 
ATOM      8  C   UNL     1      -8.674  -3.757 128.298  0.00  0.00    +0.000 C 
ATOM      9  C   UNL     1      -8.961  -3.621 126.997  0.00  0.00    +0.000 C 
ATOM     10  C   UNL     1      -8.543  -2.450 126.168  0.00  0.00    +0.000 C 
ATOM     11  C   UNL     1      -7.310  -2.817 125.325  0.00  0.00    +0.000 C 
ATOM     12  C   UNL     1      -8.299  -1.204 127.042  0.00  0.00    +0.000 C 
ENDROOT
BRANCH  12  13
ATOM     13  C   UNL     1      -7.830  -0.119 126.003  0.00  0.00    +0.000 C 
BRANCH  13  14
ATOM     14  C   UNL     1      -8.989   0.675 125.560  0.00  0.00    +0.000 C 
BRANCH  14  15
ATOM     15  C   UNL     1      -8.883   1.899 124.604  0.00  0.00    +0.000 C 
ATOM     16  C   UNL     1      -7.733   1.871 123.559  0.00  0.00    +0.000 C 
ATOM     17  C   UNL     1      -7.443   3.148 122.891  0.00  0.00    +0.000 C 
ATOM     18  C   UNL     1      -6.921   3.921 124.043  0.00  0.00    +0.000 C 
ATOM     19  C   UNL     1      -7.835   3.953 125.237  0.00  0.00    +0.000 C 
ATOM     20  O   UNL     1      -7.648   4.793 126.143  0.00  0.00    +0.000 OA
ATOM     21  O   UNL     1      -8.831   3.073 125.386  0.00  0.00    +0.000 OA
BRANCH  17  22
ATOM     22  O   UNL     1      -8.583   3.647 122.212  0.00  0.00    +0.000 OA
ATOM     23  H   UNL     1      -8.712   3.182 121.367  0.00  0.00    +0.000 HD
ENDBRANCH  17  22
ENDBRANCH  14  15
ENDBRANCH  13  14
ENDBRANCH  12  13
BRANCH   2  24
ATOM     24  O   UNL     1      -8.221   0.271 129.771  0.00  0.00    +0.000 OA
BRANCH  24  25
ATOM     25  C   UNL     1      -8.485   1.606 129.746  0.00  0.00    +0.000 C 
ATOM     26  O   UNL     1      -8.247   2.220 128.703  0.00  0.00    +0.000 OA
BRANCH  25  27
ATOM     27  C   UNL     1      -8.921   2.375 131.042  0.00  0.00    +0.000 C 
ATOM     28  C   UNL     1      -9.841   1.729 132.019  0.00  0.00    +0.000 C 
ATOM     29  C   UNL     1      -7.773   2.461 131.941  0.00  0.00    +0.000 C 
BRANCH  27  30
ATOM     30  C   UNL     1      -9.278   3.877 130.683  0.00  0.00    +0.000 C 
ATOM     31  C   UNL     1     -10.770   4.203 130.462  0.00  0.00    +0.000 C 
ENDBRANCH  27  30
ENDBRANCH  25  27
ENDBRANCH  24  25
ENDBRANCH   2  24
TORSDOF 8
ENDMDL
MODEL 6
REMARK VINA RESULT:      -7.8      6.414      8.016
REMARK  Name = Simvastatin
REMARK  13 active torsions:
REMARK  status: ('A' for Active; 'I' for Inactive)
REMARK    1  A    between atoms: C_3  and  O_24
REMARK    2  A    between atoms: C_5  and  C_6
REMARK    3  A    between atoms: C_11  and  C_12
REMARK    4  A    between atoms: C_13  and  C_14
REMARK    5  A    between atoms: C_14  and  C_15
REMARK    6  A    between atoms: C_15  and  C_16
REMARK    7  A    between atoms: C_18  and  O_19
REMARK    8  A    between atoms: O_24  and  C_25
REMARK    9  A    between atoms: C_25  and  C_27
REMARK   10  A    between atoms: C_27  and  C_28
REMARK   11  A    between atoms: C_27  and  C_29
REMARK   12  A    between atoms: C_27  and  C_30
REMARK   13  A    between atoms: C_30  and  C_31
REMARK                            x       y       z     vdW  Elec       q    Type
REMARK                         _______ _______ _______ _____ _____    ______ ____
ROOT
ATOM      1  C   UNL     1      -6.774  -2.545 127.408  0.00  0.00    +0.000 C 
ATOM      2  C   UNL     1      -6.041  -1.791 128.550  0.00  0.00    +0.000 C 
ATOM      3  C   UNL     1      -5.751  -2.660 129.760  0.00  0.00    +0.000 C 
ATOM      4  C   UNL     1      -7.014  -3.157 130.399  0.00  0.00    +0.000 C 
ATOM      5  C   UNL     1      -7.511  -2.094 131.382  0.00  0.00    +0.000 C 
ATOM      6  C   UNL     1      -8.052  -3.504 129.367  0.00  0.00    +0.000 C 
ATOM      7  C   UNL     1      -7.966  -3.257 128.041  0.00  0.00    +0.000 C 
ATOM      8  C   UNL     1      -9.046  -3.645 127.160  0.00  0.00    +0.000 C 
ATOM      9  C   UNL     1      -9.053  -3.395 125.845  0.00  0.00    +0.000 C 
ATOM     10  C   UNL     1      -7.966  -2.663 125.128  0.00  0.00    +0.000 C 
ATOM     11  C   UNL     1      -7.047  -3.663 124.406  0.00  0.00    +0.000 C 
ATOM     12  C   UNL     1      -7.183  -1.744 126.087  0.00  0.00    +0.000 C 
ENDROOT
BRANCH  12  13
ATOM     13  C   UNL     1      -6.075  -1.115 125.163  0.00  0.00    +0.000 C 
BRANCH  13  14
ATOM     14  C   UNL     1      -6.184   0.353 125.190  0.00  0.00    +0.000 C 
BRANCH  14  15
ATOM     15  C   UNL     1      -7.048   1.175 124.189  0.00  0.00    +0.000 C 
ATOM     16  C   UNL     1      -7.980   2.259 124.800  0.00  0.00    +0.000 C 
ATOM     17  C   UNL     1      -9.013   2.795 123.900  0.00  0.00    +0.000 C 
ATOM     18  C   UNL     1      -9.855   1.587 123.736  0.00  0.00    +0.000 C 
ATOM     19  C   UNL     1      -9.106   0.364 123.283  0.00  0.00    +0.000 C 
ATOM     20  O   UNL     1      -9.733  -0.620 122.834  0.00  0.00    +0.000 OA
ATOM     21  O   UNL     1      -7.776   0.274 123.383  0.00  0.00    +0.000 OA
BRANCH  17  22
ATOM     22  O   UNL     1      -8.438   3.374 122.741  0.00  0.00    +0.000 OA
ATOM     23  H   UNL     1      -8.808   2.975 121.936  0.00  0.00    +0.000 HD
ENDBRANCH  17  22
ENDBRANCH  14  15
ENDBRANCH  13  14
ENDBRANCH  12  13
BRANCH   2  24
ATOM     24  O   UNL     1      -6.633  -0.513 128.882  0.00  0.00    +0.000 OA
BRANCH  24  25
ATOM     25  C   UNL     1      -6.115   0.746 128.898  0.00  0.00    +0.000 C 
ATOM     26  O   UNL     1      -4.887   0.862 128.943  0.00  0.00    +0.000 OA
BRANCH  25  27
ATOM     27  C   UNL     1      -7.040   2.007 129.019  0.00  0.00    +0.000 C 
ATOM     28  C   UNL     1      -6.733   3.236 128.237  0.00  0.00    +0.000 C 
ATOM     29  C   UNL     1      -8.312   1.716 128.361  0.00  0.00    +0.000 C 
BRANCH  27  30
ATOM     30  C   UNL     1      -7.410   2.259 130.540  0.00  0.00    +0.000 C 
ATOM     31  C   UNL     1      -8.697   1.585 131.062  0.00  0.00    +0.000 C 
ENDBRANCH  27  30
ENDBRANCH  25  27
ENDBRANCH  24  25
ENDBRANCH   2  24
TORSDOF 8
ENDMDL
MODEL 7
REMARK VINA RESULT:      -7.7      6.714      9.755
REMARK  Name = Simvastatin
REMARK  13 active torsions:
REMARK  status: ('A' for Active; 'I' for Inactive)
REMARK    1  A    between atoms: C_3  and  O_24
REMARK    2  A    between atoms: C_5  and  C_6
REMARK    3  A    between atoms: C_11  and  C_12
REMARK    4  A    between atoms: C_13  and  C_14
REMARK    5  A    between atoms: C_14  and  C_15
REMARK    6  A    between atoms: C_15  and  C_16
REMARK    7  A    between atoms: C_18  and  O_19
REMARK    8  A    between atoms: O_24  and  C_25
REMARK    9  A    between atoms: C_25  and  C_27
REMARK   10  A    between atoms: C_27  and  C_28
REMARK   11  A    between atoms: C_27  and  C_29
REMARK   12  A    between atoms: C_27  and  C_30
REMARK   13  A    between atoms: C_30  and  C_31
REMARK                            x       y       z     vdW  Elec       q    Type
REMARK                         _______ _______ _______ _____ _____    ______ ____
ROOT
ATOM      1  C   UNL     1      -7.100   0.361 123.944  0.00  0.00    +0.000 C 
ATOM      2  C   UNL     1      -6.611  -1.034 124.419  0.00  0.00    +0.000 C 
ATOM      3  C   UNL     1      -6.747  -2.114 123.361  0.00  0.00    +0.000 C 
ATOM      4  C   UNL     1      -8.181  -2.337 122.979  0.00  0.00    +0.000 C 
ATOM      5  C   UNL     1      -8.796  -3.335 123.963  0.00  0.00    +0.000 C 
ATOM      6  C   UNL     1      -8.945  -1.040 122.935  0.00  0.00    +0.000 C 
ATOM      7  C   UNL     1      -8.487   0.163 123.343  0.00  0.00    +0.000 C 
ATOM      8  C   UNL     1      -9.336   1.332 123.244  0.00  0.00    +0.000 C 
ATOM      9  C   UNL     1      -8.970   2.549 123.667  0.00  0.00    +0.000 C 
ATOM     10  C   UNL     1      -7.658   2.847 124.316  0.00  0.00    +0.000 C 
ATOM     11  C   UNL     1      -6.700   3.485 123.295  0.00  0.00    +0.000 C 
ATOM     12  C   UNL     1      -7.056   1.587 124.969  0.00  0.00    +0.000 C 
ENDROOT
BRANCH  12  13
ATOM     13  C   UNL     1      -5.682   2.097 125.542  0.00  0.00    +0.000 C 
BRANCH  13  14
ATOM     14  C   UNL     1      -5.832   2.424 126.970  0.00  0.00    +0.000 C 
BRANCH  14  15
ATOM     15  C   UNL     1      -4.669   2.941 127.866  0.00  0.00    +0.000 C 
ATOM     16  C   UNL     1      -4.552   4.482 128.036  0.00  0.00    +0.000 C 
ATOM     17  C   UNL     1      -3.286   4.968 128.602  0.00  0.00    +0.000 C 
ATOM     18  C   UNL     1      -2.364   4.615 127.497  0.00  0.00    +0.000 C 
ATOM     19  C   UNL     1      -2.426   3.174 127.072  0.00  0.00    +0.000 C 
ATOM     20  O   UNL     1      -1.513   2.692 126.368  0.00  0.00    +0.000 OA
ATOM     21  O   UNL     1      -3.460   2.389 127.391  0.00  0.00    +0.000 OA
BRANCH  17  22
ATOM     22  O   UNL     1      -3.043   4.409 129.883  0.00  0.00    +0.000 OA
ATOM     23  H   UNL     1      -3.393   3.504 129.935  0.00  0.00    +0.000 HD
ENDBRANCH  17  22
ENDBRANCH  14  15
ENDBRANCH  13  14
ENDBRANCH  12  13
BRANCH   2  24
ATOM     24  O   UNL     1      -7.123  -1.424 125.715  0.00  0.00    +0.000 OA
BRANCH  24  25
ATOM     25  C   UNL     1      -6.510  -1.569 126.922  0.00  0.00    +0.000 C 
ATOM     26  O   UNL     1      -5.353  -1.154 127.034  0.00  0.00    +0.000 OA
BRANCH  25  27
ATOM     27  C   UNL     1      -7.181  -2.379 128.086  0.00  0.00    +0.000 C 
ATOM     28  C   UNL     1      -6.336  -3.082 129.091  0.00  0.00    +0.000 C 
ATOM     29  C   UNL     1      -7.785  -1.434 129.022  0.00  0.00    +0.000 C 
BRANCH  27  30
ATOM     30  C   UNL     1      -8.393  -3.230 127.520  0.00  0.00    +0.000 C 
ATOM     31  C   UNL     1      -9.199  -4.056 128.545  0.00  0.00    +0.000 C 
ENDBRANCH  27  30
ENDBRANCH  25  27
ENDBRANCH  24  25
ENDBRANCH   2  24
TORSDOF 8
ENDMDL
MODEL 8
REMARK VINA RESULT:      -7.7      7.148     10.186
REMARK  Name = Simvastatin
REMARK  13 active torsions:
REMARK  status: ('A' for Active; 'I' for Inactive)
REMARK    1  A    between atoms: C_3  and  O_24
REMARK    2  A    between atoms: C_5  and  C_6
REMARK    3  A    between atoms: C_11  and  C_12
REMARK    4  A    between atoms: C_13  and  C_14
REMARK    5  A    between atoms: C_14  and  C_15
REMARK    6  A    between atoms: C_15  and  C_16
REMARK    7  A    between atoms: C_18  and  O_19
REMARK    8  A    between atoms: O_24  and  C_25
REMARK    9  A    between atoms: C_25  and  C_27
REMARK   10  A    between atoms: C_27  and  C_28
REMARK   11  A    between atoms: C_27  and  C_29
REMARK   12  A    between atoms: C_27  and  C_30
REMARK   13  A    between atoms: C_30  and  C_31
REMARK                            x       y       z     vdW  Elec       q    Type
REMARK                         _______ _______ _______ _____ _____    ______ ____
ROOT
ATOM      1  C   UNL     1      -8.705  -0.670 125.179  0.00  0.00    +0.000 C 
ATOM      2  C   UNL     1      -8.595   0.877 125.259  0.00  0.00    +0.000 C 
ATOM      3  C   UNL     1      -9.783   1.600 124.651  0.00  0.00    +0.000 C 
ATOM      4  C   UNL     1      -9.911   1.316 123.183  0.00  0.00    +0.000 C 
ATOM      5  C   UNL     1      -9.022   2.301 122.420  0.00  0.00    +0.000 C 
ATOM      6  C   UNL     1      -9.569  -0.116 122.869  0.00  0.00    +0.000 C 
ATOM      7  C   UNL     1      -9.049  -1.014 123.734  0.00  0.00    +0.000 C 
ATOM      8  C   UNL     1      -8.766  -2.363 123.292  0.00  0.00    +0.000 C 
ATOM      9  C   UNL     1      -8.211  -3.296 124.076  0.00  0.00    +0.000 C 
ATOM     10  C   UNL     1      -7.788  -3.056 125.489  0.00  0.00    +0.000 C 
ATOM     11  C   UNL     1      -8.846  -3.617 126.455  0.00  0.00    +0.000 C 
ATOM     12  C   UNL     1      -7.505  -1.562 125.742  0.00  0.00    +0.000 C 
ENDROOT
BRANCH  12  13
ATOM     13  C   UNL     1      -7.130  -1.519 127.270  0.00  0.00    +0.000 C 
BRANCH  13  14
ATOM     14  C   UNL     1      -5.687  -1.762 127.433  0.00  0.00    +0.000 C 
BRANCH  14  15
ATOM     15  C   UNL     1      -5.003  -2.017 128.807  0.00  0.00    +0.000 C 
ATOM     16  C   UNL     1      -4.067  -3.256 128.901  0.00  0.00    +0.000 C 
ATOM     17  C   UNL     1      -3.690  -3.670 130.261  0.00  0.00    +0.000 C 
ATOM     18  C   UNL     1      -5.008  -4.124 130.760  0.00  0.00    +0.000 C 
ATOM     19  C   UNL     1      -6.109  -3.107 130.625  0.00  0.00    +0.000 C 
ATOM     20  O   UNL     1      -7.174  -3.253 131.262  0.00  0.00    +0.000 OA
ATOM     21  O   UNL     1      -6.001  -2.058 129.803  0.00  0.00    +0.000 OA
BRANCH  17  22
ATOM     22  O   UNL     1      -3.032  -2.624 130.956  0.00  0.00    +0.000 OA
ATOM     23  H   UNL     1      -2.588  -2.023 130.335  0.00  0.00    +0.000 HD
ENDBRANCH  17  22
ENDBRANCH  14  15
ENDBRANCH  13  14
ENDBRANCH  12  13
BRANCH   2  24
ATOM     24  O   UNL     1      -7.316   1.397 124.827  0.00  0.00    +0.000 OA
BRANCH  24  25
ATOM     25  C   UNL     1      -6.382   2.149 125.471  0.00  0.00    +0.000 C 
ATOM     26  O   UNL     1      -5.613   1.574 126.244  0.00  0.00    +0.000 OA
BRANCH  25  27
ATOM     27  C   UNL     1      -6.382   3.715 125.365  0.00  0.00    +0.000 C 
ATOM     28  C   UNL     1      -7.670   4.464 125.373  0.00  0.00    +0.000 C 
ATOM     29  C   UNL     1      -5.872   4.266 126.618  0.00  0.00    +0.000 C 
BRANCH  27  30
ATOM     30  C   UNL     1      -5.347   4.180 124.258  0.00  0.00    +0.000 C 
ATOM     31  C   UNL     1      -5.795   4.044 122.787  0.00  0.00    +0.000 C 
ENDBRANCH  27  30
ENDBRANCH  25  27
ENDBRANCH  24  25
ENDBRANCH   2  24
TORSDOF 8
ENDMDL
MODEL 9
REMARK VINA RESULT:      -7.7      7.102     10.637
REMARK  Name = Simvastatin
REMARK  13 active torsions:
REMARK  status: ('A' for Active; 'I' for Inactive)
REMARK    1  A    between atoms: C_3  and  O_24
REMARK    2  A    between atoms: C_5  and  C_6
REMARK    3  A    between atoms: C_11  and  C_12
REMARK    4  A    between atoms: C_13  and  C_14
REMARK    5  A    between atoms: C_14  and  C_15
REMARK    6  A    between atoms: C_15  and  C_16
REMARK    7  A    between atoms: C_18  and  O_19
REMARK    8  A    between atoms: O_24  and  C_25
REMARK    9  A    between atoms: C_25  and  C_27
REMARK   10  A    between atoms: C_27  and  C_28
REMARK   11  A    between atoms: C_27  and  C_29
REMARK   12  A    between atoms: C_27  and  C_30
REMARK   13  A    between atoms: C_30  and  C_31
REMARK                            x       y       z     vdW  Elec       q    Type
REMARK                         _______ _______ _______ _____ _____    ______ ____
ROOT
ATOM      1  C   UNL     1      -6.985   0.594 126.919  0.00  0.00    +0.000 C 
ATOM      2  C   UNL     1      -6.993   0.382 125.381  0.00  0.00    +0.000 C 
ATOM      3  C   UNL     1      -6.670   1.640 124.595  0.00  0.00    +0.000 C 
ATOM      4  C   UNL     1      -7.694   2.713 124.824  0.00  0.00    +0.000 C 
ATOM      5  C   UNL     1      -8.852   2.495 123.846  0.00  0.00    +0.000 C 
ATOM      6  C   UNL     1      -8.159   2.732 126.256  0.00  0.00    +0.000 C 
ATOM      7  C   UNL     1      -7.850   1.818 127.201  0.00  0.00    +0.000 C 
ATOM      8  C   UNL     1      -8.371   1.962 128.544  0.00  0.00    +0.000 C 
ATOM      9  C   UNL     1      -8.147   1.076 129.523  0.00  0.00    +0.000 C 
ATOM     10  C   UNL     1      -7.358  -0.181 129.346  0.00  0.00    +0.000 C 
ATOM     11  C   UNL     1      -5.936   0.010 129.902  0.00  0.00    +0.000 C 
ATOM     12  C   UNL     1      -7.350  -0.635 127.873  0.00  0.00    +0.000 C 
ENDROOT
BRANCH  12  13
ATOM     13  C   UNL     1      -6.444  -1.921 127.895  0.00  0.00    +0.000 C 
BRANCH  13  14
ATOM     14  C   UNL     1      -7.070  -2.953 128.739  0.00  0.00    +0.000 C 
BRANCH  14  15
ATOM     15  C   UNL     1      -6.312  -3.741 129.847  0.00  0.00    +0.000 C 
ATOM     16  C   UNL     1      -6.603  -3.329 131.318  0.00  0.00    +0.000 C 
ATOM     17  C   UNL     1      -5.661  -3.842 132.324  0.00  0.00    +0.000 C 
ATOM     18  C   UNL     1      -4.443  -3.096 131.931  0.00  0.00    +0.000 C 
ATOM     19  C   UNL     1      -4.062  -3.244 130.484  0.00  0.00    +0.000 C 
ATOM     20  O   UNL     1      -2.919  -2.913 130.103  0.00  0.00    +0.000 OA
ATOM     21  O   UNL     1      -4.930  -3.687 129.568  0.00  0.00    +0.000 OA
BRANCH  17  22
ATOM     22  O   UNL     1      -5.613  -5.259 132.311  0.00  0.00    +0.000 OA
ATOM     23  H   UNL     1      -4.695  -5.572 132.256  0.00  0.00    +0.000 HD
ENDBRANCH  17  22
ENDBRANCH  14  15
ENDBRANCH  13  14
ENDBRANCH  12  13
BRANCH   2  24
ATOM     24  O   UNL     1      -8.159  -0.324 124.893  0.00  0.00    +0.000 OA
BRANCH  24  25
ATOM     25  C   UNL     1      -8.286  -1.371 124.033  0.00  0.00    +0.000 C 
ATOM     26  O   UNL     1      -8.268  -1.128 122.824  0.00  0.00    +0.000 OA
BRANCH  25  27
ATOM     27  C   UNL     1      -8.607  -2.817 124.551  0.00  0.00    +0.000 C 
ATOM     28  C   UNL     1      -9.420  -3.004 125.785  0.00  0.00    +0.000 C 
ATOM     29  C   UNL     1      -9.563  -3.437 123.637  0.00  0.00    +0.000 C 
BRANCH  27  30
ATOM     30  C   UNL     1      -7.308  -3.721 124.464  0.00  0.00    +0.000 C 
ATOM     31  C   UNL     1      -5.959  -2.986 124.307  0.00  0.00    +0.000 C 
ENDBRANCH  27  30
ENDBRANCH  25  27
ENDBRANCH  24  25
ENDBRANCH   2  24
TORSDOF 8
ENDMDL
