MODEL 1
REMARK VINA RESULT:      -9.5      0.000      0.000
REMARK  Name = Siponimod
REMARK  13 active torsions:
REMARK  status: ('A' for Active; 'I' for Inactive)
REMARK    1  A    between atoms: C_1  and  C_2
REMARK    2  A    between atoms: C_2  and  C_3
REMARK    3  A    between atoms: C_5  and  C_17
REMARK    4  A    between atoms: C_8  and  C_9
REMARK    5  A    between atoms: C_9  and  N_10
REMARK    6  A    between atoms: C_12  and  C_14
REMARK    7  A    between atoms: C_14  and  O_15
REMARK    8  A    between atoms: C_17  and  C_18
REMARK    9  A    between atoms: N_19  and  O_20
REMARK   10  A    between atoms: O_20  and  C_21
REMARK   11  A    between atoms: C_21  and  C_22
REMARK   12  A    between atoms: C_25  and  C_26
REMARK   13  A    between atoms: C_32  and  C_34
REMARK                            x       y       z     vdW  Elec       q    Type
REMARK                         _______ _______ _______ _____ _____    ______ ____
ROOT
ATOM      1  C   UNL     1      -7.389  -0.007 131.569  0.00  0.00    +0.000 C 
ATOM      2  C   UNL     1      -5.889   0.258 131.765  0.00  0.00    +0.000 C 
ATOM      3  N   UNL     1      -7.893  -1.200 131.536  0.00  0.00    +0.000 NA
ENDROOT
BRANCH   1   6
ATOM      4  C   UNL     1      -9.293   2.959 132.374  0.00  0.00    +0.000 A 
ATOM      5  C   UNL     1      -8.968   1.626 132.393  0.00  0.00    +0.000 A 
ATOM      6  C   UNL     1      -8.313   1.112 131.319  0.00  0.00    +0.000 A 
ATOM      7  C   UNL     1      -8.345   1.807 130.108  0.00  0.00    +0.000 A 
ATOM      8  C   UNL     1      -9.052   3.015 130.012  0.00  0.00    +0.000 A 
ATOM      9  C   UNL     1      -9.629   3.598 131.155  0.00  0.00    +0.000 A 
BRANCH   4  11
ATOM     10  C   UNL     1      -8.070   4.161 134.392  0.00  0.00    +0.000 C 
ATOM     11  C   UNL     1      -9.287   3.487 133.763  0.00  0.00    +0.000 C 
ENDBRANCH   4  11
BRANCH   9  12
ATOM     12  C   UNL     1     -10.541   4.840 130.920  0.00  0.00    +0.000 C 
BRANCH  12  13
ATOM     13  N   UNL     1     -11.049   5.297 129.566  0.00  0.00    +0.000 NA
ATOM     14  C   UNL     1     -12.246   6.171 129.614  0.00  0.00    +0.000 C 
ATOM     15  C   UNL     1     -11.447   7.246 128.763  0.00  0.00    +0.000 C 
ATOM     16  C   UNL     1     -10.185   6.405 129.150  0.00  0.00    +0.000 C 
BRANCH  15  17
ATOM     17  C   UNL     1     -11.602   7.498 127.289  0.00  0.00    +0.000 C 
ATOM     18  O   UNL     1     -12.241   6.785 126.548  0.00  0.00    +0.000 OA
BRANCH  17  19
ATOM     19  O   UNL     1     -10.912   8.578 126.856  0.00  0.00    +0.000 OA
ATOM     20  H   UNL     1     -11.274   9.388 127.255  0.00  0.00    +0.000 HD
ENDBRANCH  17  19
ENDBRANCH  15  17
ENDBRANCH  12  13
ENDBRANCH   9  12
ENDBRANCH   1   6
BRANCH   3  21
ATOM     21  O   UNL     1      -6.888  -2.132 131.714  0.00  0.00    +0.000 OA
BRANCH  21  22
ATOM     22  C   UNL     1      -7.173  -3.281 130.936  0.00  0.00    +0.000 C 
BRANCH  22  23
ATOM     23  C   UNL     1      -6.812  -2.959 129.516  0.00  0.00    +0.000 A 
ATOM     24  C   UNL     1      -5.605  -2.349 129.172  0.00  0.00    +0.000 A 
ATOM     25  C   UNL     1      -5.399  -1.891 127.875  0.00  0.00    +0.000 A 
ATOM     26  C   UNL     1      -6.345  -2.141 126.859  0.00  0.00    +0.000 A 
ATOM     27  C   UNL     1      -7.565  -2.791 127.194  0.00  0.00    +0.000 A 
ATOM     28  C   UNL     1      -7.755  -3.207 128.522  0.00  0.00    +0.000 A 
BRANCH  26  29
ATOM     29  C   UNL     1      -5.939  -1.758 125.442  0.00  0.00    +0.000 C 
ATOM     30  C   UNL     1      -5.627  -3.027 124.630  0.00  0.00    +0.000 C 
ATOM     31  C   UNL     1      -5.443  -2.760 123.145  0.00  0.00    +0.000 C 
ATOM     32  C   UNL     1      -6.569  -1.909 122.568  0.00  0.00    +0.000 C 
ATOM     33  C   UNL     1      -6.688  -0.582 123.310  0.00  0.00    +0.000 C 
ATOM     34  C   UNL     1      -6.955  -0.824 124.782  0.00  0.00    +0.000 C 
ENDBRANCH  26  29
BRANCH  27  35
ATOM     35  C   UNL     1      -8.763  -3.000 126.275  0.00  0.00    +0.000 C 
ATOM     36  F   UNL     1      -9.363  -1.834 125.911  0.00  0.00    +0.000 F 
ATOM     37  F   UNL     1      -8.511  -3.679 125.127  0.00  0.00    +0.000 F 
ATOM     38  F   UNL     1      -9.769  -3.711 126.868  0.00  0.00    +0.000 F 
ENDBRANCH  27  35
ENDBRANCH  22  23
ENDBRANCH  21  22
ENDBRANCH   3  21
TORSDOF 11
ENDMDL
MODEL 2
REMARK VINA RESULT:      -9.0      1.799      2.243
REMARK  Name = Siponimod
REMARK  13 active torsions:
REMARK  status: ('A' for Active; 'I' for Inactive)
REMARK    1  A    between atoms: C_1  and  C_2
REMARK    2  A    between atoms: C_2  and  C_3
REMARK    3  A    between atoms: C_5  and  C_17
REMARK    4  A    between atoms: C_8  and  C_9
REMARK    5  A    between atoms: C_9  and  N_10
REMARK    6  A    between atoms: C_12  and  C_14
REMARK    7  A    between atoms: C_14  and  O_15
REMARK    8  A    between atoms: C_17  and  C_18
REMARK    9  A    between atoms: N_19  and  O_20
REMARK   10  A    between atoms: O_20  and  C_21
REMARK   11  A    between atoms: C_21  and  C_22
REMARK   12  A    between atoms: C_25  and  C_26
REMARK   13  A    between atoms: C_32  and  C_34
REMARK                            x       y       z     vdW  Elec       q    Type
REMARK                         _______ _______ _______ _____ _____    ______ ____
ROOT
ATOM      1  C   UNL     1      -6.876   1.895 131.290  0.00  0.00    +0.000 C 
ATOM      2  C   UNL     1      -5.638   2.312 130.483  0.00  0.00    +0.000 C 
ATOM      3  N   UNL     1      -7.057   0.688 131.724  0.00  0.00    +0.000 NA
ENDROOT
BRANCH   1   6
ATOM      4  C   UNL     1      -8.365   5.140 131.858  0.00  0.00    +0.000 A 
ATOM      5  C   UNL     1      -7.645   4.013 132.164  0.00  0.00    +0.000 A 
ATOM      6  C   UNL     1      -7.966   2.856 131.525  0.00  0.00    +0.000 A 
ATOM      7  C   UNL     1      -9.215   2.745 130.912  0.00  0.00    +0.000 A 
ATOM      8  C   UNL     1     -10.121   3.815 130.965  0.00  0.00    +0.000 A 
ATOM      9  C   UNL     1      -9.738   5.047 131.527  0.00  0.00    +0.000 A 
BRANCH   4  11
ATOM     10  C   UNL     1      -6.370   6.679 131.039  0.00  0.00    +0.000 C 
ATOM     11  C   UNL     1      -7.494   6.335 132.013  0.00  0.00    +0.000 C 
ENDBRANCH   4  11
BRANCH   9  12
ATOM     12  C   UNL     1     -10.862   6.112 131.703  0.00  0.00    +0.000 C 
BRANCH  12  13
ATOM     13  N   UNL     1     -11.831   6.536 130.616  0.00  0.00    +0.000 NA
ATOM     14  C   UNL     1     -12.949   7.394 131.080  0.00  0.00    +0.000 C 
ATOM     15  C   UNL     1     -12.530   8.463 129.985  0.00  0.00    +0.000 C 
ATOM     16  C   UNL     1     -11.196   7.648 129.904  0.00  0.00    +0.000 C 
BRANCH  15  17
ATOM     17  C   UNL     1     -13.208   8.685 128.662  0.00  0.00    +0.000 C 
ATOM     18  O   UNL     1     -13.489   7.794 127.892  0.00  0.00    +0.000 OA
BRANCH  17  19
ATOM     19  O   UNL     1     -13.433   9.991 128.388  0.00  0.00    +0.000 OA
ATOM     20  H   UNL     1     -14.267  10.280 128.799  0.00  0.00    +0.000 HD
ENDBRANCH  17  19
ENDBRANCH  15  17
ENDBRANCH  12  13
ENDBRANCH   9  12
ENDBRANCH   1   6
BRANCH   3  21
ATOM     21  O   UNL     1      -5.982  -0.101 131.360  0.00  0.00    +0.000 OA
BRANCH  21  22
ATOM     22  C   UNL     1      -6.403  -1.451 131.269  0.00  0.00    +0.000 C 
BRANCH  22  23
ATOM     23  C   UNL     1      -6.488  -1.794 129.811  0.00  0.00    +0.000 A 
ATOM     24  C   UNL     1      -5.695  -1.167 128.848  0.00  0.00    +0.000 A 
ATOM     25  C   UNL     1      -5.945  -1.373 127.497  0.00  0.00    +0.000 A 
ATOM     26  C   UNL     1      -6.915  -2.305 127.072  0.00  0.00    +0.000 A 
ATOM     27  C   UNL     1      -7.707  -2.974 128.047  0.00  0.00    +0.000 A 
ATOM     28  C   UNL     1      -7.450  -2.714 129.403  0.00  0.00    +0.000 A 
BRANCH  26  29
ATOM     29  C   UNL     1      -6.981  -2.586 125.576  0.00  0.00    +0.000 C 
ATOM     30  C   UNL     1      -7.877  -1.542 124.890  0.00  0.00    +0.000 C 
ATOM     31  C   UNL     1      -7.813  -1.599 123.373  0.00  0.00    +0.000 C 
ATOM     32  C   UNL     1      -6.378  -1.627 122.857  0.00  0.00    +0.000 C 
ATOM     33  C   UNL     1      -5.610  -2.808 123.440  0.00  0.00    +0.000 C 
ATOM     34  C   UNL     1      -5.590  -2.727 124.954  0.00  0.00    +0.000 C 
ENDBRANCH  26  29
BRANCH  27  35
ATOM     35  C   UNL     1      -8.898  -3.884 127.778  0.00  0.00    +0.000 C 
ATOM     36  F   UNL     1      -8.533  -5.133 127.379  0.00  0.00    +0.000 F 
ATOM     37  F   UNL     1      -9.759  -4.046 128.814  0.00  0.00    +0.000 F 
ATOM     38  F   UNL     1      -9.688  -3.436 126.755  0.00  0.00    +0.000 F 
ENDBRANCH  27  35
ENDBRANCH  22  23
ENDBRANCH  21  22
ENDBRANCH   3  21
TORSDOF 11
ENDMDL
MODEL 3
REMARK VINA RESULT:      -9.0      5.047      8.723
REMARK  Name = Siponimod
REMARK  13 active torsions:
REMARK  status: ('A' for Active; 'I' for Inactive)
REMARK    1  A    between atoms: C_1  and  C_2
REMARK    2  A    between atoms: C_2  and  C_3
REMARK    3  A    between atoms: C_5  and  C_17
REMARK    4  A    between atoms: C_8  and  C_9
REMARK    5  A    between atoms: C_9  and  N_10
REMARK    6  A    between atoms: C_12  and  C_14
REMARK    7  A    between atoms: C_14  and  O_15
REMARK    8  A    between atoms: C_17  and  C_18
REMARK    9  A    between atoms: N_19  and  O_20
REMARK   10  A    between atoms: O_20  and  C_21
REMARK   11  A    between atoms: C_21  and  C_22
REMARK   12  A    between atoms: C_25  and  C_26
REMARK   13  A    between atoms: C_32  and  C_34
REMARK                            x       y       z     vdW  Elec       q    Type
REMARK                         _______ _______ _______ _____ _____    ______ ____
ROOT
ATOM      1  C   UNL     1      -8.692  -1.554 124.501  0.00  0.00    +0.000 C 
ATOM      2  C   UNL     1      -7.883  -1.908 123.246  0.00  0.00    +0.000 C 
ATOM      3  N   UNL     1      -9.648  -0.680 124.498  0.00  0.00    +0.000 NA
ENDROOT
BRANCH   1   6
ATOM      4  C   UNL     1      -7.706  -1.562 127.980  0.00  0.00    +0.000 A 
ATOM      5  C   UNL     1      -7.548  -1.409 126.626  0.00  0.00    +0.000 A 
ATOM      6  C   UNL     1      -8.339  -2.147 125.802  0.00  0.00    +0.000 A 
ATOM      7  C   UNL     1      -8.971  -3.284 126.309  0.00  0.00    +0.000 A 
ATOM      8  C   UNL     1      -8.782  -3.653 127.649  0.00  0.00    +0.000 A 
ATOM      9  C   UNL     1      -8.057  -2.821 128.524  0.00  0.00    +0.000 A 
BRANCH   4  11
ATOM     10  C   UNL     1      -6.085   0.485 128.424  0.00  0.00    +0.000 C 
ATOM     11  C   UNL     1      -7.385  -0.280 128.660  0.00  0.00    +0.000 C 
ENDBRANCH   4  11
BRANCH   9  12
ATOM     12  C   UNL     1      -7.749  -3.398 129.939  0.00  0.00    +0.000 C 
BRANCH  12  13
ATOM     13  N   UNL     1      -6.358  -3.628 130.496  0.00  0.00    +0.000 NA
ATOM     14  C   UNL     1      -5.253  -3.314 129.556  0.00  0.00    +0.000 C 
ATOM     15  C   UNL     1      -4.644  -2.348 130.658  0.00  0.00    +0.000 C 
ATOM     16  C   UNL     1      -6.050  -2.469 131.337  0.00  0.00    +0.000 C 
BRANCH  15  17
ATOM     17  C   UNL     1      -3.485  -2.659 131.562  0.00  0.00    +0.000 C 
ATOM     18  O   UNL     1      -2.696  -1.829 131.955  0.00  0.00    +0.000 OA
BRANCH  17  19
ATOM     19  O   UNL     1      -3.375  -3.975 131.859  0.00  0.00    +0.000 OA
ATOM     20  H   UNL     1      -2.709  -4.392 131.285  0.00  0.00    +0.000 HD
ENDBRANCH  17  19
ENDBRANCH  15  17
ENDBRANCH  12  13
ENDBRANCH   9  12
ENDBRANCH   1   6
BRANCH   3  21
ATOM     21  O   UNL     1      -9.803  -0.170 123.223  0.00  0.00    +0.000 OA
BRANCH  21  22
ATOM     22  C   UNL     1      -9.972   1.235 123.299  0.00  0.00    +0.000 C 
BRANCH  22  23
ATOM     23  C   UNL     1      -8.689   1.811 123.822  0.00  0.00    +0.000 A 
ATOM     24  C   UNL     1      -8.414   1.908 125.187  0.00  0.00    +0.000 A 
ATOM     25  C   UNL     1      -7.307   2.624 125.627  0.00  0.00    +0.000 A 
ATOM     26  C   UNL     1      -6.378   3.160 124.710  0.00  0.00    +0.000 A 
ATOM     27  C   UNL     1      -6.633   3.039 123.317  0.00  0.00    +0.000 A 
ATOM     28  C   UNL     1      -7.781   2.339 122.908  0.00  0.00    +0.000 A 
BRANCH  26  29
ATOM     29  C   UNL     1      -5.111   3.765 125.301  0.00  0.00    +0.000 C 
ATOM     30  C   UNL     1      -5.478   4.927 126.239  0.00  0.00    +0.000 C 
ATOM     31  C   UNL     1      -4.301   5.437 127.053  0.00  0.00    +0.000 C 
ATOM     32  C   UNL     1      -3.535   4.305 127.730  0.00  0.00    +0.000 C 
ATOM     33  C   UNL     1      -3.039   3.291 126.704  0.00  0.00    +0.000 C 
ATOM     34  C   UNL     1      -4.207   2.707 125.935  0.00  0.00    +0.000 C 
ENDBRANCH  26  29
BRANCH  27  35
ATOM     35  C   UNL     1      -5.837   3.686 122.190  0.00  0.00    +0.000 C 
ATOM     36  F   UNL     1      -6.619   4.372 121.313  0.00  0.00    +0.000 F 
ATOM     37  F   UNL     1      -4.854   4.537 122.579  0.00  0.00    +0.000 F 
ATOM     38  F   UNL     1      -5.193   2.772 121.402  0.00  0.00    +0.000 F 
ENDBRANCH  27  35
ENDBRANCH  22  23
ENDBRANCH  21  22
ENDBRANCH   3  21
TORSDOF 11
ENDMDL
MODEL 4
REMARK VINA RESULT:      -9.0      3.529      5.732
REMARK  Name = Siponimod
REMARK  13 active torsions:
REMARK  status: ('A' for Active; 'I' for Inactive)
REMARK    1  A    between atoms: C_1  and  C_2
REMARK    2  A    between atoms: C_2  and  C_3
REMARK    3  A    between atoms: C_5  and  C_17
REMARK    4  A    between atoms: C_8  and  C_9
REMARK    5  A    between atoms: C_9  and  N_10
REMARK    6  A    between atoms: C_12  and  C_14
REMARK    7  A    between atoms: C_14  and  O_15
REMARK    8  A    between atoms: C_17  and  C_18
REMARK    9  A    between atoms: N_19  and  O_20
REMARK   10  A    between atoms: O_20  and  C_21
REMARK   11  A    between atoms: C_21  and  C_22
REMARK   12  A    between atoms: C_25  and  C_26
REMARK   13  A    between atoms: C_32  and  C_34
REMARK                            x       y       z     vdW  Elec       q    Type
REMARK                         _______ _______ _______ _____ _____    ______ ____
ROOT
ATOM      1  C   UNL     1      -8.336  -2.875 127.545  0.00  0.00    +0.000 C 
ATOM      2  C   UNL     1      -9.032  -4.184 127.946  0.00  0.00    +0.000 C 
ATOM      3  N   UNL     1      -8.085  -2.561 126.313  0.00  0.00    +0.000 NA
ENDROOT
BRANCH   1   6
ATOM      4  C   UNL     1      -7.577   0.328 129.040  0.00  0.00    +0.000 A 
ATOM      5  C   UNL     1      -7.431  -0.723 128.171  0.00  0.00    +0.000 A 
ATOM      6  C   UNL     1      -7.839  -1.953 128.581  0.00  0.00    +0.000 A 
ATOM      7  C   UNL     1      -8.007  -2.192 129.946  0.00  0.00    +0.000 A 
ATOM      8  C   UNL     1      -7.750  -1.171 130.873  0.00  0.00    +0.000 A 
ATOM      9  C   UNL     1      -7.440   0.130 130.435  0.00  0.00    +0.000 A 
BRANCH   4  11
ATOM     10  C   UNL     1      -8.743   1.652 127.064  0.00  0.00    +0.000 C 
ATOM     11  C   UNL     1      -7.806   1.577 128.266  0.00  0.00    +0.000 C 
ENDBRANCH   4  11
BRANCH   9  12
ATOM     12  C   UNL     1      -6.997   1.148 131.530  0.00  0.00    +0.000 C 
BRANCH  12  13
ATOM     13  N   UNL     1      -7.937   2.053 132.302  0.00  0.00    +0.000 NA
ATOM     14  C   UNL     1      -7.326   2.730 133.472  0.00  0.00    +0.000 C 
ATOM     15  C   UNL     1      -7.801   4.118 132.868  0.00  0.00    +0.000 C 
ATOM     16  C   UNL     1      -8.019   3.307 131.547  0.00  0.00    +0.000 C 
BRANCH  15  17
ATOM     17  C   UNL     1      -8.994   4.914 133.316  0.00  0.00    +0.000 C 
ATOM     18  O   UNL     1      -9.077   6.118 133.214  0.00  0.00    +0.000 OA
BRANCH  17  19
ATOM     19  O   UNL     1      -9.956   4.158 133.896  0.00  0.00    +0.000 OA
ATOM     20  H   UNL     1     -10.496   4.705 134.493  0.00  0.00    +0.000 HD
ENDBRANCH  17  19
ENDBRANCH  15  17
ENDBRANCH  12  13
ENDBRANCH   9  12
ENDBRANCH   1   6
BRANCH   3  21
ATOM     21  O   UNL     1      -8.549  -3.559 125.478  0.00  0.00    +0.000 OA
BRANCH  21  22
ATOM     22  C   UNL     1      -7.904  -3.454 124.221  0.00  0.00    +0.000 C 
BRANCH  22  23
ATOM     23  C   UNL     1      -7.661  -1.995 123.965  0.00  0.00    +0.000 A 
ATOM     24  C   UNL     1      -6.461  -1.368 124.301  0.00  0.00    +0.000 A 
ATOM     25  C   UNL     1      -6.352   0.016 124.230  0.00  0.00    +0.000 A 
ATOM     26  C   UNL     1      -7.402   0.800 123.705  0.00  0.00    +0.000 A 
ATOM     27  C   UNL     1      -8.619   0.166 123.330  0.00  0.00    +0.000 A 
ATOM     28  C   UNL     1      -8.705  -1.232 123.450  0.00  0.00    +0.000 A 
BRANCH  26  29
ATOM     29  C   UNL     1      -7.110   2.281 123.502  0.00  0.00    +0.000 C 
ATOM     30  C   UNL     1      -6.225   2.798 124.649  0.00  0.00    +0.000 C 
ATOM     31  C   UNL     1      -5.689   4.200 124.409  0.00  0.00    +0.000 C 
ATOM     32  C   UNL     1      -5.069   4.351 123.024  0.00  0.00    +0.000 C 
ATOM     33  C   UNL     1      -6.076   4.001 121.933  0.00  0.00    +0.000 C 
ATOM     34  C   UNL     1      -6.563   2.576 122.104  0.00  0.00    +0.000 C 
ENDBRANCH  26  29
BRANCH  27  35
ATOM     35  C   UNL     1      -9.906   0.857 122.899  0.00  0.00    +0.000 C 
ATOM     36  F   UNL     1     -10.836  -0.009 122.411  0.00  0.00    +0.000 F 
ATOM     37  F   UNL     1     -10.527   1.592 123.856  0.00  0.00    +0.000 F 
ATOM     38  F   UNL     1      -9.716   1.740 121.872  0.00  0.00    +0.000 F 
ENDBRANCH  27  35
ENDBRANCH  22  23
ENDBRANCH  21  22
ENDBRANCH   3  21
TORSDOF 11
ENDMDL
MODEL 5
REMARK VINA RESULT:      -8.9      5.386      9.068
REMARK  Name = Siponimod
REMARK  13 active torsions:
REMARK  status: ('A' for Active; 'I' for Inactive)
REMARK    1  A    between atoms: C_1  and  C_2
REMARK    2  A    between atoms: C_2  and  C_3
REMARK    3  A    between atoms: C_5  and  C_17
REMARK    4  A    between atoms: C_8  and  C_9
REMARK    5  A    between atoms: C_9  and  N_10
REMARK    6  A    between atoms: C_12  and  C_14
REMARK    7  A    between atoms: C_14  and  O_15
REMARK    8  A    between atoms: C_17  and  C_18
REMARK    9  A    between atoms: N_19  and  O_20
REMARK   10  A    between atoms: O_20  and  C_21
REMARK   11  A    between atoms: C_21  and  C_22
REMARK   12  A    between atoms: C_25  and  C_26
REMARK   13  A    between atoms: C_32  and  C_34
REMARK                            x       y       z     vdW  Elec       q    Type
REMARK                         _______ _______ _______ _____ _____    ______ ____
ROOT
ATOM      1  C   UNL     1      -4.628   5.149 129.541  0.00  0.00    +0.000 C 
ATOM      2  C   UNL     1      -3.797   6.384 129.919  0.00  0.00    +0.000 C 
ATOM      3  N   UNL     1      -5.008   4.265 130.410  0.00  0.00    +0.000 NA
ENDROOT
BRANCH   1   6
ATOM      4  C   UNL     1      -4.102   3.829 126.217  0.00  0.00    +0.000 A 
ATOM      5  C   UNL     1      -3.909   4.669 127.284  0.00  0.00    +0.000 A 
ATOM      6  C   UNL     1      -4.952   4.877 128.131  0.00  0.00    +0.000 A 
ATOM      7  C   UNL     1      -6.247   4.579 127.699  0.00  0.00    +0.000 A 
ATOM      8  C   UNL     1      -6.456   4.079 126.405  0.00  0.00    +0.000 A 
ATOM      9  C   UNL     1      -5.363   3.759 125.577  0.00  0.00    +0.000 A 
BRANCH   4  11
ATOM     10  C   UNL     1      -1.623   3.128 126.832  0.00  0.00    +0.000 C 
ATOM     11  C   UNL     1      -2.818   3.157 125.883  0.00  0.00    +0.000 C 
ENDBRANCH   4  11
BRANCH   9  12
ATOM     12  C   UNL     1      -5.694   3.381 124.102  0.00  0.00    +0.000 C 
BRANCH  12  13
ATOM     13  N   UNL     1      -5.722   4.359 122.943  0.00  0.00    +0.000 NA
ATOM     14  C   UNL     1      -4.434   4.501 122.219  0.00  0.00    +0.000 C 
ATOM     15  C   UNL     1      -5.198   4.150 120.873  0.00  0.00    +0.000 C 
ATOM     16  C   UNL     1      -6.342   3.653 121.819  0.00  0.00    +0.000 C 
BRANCH  15  17
ATOM     17  C   UNL     1      -5.637   5.133 119.825  0.00  0.00    +0.000 C 
ATOM     18  O   UNL     1      -6.459   4.885 118.972  0.00  0.00    +0.000 OA
BRANCH  17  19
ATOM     19  O   UNL     1      -4.983   6.316 119.893  0.00  0.00    +0.000 OA
ATOM     20  H   UNL     1      -5.536   6.977 120.345  0.00  0.00    +0.000 HD
ENDBRANCH  17  19
ENDBRANCH  15  17
ENDBRANCH  12  13
ENDBRANCH   9  12
ENDBRANCH   1   6
BRANCH   3  21
ATOM     21  O   UNL     1      -4.564   4.631 131.666  0.00  0.00    +0.000 OA
BRANCH  21  22
ATOM     22  C   UNL     1      -5.632   4.516 132.590  0.00  0.00    +0.000 C 
BRANCH  22  23
ATOM     23  C   UNL     1      -6.874   4.998 131.899  0.00  0.00    +0.000 A 
ATOM     24  C   UNL     1      -7.217   6.349 131.835  0.00  0.00    +0.000 A 
ATOM     25  C   UNL     1      -8.468   6.730 131.362  0.00  0.00    +0.000 A 
ATOM     26  C   UNL     1      -9.361   5.778 130.827  0.00  0.00    +0.000 A 
ATOM     27  C   UNL     1      -9.007   4.401 130.858  0.00  0.00    +0.000 A 
ATOM     28  C   UNL     1      -7.749   4.049 131.377  0.00  0.00    +0.000 A 
BRANCH  26  29
ATOM     29  C   UNL     1     -10.624   6.323 130.171  0.00  0.00    +0.000 C 
ATOM     30  C   UNL     1     -11.658   6.680 131.252  0.00  0.00    +0.000 C 
ATOM     31  C   UNL     1     -12.852   7.448 130.710  0.00  0.00    +0.000 C 
ATOM     32  C   UNL     1     -12.432   8.623 129.833  0.00  0.00    +0.000 C 
ATOM     33  C   UNL     1     -11.562   8.156 128.671  0.00  0.00    +0.000 C 
ATOM     34  C   UNL     1     -10.321   7.458 129.191  0.00  0.00    +0.000 C 
ENDBRANCH  26  29
BRANCH  27  35
ATOM     35  C   UNL     1      -9.899   3.226 130.478  0.00  0.00    +0.000 C 
ATOM     36  F   UNL     1     -11.226   3.507 130.598  0.00  0.00    +0.000 F 
ATOM     37  F   UNL     1      -9.720   2.733 129.227  0.00  0.00    +0.000 F 
ATOM     38  F   UNL     1      -9.723   2.141 131.292  0.00  0.00    +0.000 F 
ENDBRANCH  27  35
ENDBRANCH  22  23
ENDBRANCH  21  22
ENDBRANCH   3  21
TORSDOF 11
ENDMDL
MODEL 6
REMARK VINA RESULT:      -8.9      4.792      9.111
REMARK  Name = Siponimod
REMARK  13 active torsions:
REMARK  status: ('A' for Active; 'I' for Inactive)
REMARK    1  A    between atoms: C_1  and  C_2
REMARK    2  A    between atoms: C_2  and  C_3
REMARK    3  A    between atoms: C_5  and  C_17
REMARK    4  A    between atoms: C_8  and  C_9
REMARK    5  A    between atoms: C_9  and  N_10
REMARK    6  A    between atoms: C_12  and  C_14
REMARK    7  A    between atoms: C_14  and  O_15
REMARK    8  A    between atoms: C_17  and  C_18
REMARK    9  A    between atoms: N_19  and  O_20
REMARK   10  A    between atoms: O_20  and  C_21
REMARK   11  A    between atoms: C_21  and  C_22
REMARK   12  A    between atoms: C_25  and  C_26
REMARK   13  A    between atoms: C_32  and  C_34
REMARK                            x       y       z     vdW  Elec       q    Type
REMARK                         _______ _______ _______ _____ _____    ______ ____
ROOT
ATOM      1  C   UNL     1      -6.883   1.992 129.053  0.00  0.00    +0.000 C 
ATOM      2  C   UNL     1      -5.830   2.646 129.960  0.00  0.00    +0.000 C 
ATOM      3  N   UNL     1      -7.789   1.181 129.500  0.00  0.00    +0.000 NA
ENDROOT
BRANCH   1   6
ATOM      4  C   UNL     1      -6.344   1.095 125.592  0.00  0.00    +0.000 A 
ATOM      5  C   UNL     1      -5.996   1.410 126.881  0.00  0.00    +0.000 A 
ATOM      6  C   UNL     1      -6.839   2.202 127.596  0.00  0.00    +0.000 A 
ATOM      7  C   UNL     1      -7.783   2.975 126.917  0.00  0.00    +0.000 A 
ATOM      8  C   UNL     1      -7.847   2.932 125.516  0.00  0.00    +0.000 A 
ATOM      9  C   UNL     1      -7.051   2.025 124.792  0.00  0.00    +0.000 A 
BRANCH   4  11
ATOM     10  C   UNL     1      -6.287  -1.532 125.924  0.00  0.00    +0.000 C 
ATOM     11  C   UNL     1      -5.806  -0.248 125.252  0.00  0.00    +0.000 C 
ENDBRANCH   4  11
BRANCH   9  12
ATOM     12  C   UNL     1      -7.060   2.174 123.240  0.00  0.00    +0.000 C 
BRANCH  12  13
ATOM     13  N   UNL     1      -6.717   3.447 122.491  0.00  0.00    +0.000 NA
ATOM     14  C   UNL     1      -5.494   4.138 122.969  0.00  0.00    +0.000 C 
ATOM     15  C   UNL     1      -4.932   4.086 121.486  0.00  0.00    +0.000 C 
ATOM     16  C   UNL     1      -6.065   3.033 121.245  0.00  0.00    +0.000 C 
BRANCH  15  17
ATOM     17  C   UNL     1      -4.920   5.225 120.505  0.00  0.00    +0.000 C 
ATOM     18  O   UNL     1      -5.448   5.182 119.417  0.00  0.00    +0.000 OA
BRANCH  17  19
ATOM     19  O   UNL     1      -4.212   6.295 120.937  0.00  0.00    +0.000 OA
ATOM     20  H   UNL     1      -4.780   6.875 121.474  0.00  0.00    +0.000 HD
ENDBRANCH  17  19
ENDBRANCH  15  17
ENDBRANCH  12  13
ENDBRANCH   9  12
ENDBRANCH   1   6
BRANCH   3  21
ATOM     21  O   UNL     1      -7.648   1.038 130.867  0.00  0.00    +0.000 OA
BRANCH  21  22
ATOM     22  C   UNL     1      -8.929   1.046 131.473  0.00  0.00    +0.000 C 
BRANCH  22  23
ATOM     23  C   UNL     1      -9.452   2.450 131.392  0.00  0.00    +0.000 A 
ATOM     24  C   UNL     1     -10.531   2.800 130.579  0.00  0.00    +0.000 A 
ATOM     25  C   UNL     1     -10.853   4.138 130.384  0.00  0.00    +0.000 A 
ATOM     26  C   UNL     1     -10.181   5.157 131.092  0.00  0.00    +0.000 A 
ATOM     27  C   UNL     1      -9.100   4.808 131.948  0.00  0.00    +0.000 A 
ATOM     28  C   UNL     1      -8.779   3.447 132.093  0.00  0.00    +0.000 A 
BRANCH  26  29
ATOM     29  C   UNL     1     -10.733   6.569 130.942  0.00  0.00    +0.000 C 
ATOM     30  C   UNL     1     -10.546   7.049 129.493  0.00  0.00    +0.000 C 
ATOM     31  C   UNL     1     -11.275   8.347 129.191  0.00  0.00    +0.000 C 
ATOM     32  C   UNL     1     -12.727   8.314 129.656  0.00  0.00    +0.000 C 
ATOM     33  C   UNL     1     -12.817   8.019 131.150  0.00  0.00    +0.000 C 
ATOM     34  C   UNL     1     -12.167   6.687 131.463  0.00  0.00    +0.000 C 
ENDBRANCH  26  29
BRANCH  27  35
ATOM     35  C   UNL     1      -8.162   5.772 132.663  0.00  0.00    +0.000 C 
ATOM     36  F   UNL     1      -8.726   6.346 133.760  0.00  0.00    +0.000 F 
ATOM     37  F   UNL     1      -6.977   5.248 133.067  0.00  0.00    +0.000 F 
ATOM     38  F   UNL     1      -7.805   6.840 131.886  0.00  0.00    +0.000 F 
ENDBRANCH  27  35
ENDBRANCH  22  23
ENDBRANCH  21  22
ENDBRANCH   3  21
TORSDOF 11
ENDMDL
MODEL 7
REMARK VINA RESULT:      -8.7      2.055      2.743
REMARK  Name = Siponimod
REMARK  13 active torsions:
REMARK  status: ('A' for Active; 'I' for Inactive)
REMARK    1  A    between atoms: C_1  and  C_2
REMARK    2  A    between atoms: C_2  and  C_3
REMARK    3  A    between atoms: C_5  and  C_17
REMARK    4  A    between atoms: C_8  and  C_9
REMARK    5  A    between atoms: C_9  and  N_10
REMARK    6  A    between atoms: C_12  and  C_14
REMARK    7  A    between atoms: C_14  and  O_15
REMARK    8  A    between atoms: C_17  and  C_18
REMARK    9  A    between atoms: N_19  and  O_20
REMARK   10  A    between atoms: O_20  and  C_21
REMARK   11  A    between atoms: C_21  and  C_22
REMARK   12  A    between atoms: C_25  and  C_26
REMARK   13  A    between atoms: C_32  and  C_34
REMARK                            x       y       z     vdW  Elec       q    Type
REMARK                         _______ _______ _______ _____ _____    ______ ____
ROOT
ATOM      1  C   UNL     1      -7.473   1.340 132.691  0.00  0.00    +0.000 C 
ATOM      2  C   UNL     1      -5.976   1.613 132.490  0.00  0.00    +0.000 C 
ATOM      3  N   UNL     1      -7.955   0.147 132.847  0.00  0.00    +0.000 NA
ENDROOT
BRANCH   1   6
ATOM      4  C   UNL     1      -8.793   4.636 133.374  0.00  0.00    +0.000 A 
ATOM      5  C   UNL     1      -8.438   3.339 133.648  0.00  0.00    +0.000 A 
ATOM      6  C   UNL     1      -8.443   2.445 132.623  0.00  0.00    +0.000 A 
ATOM      7  C   UNL     1      -9.165   2.745 131.466  0.00  0.00    +0.000 A 
ATOM      8  C   UNL     1      -9.875   3.951 131.374  0.00  0.00    +0.000 A 
ATOM      9  C   UNL     1      -9.770   4.920 132.390  0.00  0.00    +0.000 A 
BRANCH   4  11
ATOM     10  C   UNL     1      -6.542   5.691 134.288  0.00  0.00    +0.000 C 
ATOM     11  C   UNL     1      -8.062   5.548 134.292  0.00  0.00    +0.000 C 
ENDBRANCH   4  11
BRANCH   9  12
ATOM     12  C   UNL     1     -10.729   6.144 132.287  0.00  0.00    +0.000 C 
BRANCH  12  13
ATOM     13  N   UNL     1     -11.759   6.347 131.193  0.00  0.00    +0.000 NA
ATOM     14  C   UNL     1     -12.801   7.358 131.501  0.00  0.00    +0.000 C 
ATOM     15  C   UNL     1     -12.422   8.101 130.151  0.00  0.00    +0.000 C 
ATOM     16  C   UNL     1     -11.134   7.213 130.189  0.00  0.00    +0.000 C 
BRANCH  15  17
ATOM     17  C   UNL     1     -13.189   8.034 128.860  0.00  0.00    +0.000 C 
ATOM     18  O   UNL     1     -13.523   6.999 128.328  0.00  0.00    +0.000 OA
BRANCH  17  19
ATOM     19  O   UNL     1     -13.431   9.250 128.317  0.00  0.00    +0.000 OA
ATOM     20  H   UNL     1     -13.356   9.941 128.998  0.00  0.00    +0.000 HD
ENDBRANCH  17  19
ENDBRANCH  15  17
ENDBRANCH  12  13
ENDBRANCH   9  12
ENDBRANCH   1   6
BRANCH   3  21
ATOM     21  O   UNL     1      -6.926  -0.775 132.816  0.00  0.00    +0.000 OA
BRANCH  21  22
ATOM     22  C   UNL     1      -7.448  -2.046 132.469  0.00  0.00    +0.000 C 
BRANCH  22  23
ATOM     23  C   UNL     1      -7.645  -2.055 130.981  0.00  0.00    +0.000 A 
ATOM     24  C   UNL     1      -7.717  -3.238 130.245  0.00  0.00    +0.000 A 
ATOM     25  C   UNL     1      -7.701  -3.198 128.855  0.00  0.00    +0.000 A 
ATOM     26  C   UNL     1      -7.734  -1.968 128.165  0.00  0.00    +0.000 A 
ATOM     27  C   UNL     1      -7.692  -0.756 128.908  0.00  0.00    +0.000 A 
ATOM     28  C   UNL     1      -7.673  -0.835 130.311  0.00  0.00    +0.000 A 
BRANCH  26  29
ATOM     29  C   UNL     1      -7.897  -2.040 126.652  0.00  0.00    +0.000 C 
ATOM     30  C   UNL     1      -6.557  -2.423 126.002  0.00  0.00    +0.000 C 
ATOM     31  C   UNL     1      -6.678  -2.749 124.523  0.00  0.00    +0.000 C 
ATOM     32  C   UNL     1      -7.812  -3.728 124.239  0.00  0.00    +0.000 C 
ATOM     33  C   UNL     1      -9.143  -3.185 124.748  0.00  0.00    +0.000 C 
ATOM     34  C   UNL     1      -9.072  -2.930 126.240  0.00  0.00    +0.000 C 
ENDBRANCH  26  29
BRANCH  27  35
ATOM     35  C   UNL     1      -7.559   0.652 128.340  0.00  0.00    +0.000 C 
ATOM     36  F   UNL     1      -8.712   1.109 127.779  0.00  0.00    +0.000 F 
ATOM     37  F   UNL     1      -7.152   1.603 129.217  0.00  0.00    +0.000 F 
ATOM     38  F   UNL     1      -6.651   0.729 127.320  0.00  0.00    +0.000 F 
ENDBRANCH  27  35
ENDBRANCH  22  23
ENDBRANCH  21  22
ENDBRANCH   3  21
TORSDOF 11
ENDMDL
MODEL 8
REMARK VINA RESULT:      -8.7      3.523      4.752
REMARK  Name = Siponimod
REMARK  13 active torsions:
REMARK  status: ('A' for Active; 'I' for Inactive)
REMARK    1  A    between atoms: C_1  and  C_2
REMARK    2  A    between atoms: C_2  and  C_3
REMARK    3  A    between atoms: C_5  and  C_17
REMARK    4  A    between atoms: C_8  and  C_9
REMARK    5  A    between atoms: C_9  and  N_10
REMARK    6  A    between atoms: C_12  and  C_14
REMARK    7  A    between atoms: C_14  and  O_15
REMARK    8  A    between atoms: C_17  and  C_18
REMARK    9  A    between atoms: N_19  and  O_20
REMARK   10  A    between atoms: O_20  and  C_21
REMARK   11  A    between atoms: C_21  and  C_22
REMARK   12  A    between atoms: C_25  and  C_26
REMARK   13  A    between atoms: C_32  and  C_34
REMARK                            x       y       z     vdW  Elec       q    Type
REMARK                         _______ _______ _______ _____ _____    ______ ____
ROOT
ATOM      1  C   UNL     1      -5.739   4.757 129.729  0.00  0.00    +0.000 C 
ATOM      2  C   UNL     1      -4.855   4.108 130.805  0.00  0.00    +0.000 C 
ATOM      3  N   UNL     1      -5.334   4.956 128.515  0.00  0.00    +0.000 NA
ENDROOT
BRANCH   1   6
ATOM      4  C   UNL     1      -9.259   4.546 130.523  0.00  0.00    +0.000 A 
ATOM      5  C   UNL     1      -8.141   4.496 129.730  0.00  0.00    +0.000 A 
ATOM      6  C   UNL     1      -7.076   5.266 130.076  0.00  0.00    +0.000 A 
ATOM      7  C   UNL     1      -7.271   6.343 130.944  0.00  0.00    +0.000 A 
ATOM      8  C   UNL     1      -8.554   6.620 131.440  0.00  0.00    +0.000 A 
ATOM      9  C   UNL     1      -9.628   5.751 131.169  0.00  0.00    +0.000 A 
BRANCH   4  11
ATOM     10  C   UNL     1      -9.832   2.198 131.606  0.00  0.00    +0.000 C 
ATOM     11  C   UNL     1      -9.948   3.229 130.486  0.00  0.00    +0.000 C 
ENDBRANCH   4  11
BRANCH   9  12
ATOM     12  C   UNL     1     -11.043   6.234 131.609  0.00  0.00    +0.000 C 
BRANCH  12  13
ATOM     13  N   UNL     1     -12.112   6.755 130.669  0.00  0.00    +0.000 NA
ATOM     14  C   UNL     1     -12.925   7.872 131.211  0.00  0.00    +0.000 C 
ATOM     15  C   UNL     1     -12.539   8.723 129.928  0.00  0.00    +0.000 C 
ATOM     16  C   UNL     1     -11.432   7.636 129.715  0.00  0.00    +0.000 C 
BRANCH  15  17
ATOM     17  C   UNL     1     -13.415   8.964 128.732  0.00  0.00    +0.000 C 
ATOM     18  O   UNL     1     -13.833  10.055 128.412  0.00  0.00    +0.000 OA
BRANCH  17  19
ATOM     19  O   UNL     1     -13.739   7.830 128.067  0.00  0.00    +0.000 OA
ATOM     20  H   UNL     1     -14.690   7.822 127.864  0.00  0.00    +0.000 HD
ENDBRANCH  17  19
ENDBRANCH  15  17
ENDBRANCH  12  13
ENDBRANCH   9  12
ENDBRANCH   1   6
BRANCH   3  21
ATOM     21  O   UNL     1      -4.042   4.488 128.375  0.00  0.00    +0.000 OA
BRANCH  21  22
ATOM     22  C   UNL     1      -3.763   4.288 127.000  0.00  0.00    +0.000 C 
BRANCH  22  23
ATOM     23  C   UNL     1      -4.641   3.167 126.526  0.00  0.00    +0.000 A 
ATOM     24  C   UNL     1      -4.601   1.894 127.097  0.00  0.00    +0.000 A 
ATOM     25  C   UNL     1      -5.283   0.840 126.500  0.00  0.00    +0.000 A 
ATOM     26  C   UNL     1      -6.122   1.057 125.387  0.00  0.00    +0.000 A 
ATOM     27  C   UNL     1      -6.195   2.358 124.817  0.00  0.00    +0.000 A 
ATOM     28  C   UNL     1      -5.463   3.392 125.425  0.00  0.00    +0.000 A 
BRANCH  26  29
ATOM     29  C   UNL     1      -6.962  -0.128 124.927  0.00  0.00    +0.000 C 
ATOM     30  C   UNL     1      -6.065  -1.367 124.758  0.00  0.00    +0.000 C 
ATOM     31  C   UNL     1      -6.849  -2.649 124.532  0.00  0.00    +0.000 C 
ATOM     32  C   UNL     1      -7.973  -2.825 125.547  0.00  0.00    +0.000 C 
ATOM     33  C   UNL     1      -8.929  -1.636 125.516  0.00  0.00    +0.000 C 
ATOM     34  C   UNL     1      -8.182  -0.353 125.821  0.00  0.00    +0.000 C 
ENDBRANCH  26  29
BRANCH  27  35
ATOM     35  C   UNL     1      -6.913   2.745 123.531  0.00  0.00    +0.000 C 
ATOM     36  F   UNL     1      -8.268   2.687 123.641  0.00  0.00    +0.000 F 
ATOM     37  F   UNL     1      -6.617   3.976 123.041  0.00  0.00    +0.000 F 
ATOM     38  F   UNL     1      -6.636   1.899 122.493  0.00  0.00    +0.000 F 
ENDBRANCH  27  35
ENDBRANCH  22  23
ENDBRANCH  21  22
ENDBRANCH   3  21
TORSDOF 11
ENDMDL
MODEL 9
REMARK VINA RESULT:      -8.7      1.451      2.327
REMARK  Name = Siponimod
REMARK  13 active torsions:
REMARK  status: ('A' for Active; 'I' for Inactive)
REMARK    1  A    between atoms: C_1  and  C_2
REMARK    2  A    between atoms: C_2  and  C_3
REMARK    3  A    between atoms: C_5  and  C_17
REMARK    4  A    between atoms: C_8  and  C_9
REMARK    5  A    between atoms: C_9  and  N_10
REMARK    6  A    between atoms: C_12  and  C_14
REMARK    7  A    between atoms: C_14  and  O_15
REMARK    8  A    between atoms: C_17  and  C_18
REMARK    9  A    between atoms: N_19  and  O_20
REMARK   10  A    between atoms: O_20  and  C_21
REMARK   11  A    between atoms: C_21  and  C_22
REMARK   12  A    between atoms: C_25  and  C_26
REMARK   13  A    between atoms: C_32  and  C_34
REMARK                            x       y       z     vdW  Elec       q    Type
REMARK                         _______ _______ _______ _____ _____    ______ ____
ROOT
ATOM      1  C   UNL     1      -6.616   0.038 131.804  0.00  0.00    +0.000 C 
ATOM      2  C   UNL     1      -5.635  -0.150 132.970  0.00  0.00    +0.000 C 
ATOM      3  N   UNL     1      -7.136  -0.956 131.156  0.00  0.00    +0.000 NA
ENDROOT
BRANCH   1   6
ATOM      4  C   UNL     1      -8.030   2.505 129.571  0.00  0.00    +0.000 A 
ATOM      5  C   UNL     1      -7.154   1.532 129.982  0.00  0.00    +0.000 A 
ATOM      6  C   UNL     1      -6.936   1.390 131.316  0.00  0.00    +0.000 A 
ATOM      7  C   UNL     1      -7.266   2.443 132.173  0.00  0.00    +0.000 A 
ATOM      8  C   UNL     1      -7.809   3.627 131.652  0.00  0.00    +0.000 A 
ATOM      9  C   UNL     1      -8.138   3.722 130.287  0.00  0.00    +0.000 A 
BRANCH   4  11
ATOM     10  C   UNL     1      -8.230   0.861 127.503  0.00  0.00    +0.000 C 
ATOM     11  C   UNL     1      -8.693   2.069 128.314  0.00  0.00    +0.000 C 
ENDBRANCH   4  11
BRANCH   9  12
ATOM     12  C   UNL     1      -8.566   5.128 129.769  0.00  0.00    +0.000 C 
BRANCH  12  13
ATOM     13  N   UNL     1     -10.001   5.598 129.624  0.00  0.00    +0.000 NA
ATOM     14  C   UNL     1     -10.977   4.884 130.483  0.00  0.00    +0.000 C 
ATOM     15  C   UNL     1     -11.438   6.289 131.058  0.00  0.00    +0.000 C 
ATOM     16  C   UNL     1     -10.117   6.827 130.414  0.00  0.00    +0.000 C 
BRANCH  15  17
ATOM     17  C   UNL     1     -12.678   7.041 130.664  0.00  0.00    +0.000 C 
ATOM     18  O   UNL     1     -12.949   7.340 129.522  0.00  0.00    +0.000 OA
BRANCH  17  19
ATOM     19  O   UNL     1     -13.445   7.401 131.720  0.00  0.00    +0.000 OA
ATOM     20  H   UNL     1     -12.902   7.446 132.526  0.00  0.00    +0.000 HD
ENDBRANCH  17  19
ENDBRANCH  15  17
ENDBRANCH  12  13
ENDBRANCH   9  12
ENDBRANCH   1   6
BRANCH   3  21
ATOM     21  O   UNL     1      -6.681  -2.145 131.691  0.00  0.00    +0.000 OA
BRANCH  21  22
ATOM     22  C   UNL     1      -7.154  -3.224 130.903  0.00  0.00    +0.000 C 
BRANCH  22  23
ATOM     23  C   UNL     1      -6.781  -2.932 129.479  0.00  0.00    +0.000 A 
ATOM     24  C   UNL     1      -5.564  -2.343 129.131  0.00  0.00    +0.000 A 
ATOM     25  C   UNL     1      -5.346  -1.912 127.827  0.00  0.00    +0.000 A 
ATOM     26  C   UNL     1      -6.290  -2.168 126.811  0.00  0.00    +0.000 A 
ATOM     27  C   UNL     1      -7.520  -2.796 127.150  0.00  0.00    +0.000 A 
ATOM     28  C   UNL     1      -7.722  -3.186 128.484  0.00  0.00    +0.000 A 
BRANCH  26  29
ATOM     29  C   UNL     1      -5.871  -1.816 125.389  0.00  0.00    +0.000 C 
ATOM     30  C   UNL     1      -5.567  -3.103 124.603  0.00  0.00    +0.000 C 
ATOM     31  C   UNL     1      -5.371  -2.866 123.115  0.00  0.00    +0.000 C 
ATOM     32  C   UNL     1      -6.485  -2.015 122.515  0.00  0.00    +0.000 C 
ATOM     33  C   UNL     1      -6.594  -0.673 123.230  0.00  0.00    +0.000 C 
ATOM     34  C   UNL     1      -6.873  -0.884 124.705  0.00  0.00    +0.000 C 
ENDBRANCH  26  29
BRANCH  27  35
ATOM     35  C   UNL     1      -8.714  -3.007 126.228  0.00  0.00    +0.000 C 
ATOM     36  F   UNL     1      -9.307  -1.841 125.851  0.00  0.00    +0.000 F 
ATOM     37  F   UNL     1      -8.462  -3.698 125.088  0.00  0.00    +0.000 F 
ATOM     38  F   UNL     1      -9.727  -3.706 126.824  0.00  0.00    +0.000 F 
ENDBRANCH  27  35
ENDBRANCH  22  23
ENDBRANCH  21  22
ENDBRANCH   3  21
TORSDOF 11
ENDMDL
