MODEL 1
REMARK VINA RESULT:      -9.0      0.000      0.000
REMARK  Name = Sitagliptin
REMARK  6 active torsions:
REMARK  status: ('A' for Active; 'I' for Inactive)
REMARK    1  A    between atoms: N_1  and  C_2
REMARK    2  A    between atoms: C_2  and  C_3
REMARK    3  A    between atoms: C_2  and  C_19
REMARK    4  A    between atoms: C_3  and  C_4
REMARK    5  A    between atoms: C_14  and  C_15
REMARK    6  A    between atoms: C_19  and  C_20
REMARK                            x       y       z     vdW  Elec       q    Type
REMARK                         _______ _______ _______ _____ _____    ______ ____
ROOT
ATOM      1  C   UNL     1      -5.663   3.524 125.222  0.00  0.00    +0.000 C 
ENDROOT
BRANCH   1   2
ATOM      2  C   UNL     1      -6.499   3.068 126.422  0.00  0.00    +0.000 C 
ATOM      3  O   UNL     1      -6.944   3.856 127.258  0.00  0.00    +0.000 OA
ATOM      4  N   UNL     1      -6.843   1.728 126.420  0.00  0.00    +0.000 N 
ATOM      5  C   UNL     1      -5.859   0.675 126.228  0.00  0.00    +0.000 C 
ATOM      6  C   UNL     1      -6.248  -0.142 125.024  0.00  0.00    +0.000 C 
ATOM      7  N   UNL     1      -7.644  -0.507 125.085  0.00  0.00    +0.000 N 
ATOM      8  C   UNL     1      -8.574   0.129 125.872  0.00  0.00    +0.000 A 
ATOM      9  C   UNL     1      -8.189   1.260 126.806  0.00  0.00    +0.000 C 
ATOM     10  N   UNL     1      -9.738  -0.446 125.649  0.00  0.00    +0.000 NA
ATOM     11  N   UNL     1      -9.557  -1.434 124.684  0.00  0.00    +0.000 NA
ATOM     12  C   UNL     1      -8.281  -1.454 124.333  0.00  0.00    +0.000 A 
BRANCH  12  13
ATOM     13  C   UNL     1      -7.570  -2.297 123.321  0.00  0.00    +0.000 C 
ATOM     14  F   UNL     1      -6.710  -3.182 123.885  0.00  0.00    +0.000 F 
ATOM     15  F   UNL     1      -8.415  -2.995 122.521  0.00  0.00    +0.000 F 
ATOM     16  F   UNL     1      -6.809  -1.553 122.465  0.00  0.00    +0.000 F 
ENDBRANCH  12  13
ENDBRANCH   1   2
BRANCH   1  17
ATOM     17  C   UNL     1      -6.466   4.022 123.998  0.00  0.00    +0.000 C 
BRANCH  17  18
ATOM     18  N   UNL     1      -7.893   4.177 124.317  0.00  0.00    +0.000 NA
ATOM     19  H   UNL     1      -8.267   4.926 123.720  0.00  0.00    +0.000 HD
ATOM     20  H   UNL     1      -8.013   4.509 125.274  0.00  0.00    +0.000 HD
ENDBRANCH  17  18
BRANCH  17  21
ATOM     21  C   UNL     1      -6.369   3.072 122.773  0.00  0.00    +0.000 C 
BRANCH  21  22
ATOM     22  C   UNL     1      -6.257   3.792 121.451  0.00  0.00    +0.000 A 
ATOM     23  C   UNL     1      -7.293   3.738 120.508  0.00  0.00    +0.000 A 
ATOM     24  C   UNL     1      -7.179   4.459 119.320  0.00  0.00    +0.000 A 
ATOM     25  F   UNL     1      -8.167   4.397 118.419  0.00  0.00    +0.000 F 
ATOM     26  C   UNL     1      -6.057   5.245 119.073  0.00  0.00    +0.000 A 
ATOM     27  F   UNL     1      -5.963   5.950 117.938  0.00  0.00    +0.000 F 
ATOM     28  C   UNL     1      -5.025   5.313 119.997  0.00  0.00    +0.000 A 
ATOM     29  C   UNL     1      -5.124   4.569 121.163  0.00  0.00    +0.000 A 
ATOM     30  F   UNL     1      -4.129   4.652 122.058  0.00  0.00    +0.000 F 
ENDBRANCH  21  22
ENDBRANCH  17  21
ENDBRANCH   1  17
TORSDOF 6
ENDMDL
MODEL 2
REMARK VINA RESULT:      -8.6      1.283      1.969
REMARK  Name = Sitagliptin
REMARK  6 active torsions:
REMARK  status: ('A' for Active; 'I' for Inactive)
REMARK    1  A    between atoms: N_1  and  C_2
REMARK    2  A    between atoms: C_2  and  C_3
REMARK    3  A    between atoms: C_2  and  C_19
REMARK    4  A    between atoms: C_3  and  C_4
REMARK    5  A    between atoms: C_14  and  C_15
REMARK    6  A    between atoms: C_19  and  C_20
REMARK                            x       y       z     vdW  Elec       q    Type
REMARK                         _______ _______ _______ _____ _____    ______ ____
ROOT
ATOM      1  C   UNL     1      -4.886   2.800 125.839  0.00  0.00    +0.000 C 
ENDROOT
BRANCH   1   2
ATOM      2  C   UNL     1      -5.833   2.382 126.969  0.00  0.00    +0.000 C 
ATOM      3  O   UNL     1      -6.165   3.149 127.874  0.00  0.00    +0.000 OA
ATOM      4  N   UNL     1      -6.404   1.130 126.820  0.00  0.00    +0.000 N 
ATOM      5  C   UNL     1      -5.612  -0.055 126.539  0.00  0.00    +0.000 C 
ATOM      6  C   UNL     1      -6.092  -0.668 125.250  0.00  0.00    +0.000 C 
ATOM      7  N   UNL     1      -7.531  -0.785 125.245  0.00  0.00    +0.000 N 
ATOM      8  C   UNL     1      -8.365  -0.075 126.077  0.00  0.00    +0.000 A 
ATOM      9  C   UNL     1      -7.825   0.872 127.130  0.00  0.00    +0.000 C 
ATOM     10  N   UNL     1      -9.603  -0.411 125.772  0.00  0.00    +0.000 NA
ATOM     11  N   UNL     1      -9.561  -1.315 124.713  0.00  0.00    +0.000 NA
ATOM     12  C   UNL     1      -8.295  -1.525 124.387  0.00  0.00    +0.000 A 
BRANCH  12  13
ATOM     13  C   UNL     1      -7.705  -2.376 123.307  0.00  0.00    +0.000 C 
ATOM     14  F   UNL     1      -6.934  -1.670 122.442  0.00  0.00    +0.000 F 
ATOM     15  F   UNL     1      -6.957  -3.402 123.785  0.00  0.00    +0.000 F 
ATOM     16  F   UNL     1      -8.661  -2.970 122.531  0.00  0.00    +0.000 F 
ENDBRANCH  12  13
ENDBRANCH   1   2
BRANCH   1  17
ATOM     17  C   UNL     1      -5.536   3.594 124.682  0.00  0.00    +0.000 C 
BRANCH  17  18
ATOM     18  N   UNL     1      -6.257   4.775 125.179  0.00  0.00    +0.000 NA
ATOM     19  H   UNL     1      -6.628   4.546 126.111  0.00  0.00    +0.000 HD
ATOM     20  H   UNL     1      -7.077   4.965 124.601  0.00  0.00    +0.000 HD
ENDBRANCH  17  18
BRANCH  17  21
ATOM     21  C   UNL     1      -6.544   2.755 123.851  0.00  0.00    +0.000 C 
BRANCH  21  22
ATOM     22  C   UNL     1      -6.815   3.314 122.476  0.00  0.00    +0.000 A 
ATOM     23  C   UNL     1      -5.774   3.809 121.677  0.00  0.00    +0.000 A 
ATOM     24  C   UNL     1      -6.053   4.267 120.391  0.00  0.00    +0.000 A 
ATOM     25  F   UNL     1      -5.057   4.747 119.635  0.00  0.00    +0.000 F 
ATOM     26  C   UNL     1      -7.350   4.218 119.887  0.00  0.00    +0.000 A 
ATOM     27  F   UNL     1      -7.607   4.643 118.643  0.00  0.00    +0.000 F 
ATOM     28  C   UNL     1      -8.390   3.727 120.661  0.00  0.00    +0.000 A 
ATOM     29  C   UNL     1      -8.118   3.303 121.953  0.00  0.00    +0.000 A 
ATOM     30  F   UNL     1      -9.127   2.817 122.690  0.00  0.00    +0.000 F 
ENDBRANCH  21  22
ENDBRANCH  17  21
ENDBRANCH   1  17
TORSDOF 6
ENDMDL
MODEL 3
REMARK VINA RESULT:      -8.6      3.236      4.340
REMARK  Name = Sitagliptin
REMARK  6 active torsions:
REMARK  status: ('A' for Active; 'I' for Inactive)
REMARK    1  A    between atoms: N_1  and  C_2
REMARK    2  A    between atoms: C_2  and  C_3
REMARK    3  A    between atoms: C_2  and  C_19
REMARK    4  A    between atoms: C_3  and  C_4
REMARK    5  A    between atoms: C_14  and  C_15
REMARK    6  A    between atoms: C_19  and  C_20
REMARK                            x       y       z     vdW  Elec       q    Type
REMARK                         _______ _______ _______ _____ _____    ______ ____
ROOT
ATOM      1  C   UNL     1      -8.492   1.059 124.606  0.00  0.00    +0.000 C 
ENDROOT
BRANCH   1   2
ATOM      2  C   UNL     1      -7.454   0.046 124.111  0.00  0.00    +0.000 C 
ATOM      3  O   UNL     1      -6.711   0.272 123.155  0.00  0.00    +0.000 OA
ATOM      4  N   UNL     1      -7.307  -1.077 124.906  0.00  0.00    +0.000 N 
ATOM      5  C   UNL     1      -8.442  -1.882 125.327  0.00  0.00    +0.000 C 
ATOM      6  C   UNL     1      -8.480  -1.919 126.833  0.00  0.00    +0.000 C 
ATOM      7  N   UNL     1      -7.177  -2.234 127.369  0.00  0.00    +0.000 N 
ATOM      8  C   UNL     1      -6.002  -2.100 126.667  0.00  0.00    +0.000 A 
ATOM      9  C   UNL     1      -5.984  -1.653 125.219  0.00  0.00    +0.000 C 
ATOM     10  N   UNL     1      -5.020  -2.444 127.476  0.00  0.00    +0.000 NA
ATOM     11  N   UNL     1      -5.569  -2.764 128.715  0.00  0.00    +0.000 NA
ATOM     12  C   UNL     1      -6.882  -2.617 128.646  0.00  0.00    +0.000 A 
BRANCH  12  13
ATOM     13  C   UNL     1      -7.931  -2.801 129.699  0.00  0.00    +0.000 C 
ATOM     14  F   UNL     1      -7.468  -3.452 130.795  0.00  0.00    +0.000 F 
ATOM     15  F   UNL     1      -8.481  -1.632 130.114  0.00  0.00    +0.000 F 
ATOM     16  F   UNL     1      -8.987  -3.549 129.257  0.00  0.00    +0.000 F 
ENDBRANCH  12  13
ENDBRANCH   1   2
BRANCH   1  17
ATOM     17  C   UNL     1      -8.312   2.506 124.092  0.00  0.00    +0.000 C 
BRANCH  17  18
ATOM     18  N   UNL     1      -9.021   3.472 124.944  0.00  0.00    +0.000 NA
ATOM     19  H   UNL     1      -9.014   4.380 124.461  0.00  0.00    +0.000 HD
ATOM     20  H   UNL     1      -8.511   3.625 125.815  0.00  0.00    +0.000 HD
ENDBRANCH  17  18
BRANCH  17  21
ATOM     21  C   UNL     1      -8.825   2.710 122.641  0.00  0.00    +0.000 C 
BRANCH  21  22
ATOM     22  C   UNL     1      -7.836   3.403 121.736  0.00  0.00    +0.000 A 
ATOM     23  C   UNL     1      -6.504   3.595 122.131  0.00  0.00    +0.000 A 
ATOM     24  C   UNL     1      -5.604   4.190 121.249  0.00  0.00    +0.000 A 
ATOM     25  F   UNL     1      -4.336   4.379 121.634  0.00  0.00    +0.000 F 
ATOM     26  C   UNL     1      -6.011   4.576 119.975  0.00  0.00    +0.000 A 
ATOM     27  F   UNL     1      -5.137   5.129 119.125  0.00  0.00    +0.000 F 
ATOM     28  C   UNL     1      -7.323   4.389 119.565  0.00  0.00    +0.000 A 
ATOM     29  C   UNL     1      -8.226   3.828 120.456  0.00  0.00    +0.000 A 
ATOM     30  F   UNL     1      -9.489   3.638 120.048  0.00  0.00    +0.000 F 
ENDBRANCH  21  22
ENDBRANCH  17  21
ENDBRANCH   1  17
TORSDOF 6
ENDMDL
MODEL 4
REMARK VINA RESULT:      -8.5      1.555      2.233
REMARK  Name = Sitagliptin
REMARK  6 active torsions:
REMARK  status: ('A' for Active; 'I' for Inactive)
REMARK    1  A    between atoms: N_1  and  C_2
REMARK    2  A    between atoms: C_2  and  C_3
REMARK    3  A    between atoms: C_2  and  C_19
REMARK    4  A    between atoms: C_3  and  C_4
REMARK    5  A    between atoms: C_14  and  C_15
REMARK    6  A    between atoms: C_19  and  C_20
REMARK                            x       y       z     vdW  Elec       q    Type
REMARK                         _______ _______ _______ _____ _____    ______ ____
ROOT
ATOM      1  C   UNL     1      -6.827   3.415 126.189  0.00  0.00    +0.000 C 
ENDROOT
BRANCH   1   2
ATOM      2  C   UNL     1      -8.291   3.359 125.742  0.00  0.00    +0.000 C 
ATOM      3  O   UNL     1      -8.918   4.360 125.392  0.00  0.00    +0.000 OA
ATOM      4  N   UNL     1      -8.816   2.084 125.617  0.00  0.00    +0.000 N 
ATOM      5  C   UNL     1      -8.711   1.095 126.676  0.00  0.00    +0.000 C 
ATOM      6  C   UNL     1      -7.991  -0.115 126.142  0.00  0.00    +0.000 C 
ATOM      7  N   UNL     1      -8.548  -0.523 124.874  0.00  0.00    +0.000 N 
ATOM      8  C   UNL     1      -9.312   0.291 124.071  0.00  0.00    +0.000 A 
ATOM      9  C   UNL     1      -9.687   1.699 124.488  0.00  0.00    +0.000 C 
ATOM     10  N   UNL     1      -9.616  -0.398 122.989  0.00  0.00    +0.000 NA
ATOM     11  N   UNL     1      -9.011  -1.649 123.086  0.00  0.00    +0.000 NA
ATOM     12  C   UNL     1      -8.348  -1.711 124.230  0.00  0.00    +0.000 A 
BRANCH  12  13
ATOM     13  C   UNL     1      -7.508  -2.810 124.801  0.00  0.00    +0.000 C 
ATOM     14  F   UNL     1      -7.607  -3.967 124.099  0.00  0.00    +0.000 F 
ATOM     15  F   UNL     1      -6.192  -2.488 124.883  0.00  0.00    +0.000 F 
ATOM     16  F   UNL     1      -7.871  -3.133 126.078  0.00  0.00    +0.000 F 
ENDBRANCH  12  13
ENDBRANCH   1   2
BRANCH   1  17
ATOM     17  C   UNL     1      -5.793   2.906 125.158  0.00  0.00    +0.000 C 
BRANCH  17  18
ATOM     18  N   UNL     1      -4.644   2.269 125.817  0.00  0.00    +0.000 NA
ATOM     19  H   UNL     1      -4.041   3.016 126.186  0.00  0.00    +0.000 HD
ATOM     20  H   UNL     1      -4.071   1.770 125.136  0.00  0.00    +0.000 HD
ENDBRANCH  17  18
BRANCH  17  21
ATOM     21  C   UNL     1      -5.234   4.029 124.243  0.00  0.00    +0.000 C 
BRANCH  21  22
ATOM     22  C   UNL     1      -5.764   3.986 122.831  0.00  0.00    +0.000 A 
ATOM     23  C   UNL     1      -7.069   3.549 122.560  0.00  0.00    +0.000 A 
ATOM     24  C   UNL     1      -7.544   3.574 121.249  0.00  0.00    +0.000 A 
ATOM     25  F   UNL     1      -8.788   3.148 120.995  0.00  0.00    +0.000 F 
ATOM     26  C   UNL     1      -6.743   4.047 120.214  0.00  0.00    +0.000 A 
ATOM     27  F   UNL     1      -7.212   4.085 118.961  0.00  0.00    +0.000 F 
ATOM     28  C   UNL     1      -5.452   4.487 120.464  0.00  0.00    +0.000 A 
ATOM     29  C   UNL     1      -4.968   4.430 121.763  0.00  0.00    +0.000 A 
ATOM     30  F   UNL     1      -3.724   4.871 122.000  0.00  0.00    +0.000 F 
ENDBRANCH  21  22
ENDBRANCH  17  21
ENDBRANCH   1  17
TORSDOF 6
ENDMDL
MODEL 5
REMARK VINA RESULT:      -8.5      1.769      2.714
REMARK  Name = Sitagliptin
REMARK  6 active torsions:
REMARK  status: ('A' for Active; 'I' for Inactive)
REMARK    1  A    between atoms: N_1  and  C_2
REMARK    2  A    between atoms: C_2  and  C_3
REMARK    3  A    between atoms: C_2  and  C_19
REMARK    4  A    between atoms: C_3  and  C_4
REMARK    5  A    between atoms: C_14  and  C_15
REMARK    6  A    between atoms: C_19  and  C_20
REMARK                            x       y       z     vdW  Elec       q    Type
REMARK                         _______ _______ _______ _____ _____    ______ ____
ROOT
ATOM      1  C   UNL     1      -7.533   2.591 125.654  0.00  0.00    +0.000 C 
ENDROOT
BRANCH   1   2
ATOM      2  C   UNL     1      -8.079   1.598 126.685  0.00  0.00    +0.000 C 
ATOM      3  O   UNL     1      -9.015   1.870 127.438  0.00  0.00    +0.000 OA
ATOM      4  N   UNL     1      -7.545   0.324 126.609  0.00  0.00    +0.000 N 
ATOM      5  C   UNL     1      -6.112   0.084 126.582  0.00  0.00    +0.000 C 
ATOM      6  C   UNL     1      -5.766  -0.663 125.321  0.00  0.00    +0.000 C 
ATOM      7  N   UNL     1      -6.655  -1.786 125.134  0.00  0.00    +0.000 N 
ATOM      8  C   UNL     1      -7.876  -1.914 125.752  0.00  0.00    +0.000 A 
ATOM      9  C   UNL     1      -8.377  -0.888 126.750  0.00  0.00    +0.000 C 
ATOM     10  N   UNL     1      -8.418  -3.036 125.323  0.00  0.00    +0.000 NA
ATOM     11  N   UNL     1      -7.552  -3.611 124.395  0.00  0.00    +0.000 NA
ATOM     12  C   UNL     1      -6.488  -2.834 124.273  0.00  0.00    +0.000 A 
BRANCH  12  13
ATOM     13  C   UNL     1      -5.285  -2.975 123.393  0.00  0.00    +0.000 C 
ATOM     14  F   UNL     1      -5.461  -2.420 122.168  0.00  0.00    +0.000 F 
ATOM     15  F   UNL     1      -4.163  -2.438 123.933  0.00  0.00    +0.000 F 
ATOM     16  F   UNL     1      -4.968  -4.283 123.151  0.00  0.00    +0.000 F 
ENDBRANCH  12  13
ENDBRANCH   1   2
BRANCH   1  17
ATOM     17  C   UNL     1      -8.430   2.831 124.417  0.00  0.00    +0.000 C 
BRANCH  17  18
ATOM     18  N   UNL     1      -9.802   2.354 124.645  0.00  0.00    +0.000 NA
ATOM     19  H   UNL     1     -10.197   2.899 125.423  0.00  0.00    +0.000 HD
ATOM     20  H   UNL     1      -9.796   1.386 124.969  0.00  0.00    +0.000 HD
ENDBRANCH  17  18
BRANCH  17  21
ATOM     21  C   UNL     1      -7.906   2.129 123.134  0.00  0.00    +0.000 C 
BRANCH  21  22
ATOM     22  C   UNL     1      -7.211   3.060 122.170  0.00  0.00    +0.000 A 
ATOM     23  C   UNL     1      -5.893   3.481 122.395  0.00  0.00    +0.000 A 
ATOM     24  C   UNL     1      -5.263   4.298 121.456  0.00  0.00    +0.000 A 
ATOM     25  F   UNL     1      -4.007   4.704 121.679  0.00  0.00    +0.000 F 
ATOM     26  C   UNL     1      -5.924   4.679 120.292  0.00  0.00    +0.000 A 
ATOM     27  F   UNL     1      -5.306   5.447 119.386  0.00  0.00    +0.000 F 
ATOM     28  C   UNL     1      -7.226   4.267 120.051  0.00  0.00    +0.000 A 
ATOM     29  C   UNL     1      -7.863   3.483 121.002  0.00  0.00    +0.000 A 
ATOM     30  F   UNL     1      -9.117   3.077 120.756  0.00  0.00    +0.000 F 
ENDBRANCH  21  22
ENDBRANCH  17  21
ENDBRANCH   1  17
TORSDOF 6
ENDMDL
MODEL 6
REMARK VINA RESULT:      -8.3      3.022      7.910
REMARK  Name = Sitagliptin
REMARK  6 active torsions:
REMARK  status: ('A' for Active; 'I' for Inactive)
REMARK    1  A    between atoms: N_1  and  C_2
REMARK    2  A    between atoms: C_2  and  C_3
REMARK    3  A    between atoms: C_2  and  C_19
REMARK    4  A    between atoms: C_3  and  C_4
REMARK    5  A    between atoms: C_14  and  C_15
REMARK    6  A    between atoms: C_19  and  C_20
REMARK                            x       y       z     vdW  Elec       q    Type
REMARK                         _______ _______ _______ _____ _____    ______ ____
ROOT
ATOM      1  C   UNL     1      -8.873  -0.333 124.835  0.00  0.00    +0.000 C 
ENDROOT
BRANCH   1   2
ATOM      2  C   UNL     1      -9.052   1.002 125.566  0.00  0.00    +0.000 C 
ATOM      3  O   UNL     1      -9.344   1.070 126.761  0.00  0.00    +0.000 OA
ATOM      4  N   UNL     1      -8.716   2.122 124.827  0.00  0.00    +0.000 N 
ATOM      5  C   UNL     1      -9.239   2.356 123.491  0.00  0.00    +0.000 C 
ATOM      6  C   UNL     1      -8.086   2.477 122.531  0.00  0.00    +0.000 C 
ATOM      7  N   UNL     1      -7.086   3.382 123.045  0.00  0.00    +0.000 N 
ATOM      8  C   UNL     1      -6.982   3.745 124.367  0.00  0.00    +0.000 A 
ATOM      9  C   UNL     1      -7.967   3.254 125.409  0.00  0.00    +0.000 C 
ATOM     10  N   UNL     1      -5.944   4.550 124.474  0.00  0.00    +0.000 NA
ATOM     11  N   UNL     1      -5.358   4.674 123.215  0.00  0.00    +0.000 NA
ATOM     12  C   UNL     1      -6.051   3.946 122.354  0.00  0.00    +0.000 A 
BRANCH  12  13
ATOM     13  C   UNL     1      -5.829   3.709 120.893  0.00  0.00    +0.000 C 
ATOM     14  F   UNL     1      -5.351   2.467 120.627  0.00  0.00    +0.000 F 
ATOM     15  F   UNL     1      -6.948   3.889 120.147  0.00  0.00    +0.000 F 
ATOM     16  F   UNL     1      -4.909   4.569 120.360  0.00  0.00    +0.000 F 
ENDBRANCH  12  13
ENDBRANCH   1   2
BRANCH   1  17
ATOM     17  C   UNL     1      -7.411  -0.781 124.610  0.00  0.00    +0.000 C 
BRANCH  17  18
ATOM     18  N   UNL     1      -7.013  -0.636 123.202  0.00  0.00    +0.000 NA
ATOM     19  H   UNL     1      -7.179  -1.537 122.735  0.00  0.00    +0.000 HD
ATOM     20  H   UNL     1      -6.009  -0.474 123.127  0.00  0.00    +0.000 HD
ENDBRANCH  17  18
BRANCH  17  21
ATOM     21  C   UNL     1      -7.153  -2.260 125.010  0.00  0.00    +0.000 C 
BRANCH  21  22
ATOM     22  C   UNL     1      -7.458  -2.562 126.457  0.00  0.00    +0.000 A 
ATOM     23  C   UNL     1      -8.563  -3.347 126.815  0.00  0.00    +0.000 A 
ATOM     24  C   UNL     1      -8.784  -3.652 128.157  0.00  0.00    +0.000 A 
ATOM     25  F   UNL     1      -9.845  -4.395 128.495  0.00  0.00    +0.000 F 
ATOM     26  C   UNL     1      -7.907  -3.201 129.139  0.00  0.00    +0.000 A 
ATOM     27  F   UNL     1      -8.114  -3.513 130.425  0.00  0.00    +0.000 F 
ATOM     28  C   UNL     1      -6.806  -2.427 128.803  0.00  0.00    +0.000 A 
ATOM     29  C   UNL     1      -6.607  -2.096 127.470  0.00  0.00    +0.000 A 
ATOM     30  F   UNL     1      -5.533  -1.360 127.151  0.00  0.00    +0.000 F 
ENDBRANCH  21  22
ENDBRANCH  17  21
ENDBRANCH   1  17
TORSDOF 6
ENDMDL
MODEL 7
REMARK VINA RESULT:      -8.1      7.601     10.115
REMARK  Name = Sitagliptin
REMARK  6 active torsions:
REMARK  status: ('A' for Active; 'I' for Inactive)
REMARK    1  A    between atoms: N_1  and  C_2
REMARK    2  A    between atoms: C_2  and  C_3
REMARK    3  A    between atoms: C_2  and  C_19
REMARK    4  A    between atoms: C_3  and  C_4
REMARK    5  A    between atoms: C_14  and  C_15
REMARK    6  A    between atoms: C_19  and  C_20
REMARK                            x       y       z     vdW  Elec       q    Type
REMARK                         _______ _______ _______ _____ _____    ______ ____
ROOT
ATOM      1  C   UNL     1      -9.450   6.224 130.455  0.00  0.00    +0.000 C 
ENDROOT
BRANCH   1   2
ATOM      2  C   UNL     1      -9.062   4.767 130.184  0.00  0.00    +0.000 C 
ATOM      3  O   UNL     1      -9.894   3.895 129.930  0.00  0.00    +0.000 OA
ATOM      4  N   UNL     1      -7.701   4.531 130.098  0.00  0.00    +0.000 N 
ATOM      5  C   UNL     1      -6.770   4.982 131.119  0.00  0.00    +0.000 C 
ATOM      6  C   UNL     1      -5.748   5.886 130.481  0.00  0.00    +0.000 C 
ATOM      7  N   UNL     1      -5.215   5.286 129.280  0.00  0.00    +0.000 N 
ATOM      8  C   UNL     1      -5.828   4.269 128.589  0.00  0.00    +0.000 A 
ATOM      9  C   UNL     1      -7.120   3.640 129.074  0.00  0.00    +0.000 C 
ATOM     10  N   UNL     1      -5.080   4.000 127.538  0.00  0.00    +0.000 NA
ATOM     11  N   UNL     1      -3.998   4.878 127.538  0.00  0.00    +0.000 NA
ATOM     12  C   UNL     1      -4.097   5.669 128.595  0.00  0.00    +0.000 A 
BRANCH  12  13
ATOM     13  C   UNL     1      -3.220   6.797 129.041  0.00  0.00    +0.000 C 
ATOM     14  F   UNL     1      -3.851   7.998 129.015  0.00  0.00    +0.000 F 
ATOM     15  F   UNL     1      -2.718   6.621 130.290  0.00  0.00    +0.000 F 
ATOM     16  F   UNL     1      -2.122   6.952 128.240  0.00  0.00    +0.000 F 
ENDBRANCH  12  13
ENDBRANCH   1   2
BRANCH   1  17
ATOM     17  C   UNL     1     -10.563   6.435 131.509  0.00  0.00    +0.000 C 
BRANCH  17  18
ATOM     18  N   UNL     1     -10.418   5.505 132.638  0.00  0.00    +0.000 NA
ATOM     19  H   UNL     1     -11.347   5.110 132.839  0.00  0.00    +0.000 HD
ATOM     20  H   UNL     1     -10.149   6.008 133.484  0.00  0.00    +0.000 HD
ENDBRANCH  17  18
BRANCH  17  21
ATOM     21  C   UNL     1     -11.993   6.245 130.936  0.00  0.00    +0.000 C 
BRANCH  21  22
ATOM     22  C   UNL     1     -12.548   7.475 130.260  0.00  0.00    +0.000 A 
ATOM     23  C   UNL     1     -12.690   8.683 130.957  0.00  0.00    +0.000 A 
ATOM     24  C   UNL     1     -13.155   9.814 130.287  0.00  0.00    +0.000 A 
ATOM     25  F   UNL     1     -13.296  10.962 130.960  0.00  0.00    +0.000 F 
ATOM     26  C   UNL     1     -13.459   9.757 128.930  0.00  0.00    +0.000 A 
ATOM     27  F   UNL     1     -13.887  10.852 128.288  0.00  0.00    +0.000 F 
ATOM     28  C   UNL     1     -13.320   8.572 128.224  0.00  0.00    +0.000 A 
ATOM     29  C   UNL     1     -12.890   7.439 128.899  0.00  0.00    +0.000 A 
ATOM     30  F   UNL     1     -12.745   6.301 128.206  0.00  0.00    +0.000 F 
ENDBRANCH  21  22
ENDBRANCH  17  21
ENDBRANCH   1  17
TORSDOF 6
ENDMDL
MODEL 8
REMARK VINA RESULT:      -8.0      3.354      5.662
REMARK  Name = Sitagliptin
REMARK  6 active torsions:
REMARK  status: ('A' for Active; 'I' for Inactive)
REMARK    1  A    between atoms: N_1  and  C_2
REMARK    2  A    between atoms: C_2  and  C_3
REMARK    3  A    between atoms: C_2  and  C_19
REMARK    4  A    between atoms: C_3  and  C_4
REMARK    5  A    between atoms: C_14  and  C_15
REMARK    6  A    between atoms: C_19  and  C_20
REMARK                            x       y       z     vdW  Elec       q    Type
REMARK                         _______ _______ _______ _____ _____    ______ ____
ROOT
ATOM      1  C   UNL     1      -7.768   3.267 124.825  0.00  0.00    +0.000 C 
ENDROOT
BRANCH   1   2
ATOM      2  C   UNL     1      -7.068   2.062 125.463  0.00  0.00    +0.000 C 
ATOM      3  O   UNL     1      -7.204   0.914 125.038  0.00  0.00    +0.000 OA
ATOM      4  N   UNL     1      -6.156   2.373 126.456  0.00  0.00    +0.000 N 
ATOM      5  C   UNL     1      -6.491   3.243 127.571  0.00  0.00    +0.000 C 
ATOM      6  C   UNL     1      -5.545   4.415 127.576  0.00  0.00    +0.000 C 
ATOM      7  N   UNL     1      -4.179   3.969 127.438  0.00  0.00    +0.000 N 
ATOM      8  C   UNL     1      -3.817   2.735 126.954  0.00  0.00    +0.000 A 
ATOM      9  C   UNL     1      -4.850   1.695 126.566  0.00  0.00    +0.000 C 
ATOM     10  N   UNL     1      -2.500   2.689 126.939  0.00  0.00    +0.000 NA
ATOM     11  N   UNL     1      -2.017   3.917 127.384  0.00  0.00    +0.000 NA
ATOM     12  C   UNL     1      -3.047   4.698 127.670  0.00  0.00    +0.000 A 
BRANCH  12  13
ATOM     13  C   UNL     1      -3.081   6.114 128.152  0.00  0.00    +0.000 C 
ATOM     14  F   UNL     1      -3.526   6.227 129.428  0.00  0.00    +0.000 F 
ATOM     15  F   UNL     1      -1.874   6.731 128.080  0.00  0.00    +0.000 F 
ATOM     16  F   UNL     1      -3.920   6.897 127.409  0.00  0.00    +0.000 F 
ENDBRANCH  12  13
ENDBRANCH   1   2
BRANCH   1  17
ATOM     17  C   UNL     1      -7.944   3.203 123.290  0.00  0.00    +0.000 C 
BRANCH  17  18
ATOM     18  N   UNL     1      -8.929   2.182 122.903  0.00  0.00    +0.000 NA
ATOM     19  H   UNL     1      -8.413   1.325 122.664  0.00  0.00    +0.000 HD
ATOM     20  H   UNL     1      -9.411   2.455 122.047  0.00  0.00    +0.000 HD
ENDBRANCH  17  18
BRANCH  17  21
ATOM     21  C   UNL     1      -6.626   2.881 122.534  0.00  0.00    +0.000 C 
BRANCH  21  22
ATOM     22  C   UNL     1      -6.424   3.701 121.284  0.00  0.00    +0.000 A 
ATOM     23  C   UNL     1      -7.394   3.728 120.272  0.00  0.00    +0.000 A 
ATOM     24  C   UNL     1      -7.200   4.539 119.154  0.00  0.00    +0.000 A 
ATOM     25  F   UNL     1      -8.125   4.555 118.187  0.00  0.00    +0.000 F 
ATOM     26  C   UNL     1      -6.063   5.335 119.046  0.00  0.00    +0.000 A 
ATOM     27  F   UNL     1      -5.892   6.126 117.979  0.00  0.00    +0.000 F 
ATOM     28  C   UNL     1      -5.096   5.324 120.040  0.00  0.00    +0.000 A 
ATOM     29  C   UNL     1      -5.274   4.491 121.135  0.00  0.00    +0.000 A 
ATOM     30  F   UNL     1      -4.341   4.497 122.098  0.00  0.00    +0.000 F 
ENDBRANCH  21  22
ENDBRANCH  17  21
ENDBRANCH   1  17
TORSDOF 6
ENDMDL
MODEL 9
REMARK VINA RESULT:      -7.9      7.681      9.523
REMARK  Name = Sitagliptin
REMARK  6 active torsions:
REMARK  status: ('A' for Active; 'I' for Inactive)
REMARK    1  A    between atoms: N_1  and  C_2
REMARK    2  A    between atoms: C_2  and  C_3
REMARK    3  A    between atoms: C_2  and  C_19
REMARK    4  A    between atoms: C_3  and  C_4
REMARK    5  A    between atoms: C_14  and  C_15
REMARK    6  A    between atoms: C_19  and  C_20
REMARK                            x       y       z     vdW  Elec       q    Type
REMARK                         _______ _______ _______ _____ _____    ______ ____
ROOT
ATOM      1  C   UNL     1      -6.949   6.742 131.408  0.00  0.00    +0.000 C 
ENDROOT
BRANCH   1   2
ATOM      2  C   UNL     1      -7.968   5.916 132.199  0.00  0.00    +0.000 C 
ATOM      3  O   UNL     1      -7.760   5.532 133.351  0.00  0.00    +0.000 OA
ATOM      4  N   UNL     1      -9.198   5.760 131.584  0.00  0.00    +0.000 N 
ATOM      5  C   UNL     1      -9.325   5.297 130.213  0.00  0.00    +0.000 C 
ATOM      6  C   UNL     1     -10.059   6.340 129.412  0.00  0.00    +0.000 C 
ATOM      7  N   UNL     1     -11.250   6.771 130.105  0.00  0.00    +0.000 N 
ATOM      8  C   UNL     1     -11.465   6.593 131.451  0.00  0.00    +0.000 A 
ATOM      9  C   UNL     1     -10.469   5.861 132.329  0.00  0.00    +0.000 C 
ATOM     10  N   UNL     1     -12.631   7.136 131.738  0.00  0.00    +0.000 NA
ATOM     11  N   UNL     1     -13.148   7.698 130.573  0.00  0.00    +0.000 NA
ATOM     12  C   UNL     1     -12.292   7.486 129.586  0.00  0.00    +0.000 A 
BRANCH  12  13
ATOM     13  C   UNL     1     -12.350   7.906 128.151  0.00  0.00    +0.000 C 
ATOM     14  F   UNL     1     -13.507   8.541 127.834  0.00  0.00    +0.000 F 
ATOM     15  F   UNL     1     -11.323   8.716 127.790  0.00  0.00    +0.000 F 
ATOM     16  F   UNL     1     -12.278   6.844 127.293  0.00  0.00    +0.000 F 
ENDBRANCH  12  13
ENDBRANCH   1   2
BRANCH   1  17
ATOM     17  C   UNL     1      -5.508   6.180 131.383  0.00  0.00    +0.000 C 
BRANCH  17  18
ATOM     18  N   UNL     1      -4.785   6.497 132.623  0.00  0.00    +0.000 NA
ATOM     19  H   UNL     1      -3.879   6.010 132.590  0.00  0.00    +0.000 HD
ATOM     20  H   UNL     1      -5.271   6.109 133.432  0.00  0.00    +0.000 HD
ENDBRANCH  17  18
BRANCH  17  21
ATOM     21  C   UNL     1      -4.658   6.723 130.203  0.00  0.00    +0.000 C 
BRANCH  21  22
ATOM     22  C   UNL     1      -3.941   5.649 129.422  0.00  0.00    +0.000 A 
ATOM     23  C   UNL     1      -4.170   4.291 129.682  0.00  0.00    +0.000 A 
ATOM     24  C   UNL     1      -3.532   3.325 128.905  0.00  0.00    +0.000 A 
ATOM     25  F   UNL     1      -3.748   2.029 129.162  0.00  0.00    +0.000 F 
ATOM     26  C   UNL     1      -2.686   3.698 127.864  0.00  0.00    +0.000 A 
ATOM     27  F   UNL     1      -2.091   2.766 127.110  0.00  0.00    +0.000 F 
ATOM     28  C   UNL     1      -2.452   5.037 127.591  0.00  0.00    +0.000 A 
ATOM     29  C   UNL     1      -3.061   5.997 128.386  0.00  0.00    +0.000 A 
ATOM     30  F   UNL     1      -2.840   7.290 128.106  0.00  0.00    +0.000 F 
ENDBRANCH  21  22
ENDBRANCH  17  21
ENDBRANCH   1  17
TORSDOF 6
ENDMDL
