MODEL 1
REMARK VINA RESULT:      -8.1      0.000      0.000
REMARK  Name = Sitaxentan
REMARK  8 active torsions:
REMARK  status: ('A' for Active; 'I' for Inactive)
REMARK    1  A    between atoms: C_1  and  C_2
REMARK    2  A    between atoms: C_5  and  N_6
REMARK    3  A    between atoms: N_6  and  S_7
REMARK    4  A    between atoms: S_7  and  C_10
REMARK    5  A    between atoms: C_11  and  C_15
REMARK    6  A    between atoms: C_15  and  C_17
REMARK    7  A    between atoms: C_17  and  C_18
REMARK    8  A    between atoms: C_26  and  C_27
REMARK                            x       y       z     vdW  Elec       q    Type
REMARK                         _______ _______ _______ _____ _____    ______ ____
ROOT
ATOM      1  C   UNL     1      -8.563   3.387 131.425  0.00  0.00    +0.000 A 
ATOM      2  C   UNL     1      -8.256   4.704 131.722  0.00  0.00    +0.000 A 
ATOM      3  S   UNL     1      -8.182   4.937 133.424  0.00  0.00    +0.000 S 
ATOM      4  C   UNL     1      -8.563   3.308 133.759  0.00  0.00    +0.000 A 
ATOM      5  C   UNL     1      -8.747   2.583 132.607  0.00  0.00    +0.000 A 
ENDROOT
BRANCH   1   6
ATOM      6  S   UNL     1      -8.739   2.665 129.852  0.00  0.00    +0.000 S 
ATOM      7  O   UNL     1     -10.005   3.265 129.422  0.00  0.00    +0.000 OA
ATOM      8  O   UNL     1      -8.609   1.271 130.149  0.00  0.00    +0.000 OA
BRANCH   6   9
ATOM      9  N   UNL     1      -7.599   3.107 128.750  0.00  0.00    +0.000 N 
ATOM     10  H   UNL     1      -6.607   2.975 128.938  0.00  0.00    +0.000 HD
BRANCH   9  15
ATOM     11  C   UNL     1      -8.448   2.959 123.907  0.00  0.00    +0.000 C 
ATOM     12  C   UNL     1      -8.303   3.461 125.280  0.00  0.00    +0.000 A 
ATOM     13  N   UNL     1      -8.538   4.717 125.674  0.00  0.00    +0.000 NA
ATOM     14  O   UNL     1      -8.268   4.703 127.045  0.00  0.00    +0.000 OA
ATOM     15  C   UNL     1      -7.895   3.437 127.426  0.00  0.00    +0.000 A 
ATOM     16  C   UNL     1      -7.898   2.628 126.329  0.00  0.00    +0.000 A 
ATOM     17 CL   UNL     1      -7.540   0.982 126.114  0.00  0.00    +0.000 Cl
ENDBRANCH   9  15
ENDBRANCH   6   9
ENDBRANCH   1   6
BRANCH   2  18
ATOM     18  C   UNL     1      -7.973   5.799 130.810  0.00  0.00    +0.000 C 
ATOM     19  O   UNL     1      -6.981   5.770 130.061  0.00  0.00    +0.000 OA
BRANCH  18  20
ATOM     20  C   UNL     1      -8.781   7.051 130.772  0.00  0.00    +0.000 C 
BRANCH  20  21
ATOM     21  C   UNL     1     -10.069   6.911 129.947  0.00  0.00    +0.000 A 
ATOM     22  C   UNL     1     -10.222   7.044 128.524  0.00  0.00    +0.000 A 
ATOM     23  C   UNL     1     -11.530   7.228 128.058  0.00  0.00    +0.000 A 
ATOM     24  C   UNL     1     -12.483   7.568 128.957  0.00  0.00    +0.000 A 
ATOM     25  O   UNL     1     -13.654   7.993 128.425  0.00  0.00    +0.000 OA
ATOM     26  C   UNL     1     -13.612   7.049 127.373  0.00  0.00    +0.000 C 
ATOM     27  O   UNL     1     -12.213   6.944 126.886  0.00  0.00    +0.000 OA
ATOM     28  C   UNL     1     -12.460   6.851 130.091  0.00  0.00    +0.000 A 
ATOM     29  C   UNL     1     -11.242   6.686 130.689  0.00  0.00    +0.000 A 
ATOM     30  C   UNL     1     -11.336   6.515 132.162  0.00  0.00    +0.000 C 
ENDBRANCH  20  21
ENDBRANCH  18  20
ENDBRANCH   2  18
TORSDOF 6
ENDMDL
MODEL 2
REMARK VINA RESULT:      -7.7      1.454      1.491
REMARK  Name = Sitaxentan
REMARK  8 active torsions:
REMARK  status: ('A' for Active; 'I' for Inactive)
REMARK    1  A    between atoms: C_1  and  C_2
REMARK    2  A    between atoms: C_5  and  N_6
REMARK    3  A    between atoms: N_6  and  S_7
REMARK    4  A    between atoms: S_7  and  C_10
REMARK    5  A    between atoms: C_11  and  C_15
REMARK    6  A    between atoms: C_15  and  C_17
REMARK    7  A    between atoms: C_17  and  C_18
REMARK    8  A    between atoms: C_26  and  C_27
REMARK                            x       y       z     vdW  Elec       q    Type
REMARK                         _______ _______ _______ _____ _____    ______ ____
ROOT
ATOM      1  C   UNL     1      -8.359   3.137 130.433  0.00  0.00    +0.000 A 
ATOM      2  C   UNL     1      -8.340   4.346 131.106  0.00  0.00    +0.000 A 
ATOM      3  S   UNL     1      -8.822   4.131 132.744  0.00  0.00    +0.000 S 
ATOM      4  C   UNL     1      -9.061   2.452 132.552  0.00  0.00    +0.000 A 
ATOM      5  C   UNL     1      -8.783   2.044 131.270  0.00  0.00    +0.000 A 
ENDROOT
BRANCH   1   6
ATOM      6  S   UNL     1      -7.947   2.841 128.768  0.00  0.00    +0.000 S 
ATOM      7  O   UNL     1      -9.072   1.997 128.359  0.00  0.00    +0.000 OA
ATOM      8  O   UNL     1      -6.610   2.343 128.877  0.00  0.00    +0.000 OA
BRANCH   6   9
ATOM      9  N   UNL     1      -7.966   4.172 127.798  0.00  0.00    +0.000 N 
ATOM     10  H   UNL     1      -7.971   5.110 128.193  0.00  0.00    +0.000 HD
BRANCH   9  15
ATOM     11  C   UNL     1      -5.835   4.078 123.366  0.00  0.00    +0.000 C 
ATOM     12  C   UNL     1      -6.860   4.063 124.417  0.00  0.00    +0.000 A 
ATOM     13  N   UNL     1      -8.174   3.918 124.217  0.00  0.00    +0.000 NA
ATOM     14  O   UNL     1      -8.725   3.967 125.500  0.00  0.00    +0.000 OA
ATOM     15  C   UNL     1      -7.722   4.126 126.424  0.00  0.00    +0.000 A 
ATOM     16  C   UNL     1      -6.528   4.200 125.771  0.00  0.00    +0.000 A 
ATOM     17 CL   UNL     1      -4.931   4.394 126.314  0.00  0.00    +0.000 Cl
ENDBRANCH   9  15
ENDBRANCH   6   9
ENDBRANCH   1   6
BRANCH   2  18
ATOM     18  C   UNL     1      -7.946   5.655 130.616  0.00  0.00    +0.000 C 
ATOM     19  O   UNL     1      -6.830   5.835 130.096  0.00  0.00    +0.000 OA
BRANCH  18  20
ATOM     20  C   UNL     1      -8.793   6.871 130.777  0.00  0.00    +0.000 C 
BRANCH  20  21
ATOM     21  C   UNL     1     -10.088   6.815 129.954  0.00  0.00    +0.000 A 
ATOM     22  C   UNL     1     -10.230   6.914 128.527  0.00  0.00    +0.000 A 
ATOM     23  C   UNL     1     -11.518   7.194 128.052  0.00  0.00    +0.000 A 
ATOM     24  C   UNL     1     -12.437   7.643 128.937  0.00  0.00    +0.000 A 
ATOM     25  O   UNL     1     -13.567   8.150 128.389  0.00  0.00    +0.000 OA
ATOM     26  C   UNL     1     -13.607   7.172 127.368  0.00  0.00    +0.000 C 
ATOM     27  O   UNL     1     -12.223   6.931 126.888  0.00  0.00    +0.000 OA
ATOM     28  C   UNL     1     -12.476   6.965 130.094  0.00  0.00    +0.000 A 
ATOM     29  C   UNL     1     -11.276   6.715 130.700  0.00  0.00    +0.000 A 
ATOM     30  C   UNL     1     -11.384   6.602 132.178  0.00  0.00    +0.000 C 
ENDBRANCH  20  21
ENDBRANCH  18  20
ENDBRANCH   2  18
TORSDOF 6
ENDMDL
MODEL 3
REMARK VINA RESULT:      -7.6      2.030      3.088
REMARK  Name = Sitaxentan
REMARK  8 active torsions:
REMARK  status: ('A' for Active; 'I' for Inactive)
REMARK    1  A    between atoms: C_1  and  C_2
REMARK    2  A    between atoms: C_5  and  N_6
REMARK    3  A    between atoms: N_6  and  S_7
REMARK    4  A    between atoms: S_7  and  C_10
REMARK    5  A    between atoms: C_11  and  C_15
REMARK    6  A    between atoms: C_15  and  C_17
REMARK    7  A    between atoms: C_17  and  C_18
REMARK    8  A    between atoms: C_26  and  C_27
REMARK                            x       y       z     vdW  Elec       q    Type
REMARK                         _______ _______ _______ _____ _____    ______ ____
ROOT
ATOM      1  C   UNL     1      -6.743   4.118 128.635  0.00  0.00    +0.000 A 
ATOM      2  C   UNL     1      -7.400   3.898 129.834  0.00  0.00    +0.000 A 
ATOM      3  S   UNL     1      -6.301   4.012 131.153  0.00  0.00    +0.000 S 
ATOM      4  C   UNL     1      -4.969   4.340 130.138  0.00  0.00    +0.000 A 
ATOM      5  C   UNL     1      -5.335   4.366 128.814  0.00  0.00    +0.000 A 
ENDROOT
BRANCH   1   6
ATOM      6  S   UNL     1      -7.424   4.117 127.034  0.00  0.00    +0.000 S 
ATOM      7  O   UNL     1      -6.224   4.370 126.232  0.00  0.00    +0.000 OA
ATOM      8  O   UNL     1      -8.482   5.072 127.160  0.00  0.00    +0.000 OA
BRANCH   6   9
ATOM      9  N   UNL     1      -8.038   2.671 126.539  0.00  0.00    +0.000 N 
ATOM     10  H   UNL     1      -8.255   1.936 127.209  0.00  0.00    +0.000 HD
BRANCH   9  15
ATOM     11  C   UNL     1     -10.145   0.709 122.551  0.00  0.00    +0.000 C 
ATOM     12  C   UNL     1      -9.462   1.659 123.439  0.00  0.00    +0.000 A 
ATOM     13  N   UNL     1      -9.096   2.902 123.110  0.00  0.00    +0.000 NA
ATOM     14  O   UNL     1      -8.494   3.401 124.269  0.00  0.00    +0.000 OA
ATOM     15  C   UNL     1      -8.533   2.445 125.254  0.00  0.00    +0.000 A 
ATOM     16  C   UNL     1      -9.131   1.325 124.758  0.00  0.00    +0.000 A 
ATOM     17 CL   UNL     1      -9.483  -0.188 125.443  0.00  0.00    +0.000 Cl
ENDBRANCH   9  15
ENDBRANCH   6   9
ENDBRANCH   1   6
BRANCH   2  18
ATOM     18  C   UNL     1      -8.811   3.646 130.064  0.00  0.00    +0.000 C 
ATOM     19  O   UNL     1      -9.441   2.833 129.363  0.00  0.00    +0.000 OA
BRANCH  18  20
ATOM     20  C   UNL     1      -9.614   4.390 131.076  0.00  0.00    +0.000 C 
BRANCH  20  21
ATOM     21  C   UNL     1     -10.461   5.514 130.462  0.00  0.00    +0.000 A 
ATOM     22  C   UNL     1     -11.803   5.428 129.954  0.00  0.00    +0.000 A 
ATOM     23  C   UNL     1     -12.220   6.481 129.130  0.00  0.00    +0.000 A 
ATOM     24  C   UNL     1     -11.275   7.312 128.633  0.00  0.00    +0.000 A 
ATOM     25  O   UNL     1     -11.692   8.134 127.641  0.00  0.00    +0.000 OA
ATOM     26  C   UNL     1     -12.952   8.356 128.244  0.00  0.00    +0.000 C 
ATOM     27  O   UNL     1     -13.434   7.074 128.819  0.00  0.00    +0.000 OA
ATOM     28  C   UNL     1     -10.364   7.720 129.530  0.00  0.00    +0.000 A 
ATOM     29  C   UNL     1      -9.816   6.757 130.330  0.00  0.00    +0.000 A 
ATOM     30  C   UNL     1      -8.437   7.088 130.776  0.00  0.00    +0.000 C 
ENDBRANCH  20  21
ENDBRANCH  18  20
ENDBRANCH   2  18
TORSDOF 6
ENDMDL
MODEL 4
REMARK VINA RESULT:      -7.6      5.439      7.883
REMARK  Name = Sitaxentan
REMARK  8 active torsions:
REMARK  status: ('A' for Active; 'I' for Inactive)
REMARK    1  A    between atoms: C_1  and  C_2
REMARK    2  A    between atoms: C_5  and  N_6
REMARK    3  A    between atoms: N_6  and  S_7
REMARK    4  A    between atoms: S_7  and  C_10
REMARK    5  A    between atoms: C_11  and  C_15
REMARK    6  A    between atoms: C_15  and  C_17
REMARK    7  A    between atoms: C_17  and  C_18
REMARK    8  A    between atoms: C_26  and  C_27
REMARK                            x       y       z     vdW  Elec       q    Type
REMARK                         _______ _______ _______ _____ _____    ______ ____
ROOT
ATOM      1  C   UNL     1      -7.361   3.301 123.373  0.00  0.00    +0.000 A 
ATOM      2  C   UNL     1      -6.191   3.930 123.760  0.00  0.00    +0.000 A 
ATOM      3  S   UNL     1      -5.258   4.368 122.382  0.00  0.00    +0.000 S 
ATOM      4  C   UNL     1      -6.395   3.718 121.288  0.00  0.00    +0.000 A 
ATOM      5  C   UNL     1      -7.473   3.173 121.943  0.00  0.00    +0.000 A 
ENDROOT
BRANCH   1   6
ATOM      6  S   UNL     1      -8.626   2.685 124.398  0.00  0.00    +0.000 S 
ATOM      7  O   UNL     1      -9.548   2.149 123.393  0.00  0.00    +0.000 OA
ATOM      8  O   UNL     1      -8.940   3.827 125.200  0.00  0.00    +0.000 OA
BRANCH   6   9
ATOM      9  N   UNL     1      -8.187   1.428 125.367  0.00  0.00    +0.000 N 
ATOM     10  H   UNL     1      -7.774   1.591 126.283  0.00  0.00    +0.000 HD
BRANCH   9  15
ATOM     11  C   UNL     1      -8.478  -3.207 123.745  0.00  0.00    +0.000 C 
ATOM     12  C   UNL     1      -8.770  -1.968 124.480  0.00  0.00    +0.000 A 
ATOM     13  N   UNL     1      -9.740  -1.816 125.388  0.00  0.00    +0.000 NA
ATOM     14  O   UNL     1      -9.618  -0.486 125.799  0.00  0.00    +0.000 OA
ATOM     15  C   UNL     1      -8.573   0.107 125.135  0.00  0.00    +0.000 A 
ATOM     16  C   UNL     1      -8.020  -0.803 124.283  0.00  0.00    +0.000 A 
ATOM     17 CL   UNL     1      -6.722  -0.714 123.192  0.00  0.00    +0.000 Cl
ENDBRANCH   9  15
ENDBRANCH   6   9
ENDBRANCH   1   6
BRANCH   2  18
ATOM     18  C   UNL     1      -5.737   4.263 125.099  0.00  0.00    +0.000 C 
ATOM     19  O   UNL     1      -5.816   5.428 125.531  0.00  0.00    +0.000 OA
BRANCH  18  20
ATOM     20  C   UNL     1      -5.075   3.278 126.000  0.00  0.00    +0.000 C 
BRANCH  20  21
ATOM     21  C   UNL     1      -4.526   3.914 127.286  0.00  0.00    +0.000 A 
ATOM     22  C   UNL     1      -5.273   4.484 128.374  0.00  0.00    +0.000 A 
ATOM     23  C   UNL     1      -4.556   5.310 129.249  0.00  0.00    +0.000 A 
ATOM     24  C   UNL     1      -3.339   5.751 128.853  0.00  0.00    +0.000 A 
ATOM     25  O   UNL     1      -2.814   6.749 129.602  0.00  0.00    +0.000 OA
ATOM     26  C   UNL     1      -3.294   6.201 130.815  0.00  0.00    +0.000 C 
ATOM     27  O   UNL     1      -4.661   5.667 130.584  0.00  0.00    +0.000 OA
ATOM     28  C   UNL     1      -2.553   4.807 128.312  0.00  0.00    +0.000 A 
ATOM     29  C   UNL     1      -3.125   3.998 127.371  0.00  0.00    +0.000 A 
ATOM     30  C   UNL     1      -2.148   3.484 126.376  0.00  0.00    +0.000 C 
ENDBRANCH  20  21
ENDBRANCH  18  20
ENDBRANCH   2  18
TORSDOF 6
ENDMDL
MODEL 5
REMARK VINA RESULT:      -7.5      3.351      6.539
REMARK  Name = Sitaxentan
REMARK  8 active torsions:
REMARK  status: ('A' for Active; 'I' for Inactive)
REMARK    1  A    between atoms: C_1  and  C_2
REMARK    2  A    between atoms: C_5  and  N_6
REMARK    3  A    between atoms: N_6  and  S_7
REMARK    4  A    between atoms: S_7  and  C_10
REMARK    5  A    between atoms: C_11  and  C_15
REMARK    6  A    between atoms: C_15  and  C_17
REMARK    7  A    between atoms: C_17  and  C_18
REMARK    8  A    between atoms: C_26  and  C_27
REMARK                            x       y       z     vdW  Elec       q    Type
REMARK                         _______ _______ _______ _____ _____    ______ ____
ROOT
ATOM      1  C   UNL     1      -8.075   4.971 131.289  0.00  0.00    +0.000 A 
ATOM      2  C   UNL     1      -7.816   4.126 130.223  0.00  0.00    +0.000 A 
ATOM      3  S   UNL     1      -6.310   4.523 129.492  0.00  0.00    +0.000 S 
ATOM      4  C   UNL     1      -6.014   5.807 130.575  0.00  0.00    +0.000 A 
ATOM      5  C   UNL     1      -7.034   5.947 131.486  0.00  0.00    +0.000 A 
ENDROOT
BRANCH   1   6
ATOM      6  S   UNL     1      -9.461   4.961 132.341  0.00  0.00    +0.000 S 
ATOM      7  O   UNL     1      -9.315   6.267 132.989  0.00  0.00    +0.000 OA
ATOM      8  O   UNL     1      -9.289   3.728 133.046  0.00  0.00    +0.000 OA
BRANCH   6   9
ATOM      9  N   UNL     1     -10.918   4.965 131.574  0.00  0.00    +0.000 N 
ATOM     10  H   UNL     1     -11.508   4.135 131.564  0.00  0.00    +0.000 HD
BRANCH   9  15
ATOM     11  C   UNL     1     -12.327   8.884 128.957  0.00  0.00    +0.000 C 
ATOM     12  C   UNL     1     -12.247   7.880 130.027  0.00  0.00    +0.000 A 
ATOM     13  N   UNL     1     -13.031   7.837 131.109  0.00  0.00    +0.000 NA
ATOM     14  O   UNL     1     -12.578   6.720 131.817  0.00  0.00    +0.000 OA
ATOM     15  C   UNL     1     -11.549   6.127 131.128  0.00  0.00    +0.000 A 
ATOM     16  C   UNL     1     -11.307   6.843 129.993  0.00  0.00    +0.000 A 
ATOM     17 CL   UNL     1     -10.189   6.652 128.731  0.00  0.00    +0.000 Cl
ENDBRANCH   9  15
ENDBRANCH   6   9
ENDBRANCH   1   6
BRANCH   2  18
ATOM     18  C   UNL     1      -8.606   3.009 129.736  0.00  0.00    +0.000 C 
ATOM     19  O   UNL     1      -9.819   3.140 129.490  0.00  0.00    +0.000 OA
BRANCH  18  20
ATOM     20  C   UNL     1      -8.056   1.632 129.584  0.00  0.00    +0.000 C 
BRANCH  20  21
ATOM     21  C   UNL     1      -8.053   1.143 128.128  0.00  0.00    +0.000 A 
ATOM     22  C   UNL     1      -8.289   1.916 126.939  0.00  0.00    +0.000 A 
ATOM     23  C   UNL     1      -8.587   1.188 125.779  0.00  0.00    +0.000 A 
ATOM     24  C   UNL     1      -8.928  -0.114 125.916  0.00  0.00    +0.000 A 
ATOM     25  O   UNL     1      -9.461  -0.690 124.813  0.00  0.00    +0.000 OA
ATOM     26  C   UNL     1      -8.587  -0.008 123.934  0.00  0.00    +0.000 C 
ATOM     27  O   UNL     1      -8.425   1.387 124.417  0.00  0.00    +0.000 OA
ATOM     28  C   UNL     1      -8.138  -0.813 126.746  0.00  0.00    +0.000 A 
ATOM     29  C   UNL     1      -7.856  -0.238 127.953  0.00  0.00    +0.000 A 
ATOM     30  C   UNL     1      -7.596  -1.236 129.024  0.00  0.00    +0.000 C 
ENDBRANCH  20  21
ENDBRANCH  18  20
ENDBRANCH   2  18
TORSDOF 6
ENDMDL
MODEL 6
REMARK VINA RESULT:      -7.5      3.532      6.317
REMARK  Name = Sitaxentan
REMARK  8 active torsions:
REMARK  status: ('A' for Active; 'I' for Inactive)
REMARK    1  A    between atoms: C_1  and  C_2
REMARK    2  A    between atoms: C_5  and  N_6
REMARK    3  A    between atoms: N_6  and  S_7
REMARK    4  A    between atoms: S_7  and  C_10
REMARK    5  A    between atoms: C_11  and  C_15
REMARK    6  A    between atoms: C_15  and  C_17
REMARK    7  A    between atoms: C_17  and  C_18
REMARK    8  A    between atoms: C_26  and  C_27
REMARK                            x       y       z     vdW  Elec       q    Type
REMARK                         _______ _______ _______ _____ _____    ______ ____
ROOT
ATOM      1  C   UNL     1      -8.520   3.317 131.190  0.00  0.00    +0.000 A 
ATOM      2  C   UNL     1      -7.722   3.274 132.320  0.00  0.00    +0.000 A 
ATOM      3  S   UNL     1      -7.279   1.652 132.683  0.00  0.00    +0.000 S 
ATOM      4  C   UNL     1      -8.147   1.018 131.358  0.00  0.00    +0.000 A 
ATOM      5  C   UNL     1      -8.771   2.009 130.640  0.00  0.00    +0.000 A 
ENDROOT
BRANCH   1   6
ATOM      6  S   UNL     1      -9.209   4.722 130.427  0.00  0.00    +0.000 S 
ATOM      7  O   UNL     1     -10.277   4.102 129.639  0.00  0.00    +0.000 OA
ATOM      8  O   UNL     1      -8.059   5.326 129.826  0.00  0.00    +0.000 OA
BRANCH   6   9
ATOM      9  N   UNL     1      -9.926   5.791 131.454  0.00  0.00    +0.000 N 
ATOM     10  H   UNL     1      -9.470   6.076 132.318  0.00  0.00    +0.000 HD
BRANCH   9  15
ATOM     11  C   UNL     1     -13.038   8.913 129.271  0.00  0.00    +0.000 C 
ATOM     12  C   UNL     1     -12.493   7.910 130.195  0.00  0.00    +0.000 A 
ATOM     13  N   UNL     1     -13.175   7.308 131.175  0.00  0.00    +0.000 NA
ATOM     14  O   UNL     1     -12.242   6.450 131.765  0.00  0.00    +0.000 OA
ATOM     15  C   UNL     1     -11.041   6.557 131.110  0.00  0.00    +0.000 A 
ATOM     16  C   UNL     1     -11.162   7.482 130.115  0.00  0.00    +0.000 A 
ATOM     17 CL   UNL     1     -10.071   8.075 128.958  0.00  0.00    +0.000 Cl
ENDBRANCH   9  15
ENDBRANCH   6   9
ENDBRANCH   1   6
BRANCH   2  18
ATOM     18  C   UNL     1      -7.232   4.376 133.130  0.00  0.00    +0.000 C 
ATOM     19  O   UNL     1      -8.015   5.213 133.615  0.00  0.00    +0.000 OA
BRANCH  18  20
ATOM     20  C   UNL     1      -5.782   4.632 133.358  0.00  0.00    +0.000 C 
BRANCH  20  21
ATOM     21  C   UNL     1      -5.093   5.300 132.160  0.00  0.00    +0.000 A 
ATOM     22  C   UNL     1      -5.311   6.624 131.645  0.00  0.00    +0.000 A 
ATOM     23  C   UNL     1      -4.835   6.869 130.350  0.00  0.00    +0.000 A 
ATOM     24  C   UNL     1      -4.500   5.805 129.584  0.00  0.00    +0.000 A 
ATOM     25  O   UNL     1      -4.309   6.075 128.271  0.00  0.00    +0.000 OA
ATOM     26  C   UNL     1      -3.676   7.313 128.535  0.00  0.00    +0.000 C 
ATOM     27  O   UNL     1      -4.391   7.982 129.652  0.00  0.00    +0.000 OA
ATOM     28  C   UNL     1      -3.761   4.878 130.212  0.00  0.00    +0.000 A 
ATOM     29  C   UNL     1      -4.187   4.490 131.452  0.00  0.00    +0.000 A 
ATOM     30  C   UNL     1      -3.801   3.094 131.789  0.00  0.00    +0.000 C 
ENDBRANCH  20  21
ENDBRANCH  18  20
ENDBRANCH   2  18
TORSDOF 6
ENDMDL
MODEL 7
REMARK VINA RESULT:      -7.5      2.982      6.235
REMARK  Name = Sitaxentan
REMARK  8 active torsions:
REMARK  status: ('A' for Active; 'I' for Inactive)
REMARK    1  A    between atoms: C_1  and  C_2
REMARK    2  A    between atoms: C_5  and  N_6
REMARK    3  A    between atoms: N_6  and  S_7
REMARK    4  A    between atoms: S_7  and  C_10
REMARK    5  A    between atoms: C_11  and  C_15
REMARK    6  A    between atoms: C_15  and  C_17
REMARK    7  A    between atoms: C_17  and  C_18
REMARK    8  A    between atoms: C_26  and  C_27
REMARK                            x       y       z     vdW  Elec       q    Type
REMARK                         _______ _______ _______ _____ _____    ______ ____
ROOT
ATOM      1  C   UNL     1      -8.918   4.672 130.951  0.00  0.00    +0.000 A 
ATOM      2  C   UNL     1      -8.676   3.930 129.808  0.00  0.00    +0.000 A 
ATOM      3  S   UNL     1      -9.133   2.289 130.046  0.00  0.00    +0.000 S 
ATOM      4  C   UNL     1      -9.636   2.563 131.653  0.00  0.00    +0.000 A 
ATOM      5  C   UNL     1      -9.466   3.876 132.020  0.00  0.00    +0.000 A 
ENDROOT
BRANCH   1   6
ATOM      6  S   UNL     1      -8.630   6.370 131.197  0.00  0.00    +0.000 S 
ATOM      7  O   UNL     1      -7.196   6.444 130.906  0.00  0.00    +0.000 OA
ATOM      8  O   UNL     1      -9.160   6.573 132.511  0.00  0.00    +0.000 OA
BRANCH   6   9
ATOM      9  N   UNL     1      -9.391   7.368 130.130  0.00  0.00    +0.000 N 
ATOM     10  H   UNL     1      -8.860   7.952 129.488  0.00  0.00    +0.000 HD
BRANCH   9  15
ATOM     11  C   UNL     1     -13.784   7.416 127.918  0.00  0.00    +0.000 C 
ATOM     12  C   UNL     1     -12.746   7.284 128.949  0.00  0.00    +0.000 A 
ATOM     13  N   UNL     1     -12.957   6.918 130.218  0.00  0.00    +0.000 NA
ATOM     14  O   UNL     1     -11.685   6.936 130.797  0.00  0.00    +0.000 OA
ATOM     15  C   UNL     1     -10.757   7.299 129.853  0.00  0.00    +0.000 A 
ATOM     16  C   UNL     1     -11.397   7.536 128.673  0.00  0.00    +0.000 A 
ATOM     17 CL   UNL     1     -10.843   8.011 127.140  0.00  0.00    +0.000 Cl
ENDBRANCH   9  15
ENDBRANCH   6   9
ENDBRANCH   1   6
BRANCH   2  18
ATOM     18  C   UNL     1      -8.159   4.377 128.526  0.00  0.00    +0.000 C 
ATOM     19  O   UNL     1      -8.682   5.331 127.921  0.00  0.00    +0.000 OA
BRANCH  18  20
ATOM     20  C   UNL     1      -7.048   3.685 127.813  0.00  0.00    +0.000 C 
BRANCH  20  21
ATOM     21  C   UNL     1      -7.167   3.773 126.285  0.00  0.00    +0.000 A 
ATOM     22  C   UNL     1      -8.219   3.255 125.453  0.00  0.00    +0.000 A 
ATOM     23  C   UNL     1      -7.928   3.145 124.087  0.00  0.00    +0.000 A 
ATOM     24  C   UNL     1      -6.633   3.231 123.704  0.00  0.00    +0.000 A 
ATOM     25  O   UNL     1      -6.381   2.852 122.429  0.00  0.00    +0.000 OA
ATOM     26  C   UNL     1      -7.575   3.430 121.936  0.00  0.00    +0.000 C 
ATOM     27  O   UNL     1      -8.664   3.174 122.913  0.00  0.00    +0.000 OA
ATOM     28  C   UNL     1      -5.950   4.236 124.273  0.00  0.00    +0.000 A 
ATOM     29  C   UNL     1      -6.084   4.381 125.626  0.00  0.00    +0.000 A 
ATOM     30  C   UNL     1      -4.887   4.986 126.267  0.00  0.00    +0.000 C 
ENDBRANCH  20  21
ENDBRANCH  18  20
ENDBRANCH   2  18
TORSDOF 6
ENDMDL
MODEL 8
REMARK VINA RESULT:      -7.5      3.962      6.624
REMARK  Name = Sitaxentan
REMARK  8 active torsions:
REMARK  status: ('A' for Active; 'I' for Inactive)
REMARK    1  A    between atoms: C_1  and  C_2
REMARK    2  A    between atoms: C_5  and  N_6
REMARK    3  A    between atoms: N_6  and  S_7
REMARK    4  A    between atoms: S_7  and  C_10
REMARK    5  A    between atoms: C_11  and  C_15
REMARK    6  A    between atoms: C_15  and  C_17
REMARK    7  A    between atoms: C_17  and  C_18
REMARK    8  A    between atoms: C_26  and  C_27
REMARK                            x       y       z     vdW  Elec       q    Type
REMARK                         _______ _______ _______ _____ _____    ______ ____
ROOT
ATOM      1  C   UNL     1      -8.232   4.289 131.330  0.00  0.00    +0.000 A 
ATOM      2  C   UNL     1      -6.962   4.040 131.818  0.00  0.00    +0.000 A 
ATOM      3  S   UNL     1      -6.095   3.013 130.744  0.00  0.00    +0.000 S 
ATOM      4  C   UNL     1      -7.399   2.896 129.651  0.00  0.00    +0.000 A 
ATOM      5  C   UNL     1      -8.486   3.620 130.079  0.00  0.00    +0.000 A 
ENDROOT
BRANCH   1   6
ATOM      6  S   UNL     1      -9.474   5.273 132.051  0.00  0.00    +0.000 S 
ATOM      7  O   UNL     1      -8.964   6.613 131.747  0.00  0.00    +0.000 OA
ATOM      8  O   UNL     1      -9.528   4.754 133.383  0.00  0.00    +0.000 OA
BRANCH   6   9
ATOM      9  N   UNL     1     -10.957   5.151 131.346  0.00  0.00    +0.000 N 
ATOM     10  H   UNL     1     -11.699   4.603 131.776  0.00  0.00    +0.000 HD
BRANCH   9  15
ATOM     11  C   UNL     1     -13.031   8.686 128.625  0.00  0.00    +0.000 C 
ATOM     12  C   UNL     1     -12.247   7.504 129.009  0.00  0.00    +0.000 A 
ATOM     13  N   UNL     1     -11.516   6.755 128.176  0.00  0.00    +0.000 NA
ATOM     14  O   UNL     1     -10.967   5.766 128.997  0.00  0.00    +0.000 OA
ATOM     15  C   UNL     1     -11.377   5.965 130.292  0.00  0.00    +0.000 A 
ATOM     16  C   UNL     1     -12.197   7.052 130.333  0.00  0.00    +0.000 A 
ATOM     17 CL   UNL     1     -13.027   7.818 131.601  0.00  0.00    +0.000 Cl
ENDBRANCH   9  15
ENDBRANCH   6   9
ENDBRANCH   1   6
BRANCH   2  18
ATOM     18  C   UNL     1      -6.333   4.553 133.023  0.00  0.00    +0.000 C 
ATOM     19  O   UNL     1      -6.311   3.882 134.071  0.00  0.00    +0.000 OA
BRANCH  18  20
ATOM     20  C   UNL     1      -5.761   5.926 133.117  0.00  0.00    +0.000 C 
BRANCH  20  21
ATOM     21  C   UNL     1      -4.833   6.273 131.944  0.00  0.00    +0.000 A 
ATOM     22  C   UNL     1      -5.191   6.867 130.684  0.00  0.00    +0.000 A 
ATOM     23  C   UNL     1      -4.245   6.753 129.657  0.00  0.00    +0.000 A 
ATOM     24  C   UNL     1      -3.240   5.861 129.815  0.00  0.00    +0.000 A 
ATOM     25  O   UNL     1      -2.520   5.598 128.698  0.00  0.00    +0.000 OA
ATOM     26  C   UNL     1      -2.559   6.942 128.259  0.00  0.00    +0.000 C 
ATOM     27  O   UNL     1      -3.911   7.492 128.533  0.00  0.00    +0.000 OA
ATOM     28  C   UNL     1      -2.654   5.889 131.022  0.00  0.00    +0.000 A 
ATOM     29  C   UNL     1      -3.486   5.906 132.107  0.00  0.00    +0.000 A 
ATOM     30  C   UNL     1      -2.881   5.280 133.312  0.00  0.00    +0.000 C 
ENDBRANCH  20  21
ENDBRANCH  18  20
ENDBRANCH   2  18
TORSDOF 6
ENDMDL
MODEL 9
REMARK VINA RESULT:      -7.4      4.239      7.147
REMARK  Name = Sitaxentan
REMARK  8 active torsions:
REMARK  status: ('A' for Active; 'I' for Inactive)
REMARK    1  A    between atoms: C_1  and  C_2
REMARK    2  A    between atoms: C_5  and  N_6
REMARK    3  A    between atoms: N_6  and  S_7
REMARK    4  A    between atoms: S_7  and  C_10
REMARK    5  A    between atoms: C_11  and  C_15
REMARK    6  A    between atoms: C_15  and  C_17
REMARK    7  A    between atoms: C_17  and  C_18
REMARK    8  A    between atoms: C_26  and  C_27
REMARK                            x       y       z     vdW  Elec       q    Type
REMARK                         _______ _______ _______ _____ _____    ______ ____
ROOT
ATOM      1  C   UNL     1      -8.161   3.785 130.614  0.00  0.00    +0.000 A 
ATOM      2  C   UNL     1      -6.841   4.165 130.788  0.00  0.00    +0.000 A 
ATOM      3  S   UNL     1      -5.980   2.965 131.671  0.00  0.00    +0.000 S 
ATOM      4  C   UNL     1      -7.350   1.960 131.826  0.00  0.00    +0.000 A 
ATOM      5  C   UNL     1      -8.454   2.512 131.223  0.00  0.00    +0.000 A 
ENDROOT
BRANCH   1   6
ATOM      6  S   UNL     1      -9.417   4.656 129.783  0.00  0.00    +0.000 S 
ATOM      7  O   UNL     1     -10.589   3.860 130.159  0.00  0.00    +0.000 OA
ATOM      8  O   UNL     1      -8.913   4.700 128.445  0.00  0.00    +0.000 OA
BRANCH   6   9
ATOM      9  N   UNL     1      -9.681   6.188 130.328  0.00  0.00    +0.000 N 
ATOM     10  H   UNL     1      -9.159   6.561 131.119  0.00  0.00    +0.000 HD
BRANCH   9  15
ATOM     11  C   UNL     1     -13.139   9.341 128.814  0.00  0.00    +0.000 C 
ATOM     12  C   UNL     1     -11.888   8.574 128.881  0.00  0.00    +0.000 A 
ATOM     13  N   UNL     1     -10.856   8.700 128.039  0.00  0.00    +0.000 NA
ATOM     14  O   UNL     1      -9.917   7.776 128.507  0.00  0.00    +0.000 OA
ATOM     15  C   UNL     1     -10.413   7.141 129.619  0.00  0.00    +0.000 A 
ATOM     16  C   UNL     1     -11.664   7.617 129.877  0.00  0.00    +0.000 A 
ATOM     17 CL   UNL     1     -12.804   7.257 131.083  0.00  0.00    +0.000 Cl
ENDBRANCH   9  15
ENDBRANCH   6   9
ENDBRANCH   1   6
BRANCH   2  18
ATOM     18  C   UNL     1      -6.165   5.354 130.301  0.00  0.00    +0.000 C 
ATOM     19  O   UNL     1      -5.573   5.353 129.206  0.00  0.00    +0.000 OA
BRANCH  18  20
ATOM     20  C   UNL     1      -6.055   6.608 131.098  0.00  0.00    +0.000 C 
BRANCH  20  21
ATOM     21  C   UNL     1      -4.714   6.737 131.834  0.00  0.00    +0.000 A 
ATOM     22  C   UNL     1      -4.323   6.110 133.067  0.00  0.00    +0.000 A 
ATOM     23  C   UNL     1      -3.205   6.657 133.711  0.00  0.00    +0.000 A 
ATOM     24  C   UNL     1      -2.777   7.878 133.313  0.00  0.00    +0.000 A 
ATOM     25  O   UNL     1      -1.879   8.471 134.134  0.00  0.00    +0.000 OA
ATOM     26  C   UNL     1      -1.209   7.256 134.412  0.00  0.00    +0.000 C 
ATOM     27  O   UNL     1      -2.222   6.181 134.564  0.00  0.00    +0.000 OA
ATOM     28  C   UNL     1      -2.706   8.038 131.983  0.00  0.00    +0.000 A 
ATOM     29  C   UNL     1      -3.788   7.623 131.256  0.00  0.00    +0.000 A 
ATOM     30  C   UNL     1      -3.964   8.385 129.992  0.00  0.00    +0.000 C 
ENDBRANCH  20  21
ENDBRANCH  18  20
ENDBRANCH   2  18
TORSDOF 6
ENDMDL
