MODEL 1
REMARK VINA RESULT:      -8.4      0.000      0.000
REMARK  Name = Sofosbuvir
REMARK  16 active torsions:
REMARK  status: ('A' for Active; 'I' for Inactive)
REMARK    1  A    between atoms: C_1  and  C_2
REMARK    2  A    between atoms: C_2  and  C_3
REMARK    3  A    between atoms: C_2  and  O_4
REMARK    4  A    between atoms: O_4  and  C_5
REMARK    5  A    between atoms: C_5  and  C_7
REMARK    6  A    between atoms: C_7  and  C_8
REMARK    7  A    between atoms: C_7  and  N_9
REMARK    8  A    between atoms: N_9  and  P_10
REMARK    9  A    between atoms: P_10  and  O_12
REMARK   10  A    between atoms: P_10  and  O_30
REMARK   11  A    between atoms: O_12  and  C_13
REMARK   12  A    between atoms: C_13  and  C_14
REMARK   13  A    between atoms: C_16  and  N_17
REMARK   14  A    between atoms: C_25  and  C_26
REMARK   15  A    between atoms: C_28  and  O_29
REMARK   16  A    between atoms: O_30  and  C_31
REMARK                            x       y       z     vdW  Elec       q    Type
REMARK                         _______ _______ _______ _____ _____    ______ ____
ROOT
ATOM      1  O   UNL     1      -8.338   3.217 126.935  0.00  0.00    +0.000 OA
ENDROOT
BRANCH   1   2
ATOM      2  P   UNL     1      -7.952   4.041 128.309  0.00  0.00    +0.000 P 
ATOM      3  O   UNL     1      -6.989   4.879 127.434  0.00  0.00    +0.000 OA
BRANCH   2   4
ATOM      4  N   UNL     1      -8.939   5.421 128.489  0.00  0.00    +0.000 NA
ATOM      5  H   UNL     1      -8.420   6.248 128.216  0.00  0.00    +0.000 HD
BRANCH   4   6
ATOM      6  C   UNL     1      -9.407   5.651 129.919  0.00  0.00    +0.000 C 
ATOM      7  C   UNL     1      -8.805   6.887 130.663  0.00  0.00    +0.000 C 
BRANCH   6   8
ATOM      8  C   UNL     1     -10.909   5.934 129.935  0.00  0.00    +0.000 C 
ATOM      9  O   UNL     1     -11.561   5.976 130.975  0.00  0.00    +0.000 OA
BRANCH   8  10
ATOM     10  O   UNL     1     -11.438   6.128 128.694  0.00  0.00    +0.000 OA
BRANCH  10  12
ATOM     11  C   UNL     1     -11.027   8.350 127.837  0.00  0.00    +0.000 C 
ATOM     12  C   UNL     1     -12.046   7.427 128.501  0.00  0.00    +0.000 C 
ATOM     13  C   UNL     1     -13.287   7.346 127.607  0.00  0.00    +0.000 C 
ENDBRANCH  10  12
ENDBRANCH   8  10
ENDBRANCH   6   8
ENDBRANCH   4   6
ENDBRANCH   2   4
BRANCH   2  14
ATOM     14  O   UNL     1      -9.028   3.105 129.287  0.00  0.00    +0.000 OA
BRANCH  14  15
ATOM     15  C   UNL     1      -8.581   2.069 130.160  0.00  0.00    +0.000 A 
ATOM     16  C   UNL     1      -7.641   1.096 129.806  0.00  0.00    +0.000 A 
ATOM     17  C   UNL     1      -7.708  -0.209 130.350  0.00  0.00    +0.000 A 
ATOM     18  C   UNL     1      -8.602  -0.517 131.364  0.00  0.00    +0.000 A 
ATOM     19  C   UNL     1      -9.319   0.526 131.932  0.00  0.00    +0.000 A 
ATOM     20  C   UNL     1      -9.316   1.817 131.333  0.00  0.00    +0.000 A 
ENDBRANCH  14  15
ENDBRANCH   2  14
ENDBRANCH   1   2
BRANCH   1  21
ATOM     21  C   UNL     1      -7.345   2.381 126.303  0.00  0.00    +0.000 C 
BRANCH  21  22
ATOM     22  C   UNL     1      -7.213   2.602 124.807  0.00  0.00    +0.000 C 
ATOM     23  O   UNL     1      -6.741   1.402 124.162  0.00  0.00    +0.000 OA
ATOM     24  C   UNL     1      -7.866   0.742 123.517  0.00  0.00    +0.000 C 
ATOM     25  C   UNL     1      -9.131   1.580 123.829  0.00  0.00    +0.000 C 
ATOM     26  C   UNL     1     -10.013   1.087 124.978  0.00  0.00    +0.000 C 
ATOM     27  F   UNL     1      -9.921   1.645 122.725  0.00  0.00    +0.000 F 
ATOM     28  C   UNL     1      -8.549   2.952 124.153  0.00  0.00    +0.000 C 
BRANCH  24  29
ATOM     29  N   UNL     1      -7.975  -0.700 123.861  0.00  0.00    +0.000 N 
ATOM     30  C   UNL     1      -7.269  -1.222 124.909  0.00  0.00    +0.000 A 
ATOM     31  C   UNL     1      -7.384  -2.434 125.439  0.00  0.00    +0.000 A 
ATOM     32  C   UNL     1      -8.201  -3.365 124.690  0.00  0.00    +0.000 A 
ATOM     33  O   UNL     1      -8.061  -4.577 124.858  0.00  0.00    +0.000 OA
ATOM     34  N   UNL     1      -8.979  -2.809 123.712  0.00  0.00    +0.000 N 
ATOM     35  C   UNL     1      -8.879  -1.520 123.192  0.00  0.00    +0.000 A 
ATOM     36  O   UNL     1      -9.520  -1.195 122.218  0.00  0.00    +0.000 OA
ATOM     37  H   UNL     1      -9.464  -3.466 123.125  0.00  0.00    +0.000 HD
ENDBRANCH  24  29
BRANCH  28  38
ATOM     38  O   UNL     1      -8.308   3.749 122.986  0.00  0.00    +0.000 OA
ATOM     39  H   UNL     1      -7.621   3.323 122.446  0.00  0.00    +0.000 HD
ENDBRANCH  28  38
ENDBRANCH  21  22
ENDBRANCH   1  21
TORSDOF 12
ENDMDL
MODEL 2
REMARK VINA RESULT:      -8.2      4.307      6.510
REMARK  Name = Sofosbuvir
REMARK  16 active torsions:
REMARK  status: ('A' for Active; 'I' for Inactive)
REMARK    1  A    between atoms: C_1  and  C_2
REMARK    2  A    between atoms: C_2  and  C_3
REMARK    3  A    between atoms: C_2  and  O_4
REMARK    4  A    between atoms: O_4  and  C_5
REMARK    5  A    between atoms: C_5  and  C_7
REMARK    6  A    between atoms: C_7  and  C_8
REMARK    7  A    between atoms: C_7  and  N_9
REMARK    8  A    between atoms: N_9  and  P_10
REMARK    9  A    between atoms: P_10  and  O_12
REMARK   10  A    between atoms: P_10  and  O_30
REMARK   11  A    between atoms: O_12  and  C_13
REMARK   12  A    between atoms: C_13  and  C_14
REMARK   13  A    between atoms: C_16  and  N_17
REMARK   14  A    between atoms: C_25  and  C_26
REMARK   15  A    between atoms: C_28  and  O_29
REMARK   16  A    between atoms: O_30  and  C_31
REMARK                            x       y       z     vdW  Elec       q    Type
REMARK                         _______ _______ _______ _____ _____    ______ ____
ROOT
ATOM      1  O   UNL     1      -8.698   3.364 128.614  0.00  0.00    +0.000 OA
ENDROOT
BRANCH   1   2
ATOM      2  P   UNL     1      -9.079   4.384 129.850  0.00  0.00    +0.000 P 
ATOM      3  O   UNL     1      -9.005   5.531 128.813  0.00  0.00    +0.000 OA
BRANCH   2   4
ATOM      4  N   UNL     1     -10.766   4.623 129.945  0.00  0.00    +0.000 NA
ATOM      5  H   UNL     1     -11.092   5.082 129.104  0.00  0.00    +0.000 HD
BRANCH   4   6
ATOM      6  C   UNL     1     -11.191   5.499 131.115  0.00  0.00    +0.000 C 
ATOM      7  C   UNL     1     -10.105   6.458 131.703  0.00  0.00    +0.000 C 
BRANCH   6   8
ATOM      8  C   UNL     1     -12.298   6.456 130.674  0.00  0.00    +0.000 C 
ATOM      9  O   UNL     1     -13.015   7.048 131.474  0.00  0.00    +0.000 OA
BRANCH   8  10
ATOM     10  O   UNL     1     -12.401   6.577 129.320  0.00  0.00    +0.000 OA
BRANCH  10  12
ATOM     11  C   UNL     1     -11.311   8.445 128.242  0.00  0.00    +0.000 C 
ATOM     12  C   UNL     1     -12.611   7.932 128.857  0.00  0.00    +0.000 C 
ATOM     13  C   UNL     1     -13.714   8.005 127.797  0.00  0.00    +0.000 C 
ENDBRANCH  10  12
ENDBRANCH   8  10
ENDBRANCH   6   8
ENDBRANCH   4   6
ENDBRANCH   2   4
BRANCH   2  14
ATOM     14  O   UNL     1      -9.162   3.104 131.010  0.00  0.00    +0.000 OA
BRANCH  14  15
ATOM     15  C   UNL     1      -8.505   3.159 132.275  0.00  0.00    +0.000 A 
ATOM     16  C   UNL     1      -9.150   3.447 133.482  0.00  0.00    +0.000 A 
ATOM     17  C   UNL     1      -8.473   4.129 134.521  0.00  0.00    +0.000 A 
ATOM     18  C   UNL     1      -7.114   4.389 134.440  0.00  0.00    +0.000 A 
ATOM     19  C   UNL     1      -6.411   3.828 133.384  0.00  0.00    +0.000 A 
ATOM     20  C   UNL     1      -7.099   3.218 132.299  0.00  0.00    +0.000 A 
ENDBRANCH  14  15
ENDBRANCH   2  14
ENDBRANCH   1   2
BRANCH   1  21
ATOM     21  C   UNL     1      -7.346   2.874 128.485  0.00  0.00    +0.000 C 
BRANCH  21  22
ATOM     22  C   UNL     1      -6.636   3.344 127.228  0.00  0.00    +0.000 C 
ATOM     23  O   UNL     1      -6.170   4.699 127.392  0.00  0.00    +0.000 OA
ATOM     24  C   UNL     1      -4.740   4.675 127.657  0.00  0.00    +0.000 C 
ATOM     25  C   UNL     1      -4.306   3.189 127.704  0.00  0.00    +0.000 C 
ATOM     26  C   UNL     1      -4.171   2.558 129.092  0.00  0.00    +0.000 C 
ATOM     27  F   UNL     1      -3.104   3.042 127.086  0.00  0.00    +0.000 F 
ATOM     28  C   UNL     1      -5.407   2.496 126.906  0.00  0.00    +0.000 C 
BRANCH  24  29
ATOM     29  N   UNL     1      -4.352   5.474 128.850  0.00  0.00    +0.000 N 
ATOM     30  C   UNL     1      -5.230   5.659 129.881  0.00  0.00    +0.000 A 
ATOM     31  C   UNL     1      -4.982   6.196 131.069  0.00  0.00    +0.000 A 
ATOM     32  C   UNL     1      -3.692   6.840 131.203  0.00  0.00    +0.000 A 
ATOM     33  O   UNL     1      -3.516   7.685 132.081  0.00  0.00    +0.000 OA
ATOM     34  N   UNL     1      -2.790   6.560 130.214  0.00  0.00    +0.000 N 
ATOM     35  C   UNL     1      -3.053   5.954 128.986  0.00  0.00    +0.000 A 
ATOM     36  O   UNL     1      -2.201   5.904 128.127  0.00  0.00    +0.000 OA
ATOM     37  H   UNL     1      -1.935   7.087 130.251  0.00  0.00    +0.000 HD
ENDBRANCH  24  29
BRANCH  28  38
ATOM     38  O   UNL     1      -5.174   2.520 125.493  0.00  0.00    +0.000 OA
ATOM     39  H   UNL     1      -4.322   2.092 125.302  0.00  0.00    +0.000 HD
ENDBRANCH  28  38
ENDBRANCH  21  22
ENDBRANCH   1  21
TORSDOF 12
ENDMDL
MODEL 3
REMARK VINA RESULT:      -8.1      3.023      8.470
REMARK  Name = Sofosbuvir
REMARK  16 active torsions:
REMARK  status: ('A' for Active; 'I' for Inactive)
REMARK    1  A    between atoms: C_1  and  C_2
REMARK    2  A    between atoms: C_2  and  C_3
REMARK    3  A    between atoms: C_2  and  O_4
REMARK    4  A    between atoms: O_4  and  C_5
REMARK    5  A    between atoms: C_5  and  C_7
REMARK    6  A    between atoms: C_7  and  C_8
REMARK    7  A    between atoms: C_7  and  N_9
REMARK    8  A    between atoms: N_9  and  P_10
REMARK    9  A    between atoms: P_10  and  O_12
REMARK   10  A    between atoms: P_10  and  O_30
REMARK   11  A    between atoms: O_12  and  C_13
REMARK   12  A    between atoms: C_13  and  C_14
REMARK   13  A    between atoms: C_16  and  N_17
REMARK   14  A    between atoms: C_25  and  C_26
REMARK   15  A    between atoms: C_28  and  O_29
REMARK   16  A    between atoms: O_30  and  C_31
REMARK                            x       y       z     vdW  Elec       q    Type
REMARK                         _______ _______ _______ _____ _____    ______ ____
ROOT
ATOM      1  O   UNL     1      -7.181   1.955 128.438  0.00  0.00    +0.000 OA
ENDROOT
BRANCH   1   2
ATOM      2  P   UNL     1      -8.034   0.935 127.465  0.00  0.00    +0.000 P 
ATOM      3  O   UNL     1      -9.076   2.073 127.332  0.00  0.00    +0.000 OA
BRANCH   2   4
ATOM      4  N   UNL     1      -7.618   1.168 125.826  0.00  0.00    +0.000 NA
ATOM      5  H   UNL     1      -6.920   1.898 125.753  0.00  0.00    +0.000 HD
BRANCH   4   6
ATOM      6  C   UNL     1      -8.792   1.596 124.957  0.00  0.00    +0.000 C 
ATOM      7  C   UNL     1      -8.511   2.716 123.904  0.00  0.00    +0.000 C 
BRANCH   6   8
ATOM      8  C   UNL     1      -9.259   0.421 124.098  0.00  0.00    +0.000 C 
ATOM      9  O   UNL     1     -10.280   0.466 123.419  0.00  0.00    +0.000 OA
BRANCH   8  10
ATOM     10  O   UNL     1      -8.435  -0.663 124.169  0.00  0.00    +0.000 OA
BRANCH  10  12
ATOM     11  C   UNL     1      -7.019  -1.871 122.629  0.00  0.00    +0.000 C 
ATOM     12  C   UNL     1      -8.456  -1.505 122.992  0.00  0.00    +0.000 C 
ATOM     13  C   UNL     1      -9.243  -2.797 123.232  0.00  0.00    +0.000 C 
ENDBRANCH  10  12
ENDBRANCH   8  10
ENDBRANCH   6   8
ENDBRANCH   4   6
ENDBRANCH   2   4
BRANCH   2  14
ATOM     14  O   UNL     1      -6.870  -0.335 127.614  0.00  0.00    +0.000 OA
BRANCH  14  15
ATOM     15  C   UNL     1      -7.233  -1.709 127.745  0.00  0.00    +0.000 A 
ATOM     16  C   UNL     1      -7.669  -2.510 126.685  0.00  0.00    +0.000 A 
ATOM     17  C   UNL     1      -8.604  -3.550 126.900  0.00  0.00    +0.000 A 
ATOM     18  C   UNL     1      -8.992  -3.911 128.181  0.00  0.00    +0.000 A 
ATOM     19  C   UNL     1      -8.324  -3.326 129.247  0.00  0.00    +0.000 A 
ATOM     20  C   UNL     1      -7.449  -2.224 129.036  0.00  0.00    +0.000 A 
ENDBRANCH  14  15
ENDBRANCH   2  14
ENDBRANCH   1   2
BRANCH   1  21
ATOM     21  C   UNL     1      -7.449   3.373 128.393  0.00  0.00    +0.000 C 
BRANCH  21  22
ATOM     22  C   UNL     1      -6.518   4.205 129.257  0.00  0.00    +0.000 C 
ATOM     23  O   UNL     1      -7.161   5.435 129.647  0.00  0.00    +0.000 OA
ATOM     24  C   UNL     1      -7.610   5.314 131.026  0.00  0.00    +0.000 C 
ATOM     25  C   UNL     1      -7.253   3.883 131.500  0.00  0.00    +0.000 C 
ATOM     26  C   UNL     1      -8.379   2.847 131.460  0.00  0.00    +0.000 C 
ATOM     27  F   UNL     1      -6.802   3.924 132.782  0.00  0.00    +0.000 F 
ATOM     28  C   UNL     1      -6.129   3.487 130.549  0.00  0.00    +0.000 C 
BRANCH  24  29
ATOM     29  N   UNL     1      -9.035   5.694 131.213  0.00  0.00    +0.000 N 
ATOM     30  C   UNL     1      -9.918   5.626 130.172  0.00  0.00    +0.000 A 
ATOM     31  C   UNL     1     -11.237   5.768 130.218  0.00  0.00    +0.000 A 
ATOM     32  C   UNL     1     -11.767   6.251 131.476  0.00  0.00    +0.000 A 
ATOM     33  O   UNL     1     -12.876   6.784 131.510  0.00  0.00    +0.000 OA
ATOM     34  N   UNL     1     -10.898   6.216 132.531  0.00  0.00    +0.000 N 
ATOM     35  C   UNL     1      -9.518   6.022 132.477  0.00  0.00    +0.000 A 
ATOM     36  O   UNL     1      -8.834   6.169 133.464  0.00  0.00    +0.000 OA
ATOM     37  H   UNL     1     -11.231   6.648 133.376  0.00  0.00    +0.000 HD
ENDBRANCH  24  29
BRANCH  28  38
ATOM     38  O   UNL     1      -4.843   3.951 130.977  0.00  0.00    +0.000 OA
ATOM     39  H   UNL     1      -4.259   4.031 130.203  0.00  0.00    +0.000 HD
ENDBRANCH  28  38
ENDBRANCH  21  22
ENDBRANCH   1  21
TORSDOF 12
ENDMDL
MODEL 4
REMARK VINA RESULT:      -8.1      4.246      7.065
REMARK  Name = Sofosbuvir
REMARK  16 active torsions:
REMARK  status: ('A' for Active; 'I' for Inactive)
REMARK    1  A    between atoms: C_1  and  C_2
REMARK    2  A    between atoms: C_2  and  C_3
REMARK    3  A    between atoms: C_2  and  O_4
REMARK    4  A    between atoms: O_4  and  C_5
REMARK    5  A    between atoms: C_5  and  C_7
REMARK    6  A    between atoms: C_7  and  C_8
REMARK    7  A    between atoms: C_7  and  N_9
REMARK    8  A    between atoms: N_9  and  P_10
REMARK    9  A    between atoms: P_10  and  O_12
REMARK   10  A    between atoms: P_10  and  O_30
REMARK   11  A    between atoms: O_12  and  C_13
REMARK   12  A    between atoms: C_13  and  C_14
REMARK   13  A    between atoms: C_16  and  N_17
REMARK   14  A    between atoms: C_25  and  C_26
REMARK   15  A    between atoms: C_28  and  O_29
REMARK   16  A    between atoms: O_30  and  C_31
REMARK                            x       y       z     vdW  Elec       q    Type
REMARK                         _______ _______ _______ _____ _____    ______ ____
ROOT
ATOM      1  O   UNL     1      -6.929   1.214 126.971  0.00  0.00    +0.000 OA
ENDROOT
BRANCH   1   2
ATOM      2  P   UNL     1      -5.486   0.425 127.067  0.00  0.00    +0.000 P 
ATOM      3  O   UNL     1      -4.815   1.810 126.897  0.00  0.00    +0.000 OA
BRANCH   2   4
ATOM      4  N   UNL     1      -4.920   0.385 128.677  0.00  0.00    +0.000 NA
ATOM      5  H   UNL     1      -3.965   0.721 128.710  0.00  0.00    +0.000 HD
BRANCH   4   6
ATOM      6  C   UNL     1      -4.914  -1.011 129.284  0.00  0.00    +0.000 C 
ATOM      7  C   UNL     1      -3.585  -1.472 129.965  0.00  0.00    +0.000 C 
BRANCH   6   8
ATOM      8  C   UNL     1      -5.933  -1.088 130.421  0.00  0.00    +0.000 C 
ATOM      9  O   UNL     1      -6.560  -0.108 130.812  0.00  0.00    +0.000 OA
BRANCH   8  10
ATOM     10  O   UNL     1      -6.067  -2.340 130.944  0.00  0.00    +0.000 OA
BRANCH  10  12
ATOM     11  C   UNL     1      -5.913  -4.712 130.513  0.00  0.00    +0.000 C 
ATOM     12  C   UNL     1      -6.377  -3.363 129.969  0.00  0.00    +0.000 C 
ATOM     13  C   UNL     1      -7.880  -3.442 129.688  0.00  0.00    +0.000 C 
ENDBRANCH  10  12
ENDBRANCH   8  10
ENDBRANCH   6   8
ENDBRANCH   4   6
ENDBRANCH   2   4
BRANCH   2  14
ATOM     14  O   UNL     1      -6.235  -1.122 127.258  0.00  0.00    +0.000 OA
BRANCH  14  15
ATOM     15  C   UNL     1      -7.025  -1.733 126.239  0.00  0.00    +0.000 A 
ATOM     16  C   UNL     1      -8.376  -2.061 126.386  0.00  0.00    +0.000 A 
ATOM     17  C   UNL     1      -8.926  -3.184 125.722  0.00  0.00    +0.000 A 
ATOM     18  C   UNL     1      -8.189  -3.894 124.787  0.00  0.00    +0.000 A 
ATOM     19  C   UNL     1      -6.955  -3.382 124.411  0.00  0.00    +0.000 A 
ATOM     20  C   UNL     1      -6.368  -2.307 125.135  0.00  0.00    +0.000 A 
ENDBRANCH  14  15
ENDBRANCH   2  14
ENDBRANCH   1   2
BRANCH   1  21
ATOM     21  C   UNL     1      -7.132   2.207 125.943  0.00  0.00    +0.000 C 
BRANCH  21  22
ATOM     22  C   UNL     1      -8.565   2.304 125.451  0.00  0.00    +0.000 C 
ATOM     23  O   UNL     1      -8.692   3.360 124.478  0.00  0.00    +0.000 OA
ATOM     24  C   UNL     1      -8.743   2.772 123.149  0.00  0.00    +0.000 C 
ATOM     25  C   UNL     1      -8.592   1.239 123.319  0.00  0.00    +0.000 C 
ATOM     26  C   UNL     1      -7.194   0.659 123.089  0.00  0.00    +0.000 C 
ATOM     27  F   UNL     1      -9.431   0.598 122.464  0.00  0.00    +0.000 F 
ATOM     28  C   UNL     1      -9.030   1.020 124.764  0.00  0.00    +0.000 C 
BRANCH  24  29
ATOM     29  N   UNL     1      -7.783   3.389 122.197  0.00  0.00    +0.000 N 
ATOM     30  C   UNL     1      -6.487   3.622 122.566  0.00  0.00    +0.000 A 
ATOM     31  C   UNL     1      -5.481   4.006 121.790  0.00  0.00    +0.000 A 
ATOM     32  C   UNL     1      -5.849   4.418 120.452  0.00  0.00    +0.000 A 
ATOM     33  O   UNL     1      -5.095   5.144 119.803  0.00  0.00    +0.000 OA
ATOM     34  N   UNL     1      -7.117   4.085 120.063  0.00  0.00    +0.000 N 
ATOM     35  C   UNL     1      -8.156   3.640 120.880  0.00  0.00    +0.000 A 
ATOM     36  O   UNL     1      -9.280   3.528 120.445  0.00  0.00    +0.000 OA
ATOM     37  H   UNL     1      -7.408   4.462 119.177  0.00  0.00    +0.000 HD
ENDBRANCH  24  29
BRANCH  28  38
ATOM     38  O   UNL     1     -10.450   0.897 124.907  0.00  0.00    +0.000 OA
ATOM     39  H   UNL     1     -10.886   1.542 124.324  0.00  0.00    +0.000 HD
ENDBRANCH  28  38
ENDBRANCH  21  22
ENDBRANCH   1  21
TORSDOF 12
ENDMDL
MODEL 5
REMARK VINA RESULT:      -8.0      2.551      3.787
REMARK  Name = Sofosbuvir
REMARK  16 active torsions:
REMARK  status: ('A' for Active; 'I' for Inactive)
REMARK    1  A    between atoms: C_1  and  C_2
REMARK    2  A    between atoms: C_2  and  C_3
REMARK    3  A    between atoms: C_2  and  O_4
REMARK    4  A    between atoms: O_4  and  C_5
REMARK    5  A    between atoms: C_5  and  C_7
REMARK    6  A    between atoms: C_7  and  C_8
REMARK    7  A    between atoms: C_7  and  N_9
REMARK    8  A    between atoms: N_9  and  P_10
REMARK    9  A    between atoms: P_10  and  O_12
REMARK   10  A    between atoms: P_10  and  O_30
REMARK   11  A    between atoms: O_12  and  C_13
REMARK   12  A    between atoms: C_13  and  C_14
REMARK   13  A    between atoms: C_16  and  N_17
REMARK   14  A    between atoms: C_25  and  C_26
REMARK   15  A    between atoms: C_28  and  O_29
REMARK   16  A    between atoms: O_30  and  C_31
REMARK                            x       y       z     vdW  Elec       q    Type
REMARK                         _______ _______ _______ _____ _____    ______ ____
ROOT
ATOM      1  O   UNL     1      -8.645   2.585 129.165  0.00  0.00    +0.000 OA
ENDROOT
BRANCH   1   2
ATOM      2  P   UNL     1      -8.850   4.021 129.946  0.00  0.00    +0.000 P 
ATOM      3  O   UNL     1      -8.759   4.693 128.554  0.00  0.00    +0.000 OA
BRANCH   2   4
ATOM      4  N   UNL     1     -10.501   4.450 130.009  0.00  0.00    +0.000 NA
ATOM      5  H   UNL     1     -10.789   4.827 129.114  0.00  0.00    +0.000 HD
BRANCH   4   6
ATOM      6  C   UNL     1     -10.813   5.513 131.053  0.00  0.00    +0.000 C 
ATOM      7  C   UNL     1      -9.749   6.642 131.242  0.00  0.00    +0.000 C 
BRANCH   6   8
ATOM      8  C   UNL     1     -12.071   6.283 130.652  0.00  0.00    +0.000 C 
ATOM      9  O   UNL     1     -12.804   6.823 131.475  0.00  0.00    +0.000 OA
BRANCH   8  10
ATOM     10  O   UNL     1     -12.287   6.304 129.306  0.00  0.00    +0.000 OA
BRANCH  10  12
ATOM     11  C   UNL     1     -11.214   8.052 128.029  0.00  0.00    +0.000 C 
ATOM     12  C   UNL     1     -12.488   7.627 128.755  0.00  0.00    +0.000 C 
ATOM     13  C   UNL     1     -13.650   7.655 127.757  0.00  0.00    +0.000 C 
ENDBRANCH  10  12
ENDBRANCH   8  10
ENDBRANCH   6   8
ENDBRANCH   4   6
ENDBRANCH   2   4
BRANCH   2  14
ATOM     14  O   UNL     1      -8.952   3.272 131.501  0.00  0.00    +0.000 OA
BRANCH  14  15
ATOM     15  C   UNL     1      -8.151   3.674 132.611  0.00  0.00    +0.000 A 
ATOM     16  C   UNL     1      -8.610   3.728 133.930  0.00  0.00    +0.000 A 
ATOM     17  C   UNL     1      -8.105   4.692 134.835  0.00  0.00    +0.000 A 
ATOM     18  C   UNL     1      -7.033   5.503 134.493  0.00  0.00    +0.000 A 
ATOM     19  C   UNL     1      -6.377   5.236 133.300  0.00  0.00    +0.000 A 
ATOM     20  C   UNL     1      -6.932   4.329 132.355  0.00  0.00    +0.000 A 
ENDBRANCH  14  15
ENDBRANCH   2  14
ENDBRANCH   1   2
BRANCH   1  21
ATOM     21  C   UNL     1      -7.468   2.375 128.357  0.00  0.00    +0.000 C 
BRANCH  21  22
ATOM     22  C   UNL     1      -6.914   0.963 128.427  0.00  0.00    +0.000 C 
ATOM     23  O   UNL     1      -7.780   0.048 127.727  0.00  0.00    +0.000 OA
ATOM     24  C   UNL     1      -7.190  -0.260 126.434  0.00  0.00    +0.000 C 
ATOM     25  C   UNL     1      -5.884   0.565 126.316  0.00  0.00    +0.000 C 
ATOM     26  C   UNL     1      -5.968   1.870 125.521  0.00  0.00    +0.000 C 
ATOM     27  F   UNL     1      -4.916  -0.191 125.733  0.00  0.00    +0.000 F 
ATOM     28  C   UNL     1      -5.537   0.848 127.774  0.00  0.00    +0.000 C 
BRANCH  24  29
ATOM     29  N   UNL     1      -8.138  -0.088 125.301  0.00  0.00    +0.000 N 
ATOM     30  C   UNL     1      -9.159   0.818 125.377  0.00  0.00    +0.000 A 
ATOM     31  C   UNL     1      -9.974   1.203 124.403  0.00  0.00    +0.000 A 
ATOM     32  C   UNL     1      -9.901   0.423 123.186  0.00  0.00    +0.000 A 
ATOM     33  O   UNL     1     -10.846   0.426 122.397  0.00  0.00    +0.000 OA
ATOM     34  N   UNL     1      -8.817  -0.404 123.083  0.00  0.00    +0.000 N 
ATOM     35  C   UNL     1      -7.939  -0.768 124.103  0.00  0.00    +0.000 A 
ATOM     36  O   UNL     1      -7.110  -1.632 123.926  0.00  0.00    +0.000 OA
ATOM     37  H   UNL     1      -8.821  -1.021 122.289  0.00  0.00    +0.000 HD
ENDBRANCH  24  29
BRANCH  28  38
ATOM     38  O   UNL     1      -4.809  -0.219 128.394  0.00  0.00    +0.000 OA
ATOM     39  H   UNL     1      -4.805  -0.989 127.801  0.00  0.00    +0.000 HD
ENDBRANCH  28  38
ENDBRANCH  21  22
ENDBRANCH   1  21
TORSDOF 12
ENDMDL
MODEL 6
REMARK VINA RESULT:      -8.0      3.422      8.664
REMARK  Name = Sofosbuvir
REMARK  16 active torsions:
REMARK  status: ('A' for Active; 'I' for Inactive)
REMARK    1  A    between atoms: C_1  and  C_2
REMARK    2  A    between atoms: C_2  and  C_3
REMARK    3  A    between atoms: C_2  and  O_4
REMARK    4  A    between atoms: O_4  and  C_5
REMARK    5  A    between atoms: C_5  and  C_7
REMARK    6  A    between atoms: C_7  and  C_8
REMARK    7  A    between atoms: C_7  and  N_9
REMARK    8  A    between atoms: N_9  and  P_10
REMARK    9  A    between atoms: P_10  and  O_12
REMARK   10  A    between atoms: P_10  and  O_30
REMARK   11  A    between atoms: O_12  and  C_13
REMARK   12  A    between atoms: C_13  and  C_14
REMARK   13  A    between atoms: C_16  and  N_17
REMARK   14  A    between atoms: C_25  and  C_26
REMARK   15  A    between atoms: C_28  and  O_29
REMARK   16  A    between atoms: O_30  and  C_31
REMARK                            x       y       z     vdW  Elec       q    Type
REMARK                         _______ _______ _______ _____ _____    ______ ____
ROOT
ATOM      1  O   UNL     1      -7.932   2.835 128.264  0.00  0.00    +0.000 OA
ENDROOT
BRANCH   1   2
ATOM      2  P   UNL     1      -7.585   2.191 126.788  0.00  0.00    +0.000 P 
ATOM      3  O   UNL     1      -8.621   1.089 127.121  0.00  0.00    +0.000 OA
BRANCH   2   4
ATOM      4  N   UNL     1      -8.650   2.788 125.597  0.00  0.00    +0.000 NA
ATOM      5  H   UNL     1      -9.583   2.868 125.984  0.00  0.00    +0.000 HD
BRANCH   4   6
ATOM      6  C   UNL     1      -8.760   1.888 124.374  0.00  0.00    +0.000 C 
ATOM      7  C   UNL     1     -10.202   1.467 123.942  0.00  0.00    +0.000 C 
BRANCH   6   8
ATOM      8  C   UNL     1      -8.227   2.618 123.141  0.00  0.00    +0.000 C 
ATOM      9  O   UNL     1      -8.963   3.198 122.348  0.00  0.00    +0.000 OA
BRANCH   8  10
ATOM     10  O   UNL     1      -6.870   2.556 123.020  0.00  0.00    +0.000 OA
BRANCH  10  12
ATOM     11  C   UNL     1      -5.257   4.345 123.213  0.00  0.00    +0.000 C 
ATOM     12  C   UNL     1      -6.284   3.670 122.306  0.00  0.00    +0.000 C 
ATOM     13  C   UNL     1      -5.579   3.216 121.025  0.00  0.00    +0.000 C 
ENDBRANCH  10  12
ENDBRANCH   8  10
ENDBRANCH   6   8
ENDBRANCH   4   6
ENDBRANCH   2   4
BRANCH   2  14
ATOM     14  O   UNL     1      -6.428   3.421 126.416  0.00  0.00    +0.000 OA
BRANCH  14  15
ATOM     15  C   UNL     1      -5.107   3.434 126.957  0.00  0.00    +0.000 A 
ATOM     16  C   UNL     1      -4.554   4.516 127.648  0.00  0.00    +0.000 A 
ATOM     17  C   UNL     1      -3.167   4.788 127.577  0.00  0.00    +0.000 A 
ATOM     18  C   UNL     1      -2.295   3.907 126.957  0.00  0.00    +0.000 A 
ATOM     19  C   UNL     1      -2.799   2.682 126.545  0.00  0.00    +0.000 A 
ATOM     20  C   UNL     1      -4.201   2.442 126.538  0.00  0.00    +0.000 A 
ENDBRANCH  14  15
ENDBRANCH   2  14
ENDBRANCH   1   2
BRANCH   1  21
ATOM     21  C   UNL     1      -8.121   4.261 128.392  0.00  0.00    +0.000 C 
BRANCH  21  22
ATOM     22  C   UNL     1      -7.702   4.821 129.740  0.00  0.00    +0.000 C 
ATOM     23  O   UNL     1      -8.183   6.171 129.894  0.00  0.00    +0.000 OA
ATOM     24  C   UNL     1      -9.351   6.158 130.761  0.00  0.00    +0.000 C 
ATOM     25  C   UNL     1      -9.632   4.679 131.130  0.00  0.00    +0.000 C 
ATOM     26  C   UNL     1     -10.718   3.966 130.320  0.00  0.00    +0.000 C 
ATOM     27  F   UNL     1      -9.995   4.594 132.437  0.00  0.00    +0.000 F 
ATOM     28  C   UNL     1      -8.276   4.017 130.905  0.00  0.00    +0.000 C 
BRANCH  24  29
ATOM     29  N   UNL     1     -10.513   6.888 130.190  0.00  0.00    +0.000 N 
ATOM     30  C   UNL     1     -10.562   7.188 128.857  0.00  0.00    +0.000 A 
ATOM     31  C   UNL     1     -11.589   7.679 128.174  0.00  0.00    +0.000 A 
ATOM     32  C   UNL     1     -12.706   8.136 128.975  0.00  0.00    +0.000 A 
ATOM     33  O   UNL     1     -13.508   8.943 128.505  0.00  0.00    +0.000 OA
ATOM     34  N   UNL     1     -12.692   7.739 130.283  0.00  0.00    +0.000 N 
ATOM     35  C   UNL     1     -11.620   7.183 130.980  0.00  0.00    +0.000 A 
ATOM     36  O   UNL     1     -11.680   7.019 132.178  0.00  0.00    +0.000 OA
ATOM     37  H   UNL     1     -13.409   8.142 130.862  0.00  0.00    +0.000 HD
ENDBRANCH  24  29
BRANCH  28  38
ATOM     38  O   UNL     1      -7.402   4.133 132.035  0.00  0.00    +0.000 OA
ATOM     39  H   UNL     1      -6.558   4.520 131.745  0.00  0.00    +0.000 HD
ENDBRANCH  28  38
ENDBRANCH  21  22
ENDBRANCH   1  21
TORSDOF 12
ENDMDL
MODEL 7
REMARK VINA RESULT:      -8.0      2.722      3.929
REMARK  Name = Sofosbuvir
REMARK  16 active torsions:
REMARK  status: ('A' for Active; 'I' for Inactive)
REMARK    1  A    between atoms: C_1  and  C_2
REMARK    2  A    between atoms: C_2  and  C_3
REMARK    3  A    between atoms: C_2  and  O_4
REMARK    4  A    between atoms: O_4  and  C_5
REMARK    5  A    between atoms: C_5  and  C_7
REMARK    6  A    between atoms: C_7  and  C_8
REMARK    7  A    between atoms: C_7  and  N_9
REMARK    8  A    between atoms: N_9  and  P_10
REMARK    9  A    between atoms: P_10  and  O_12
REMARK   10  A    between atoms: P_10  and  O_30
REMARK   11  A    between atoms: O_12  and  C_13
REMARK   12  A    between atoms: C_13  and  C_14
REMARK   13  A    between atoms: C_16  and  N_17
REMARK   14  A    between atoms: C_25  and  C_26
REMARK   15  A    between atoms: C_28  and  O_29
REMARK   16  A    between atoms: O_30  and  C_31
REMARK                            x       y       z     vdW  Elec       q    Type
REMARK                         _______ _______ _______ _____ _____    ______ ____
ROOT
ATOM      1  O   UNL     1      -6.653   3.026 126.323  0.00  0.00    +0.000 OA
ENDROOT
BRANCH   1   2
ATOM      2  P   UNL     1      -5.844   4.380 126.799  0.00  0.00    +0.000 P 
ATOM      3  O   UNL     1      -6.989   5.191 126.144  0.00  0.00    +0.000 OA
BRANCH   2   4
ATOM      4  N   UNL     1      -6.388   4.907 128.328  0.00  0.00    +0.000 NA
ATOM      5  H   UNL     1      -5.625   4.869 128.993  0.00  0.00    +0.000 HD
BRANCH   4   6
ATOM      6  C   UNL     1      -7.511   4.054 128.901  0.00  0.00    +0.000 C 
ATOM      7  C   UNL     1      -7.166   3.201 130.166  0.00  0.00    +0.000 C 
BRANCH   6   8
ATOM      8  C   UNL     1      -8.651   4.950 129.386  0.00  0.00    +0.000 C 
ATOM      9  O   UNL     1      -9.318   5.639 128.621  0.00  0.00    +0.000 OA
BRANCH   8  10
ATOM     10  O   UNL     1      -8.841   4.902 130.735  0.00  0.00    +0.000 OA
BRANCH  10  12
ATOM     11  C   UNL     1      -9.081   5.997 132.875  0.00  0.00    +0.000 C 
ATOM     12  C   UNL     1      -8.778   6.190 131.392  0.00  0.00    +0.000 C 
ATOM     13  C   UNL     1      -7.393   6.830 131.256  0.00  0.00    +0.000 C 
ENDBRANCH  10  12
ENDBRANCH   8  10
ENDBRANCH   6   8
ENDBRANCH   4   6
ENDBRANCH   2   4
BRANCH   2  14
ATOM     14  O   UNL     1      -4.565   3.474 127.531  0.00  0.00    +0.000 OA
BRANCH  14  15
ATOM     15  C   UNL     1      -3.553   4.074 128.339  0.00  0.00    +0.000 A 
ATOM     16  C   UNL     1      -3.426   3.870 129.716  0.00  0.00    +0.000 A 
ATOM     17  C   UNL     1      -2.928   4.894 130.557  0.00  0.00    +0.000 A 
ATOM     18  C   UNL     1      -2.404   6.063 130.029  0.00  0.00    +0.000 A 
ATOM     19  C   UNL     1      -2.243   6.135 128.653  0.00  0.00    +0.000 A 
ATOM     20  C   UNL     1      -2.818   5.148 127.804  0.00  0.00    +0.000 A 
ENDBRANCH  14  15
ENDBRANCH   2  14
ENDBRANCH   1   2
BRANCH   1  21
ATOM     21  C   UNL     1      -6.100   2.195 125.279  0.00  0.00    +0.000 C 
BRANCH  21  22
ATOM     22  C   UNL     1      -6.736   2.409 123.917  0.00  0.00    +0.000 C 
ATOM     23  O   UNL     1      -6.755   1.175 123.173  0.00  0.00    +0.000 OA
ATOM     24  C   UNL     1      -8.098   0.618 123.220  0.00  0.00    +0.000 C 
ATOM     25  C   UNL     1      -8.956   1.563 124.098  0.00  0.00    +0.000 C 
ATOM     26  C   UNL     1      -9.161   1.146 125.556  0.00  0.00    +0.000 C 
ATOM     27  F   UNL     1     -10.193   1.702 123.550  0.00  0.00    +0.000 F 
ATOM     28  C   UNL     1      -8.186   2.878 124.022  0.00  0.00    +0.000 C 
BRANCH  24  29
ATOM     29  N   UNL     1      -8.128  -0.810 123.632  0.00  0.00    +0.000 N 
ATOM     30  C   UNL     1      -7.122  -1.337 124.393  0.00  0.00    +0.000 A 
ATOM     31  C   UNL     1      -7.085  -2.530 124.974  0.00  0.00    +0.000 A 
ATOM     32  C   UNL     1      -8.139  -3.444 124.584  0.00  0.00    +0.000 A 
ATOM     33  O   UNL     1      -7.987  -4.656 124.736  0.00  0.00    +0.000 OA
ATOM     34  N   UNL     1      -9.187  -2.878 123.912  0.00  0.00    +0.000 N 
ATOM     35  C   UNL     1      -9.232  -1.607 123.343  0.00  0.00    +0.000 A 
ATOM     36  O   UNL     1     -10.157  -1.278 122.636  0.00  0.00    +0.000 OA
ATOM     37  H   UNL     1      -9.865  -3.528 123.550  0.00  0.00    +0.000 HD
ENDBRANCH  24  29
BRANCH  28  38
ATOM     38  O   UNL     1      -8.516   3.654 122.863  0.00  0.00    +0.000 OA
ATOM     39  H   UNL     1      -8.683   3.055 122.116  0.00  0.00    +0.000 HD
ENDBRANCH  28  38
ENDBRANCH  21  22
ENDBRANCH   1  21
TORSDOF 12
ENDMDL
MODEL 8
REMARK VINA RESULT:      -7.9      2.972      8.295
REMARK  Name = Sofosbuvir
REMARK  16 active torsions:
REMARK  status: ('A' for Active; 'I' for Inactive)
REMARK    1  A    between atoms: C_1  and  C_2
REMARK    2  A    between atoms: C_2  and  C_3
REMARK    3  A    between atoms: C_2  and  O_4
REMARK    4  A    between atoms: O_4  and  C_5
REMARK    5  A    between atoms: C_5  and  C_7
REMARK    6  A    between atoms: C_7  and  C_8
REMARK    7  A    between atoms: C_7  and  N_9
REMARK    8  A    between atoms: N_9  and  P_10
REMARK    9  A    between atoms: P_10  and  O_12
REMARK   10  A    between atoms: P_10  and  O_30
REMARK   11  A    between atoms: O_12  and  C_13
REMARK   12  A    between atoms: C_13  and  C_14
REMARK   13  A    between atoms: C_16  and  N_17
REMARK   14  A    between atoms: C_25  and  C_26
REMARK   15  A    between atoms: C_28  and  O_29
REMARK   16  A    between atoms: O_30  and  C_31
REMARK                            x       y       z     vdW  Elec       q    Type
REMARK                         _______ _______ _______ _____ _____    ______ ____
ROOT
ATOM      1  O   UNL     1      -7.217   2.306 127.242  0.00  0.00    +0.000 OA
ENDROOT
BRANCH   1   2
ATOM      2  P   UNL     1      -8.323   1.232 126.660  0.00  0.00    +0.000 P 
ATOM      3  O   UNL     1      -9.330   1.862 127.653  0.00  0.00    +0.000 OA
BRANCH   2   4
ATOM      4  N   UNL     1      -9.214   1.913 125.374  0.00  0.00    +0.000 NA
ATOM      5  H   UNL     1     -10.171   1.583 125.411  0.00  0.00    +0.000 HD
BRANCH   4   6
ATOM      6  C   UNL     1      -8.676   1.543 123.999  0.00  0.00    +0.000 C 
ATOM      7  C   UNL     1      -9.616   0.690 123.086  0.00  0.00    +0.000 C 
BRANCH   6   8
ATOM      8  C   UNL     1      -8.443   2.809 123.174  0.00  0.00    +0.000 C 
ATOM      9  O   UNL     1      -8.941   2.972 122.064  0.00  0.00    +0.000 OA
BRANCH   8  10
ATOM     10  O   UNL     1      -7.638   3.718 123.792  0.00  0.00    +0.000 OA
BRANCH  10  12
ATOM     11  C   UNL     1      -5.732   4.000 122.333  0.00  0.00    +0.000 C 
ATOM     12  C   UNL     1      -6.222   3.442 123.667  0.00  0.00    +0.000 C 
ATOM     13  C   UNL     1      -5.416   4.093 124.794  0.00  0.00    +0.000 C 
ENDBRANCH  10  12
ENDBRANCH   8  10
ENDBRANCH   6   8
ENDBRANCH   4   6
ENDBRANCH   2   4
BRANCH   2  14
ATOM     14  O   UNL     1      -7.198   0.529 125.551  0.00  0.00    +0.000 OA
BRANCH  14  15
ATOM     15  C   UNL     1      -7.048  -0.881 125.386  0.00  0.00    +0.000 A 
ATOM     16  C   UNL     1      -6.301  -1.476 124.366  0.00  0.00    +0.000 A 
ATOM     17  C   UNL     1      -6.680  -2.728 123.826  0.00  0.00    +0.000 A 
ATOM     18  C   UNL     1      -7.700  -3.474 124.395  0.00  0.00    +0.000 A 
ATOM     19  C   UNL     1      -8.233  -3.029 125.596  0.00  0.00    +0.000 A 
ATOM     20  C   UNL     1      -7.916  -1.734 126.093  0.00  0.00    +0.000 A 
ENDBRANCH  14  15
ENDBRANCH   2  14
ENDBRANCH   1   2
BRANCH   1  21
ATOM     21  C   UNL     1      -7.670   3.506 127.904  0.00  0.00    +0.000 C 
BRANCH  21  22
ATOM     22  C   UNL     1      -6.644   4.121 128.840  0.00  0.00    +0.000 C 
ATOM     23  O   UNL     1      -7.162   5.330 129.429  0.00  0.00    +0.000 OA
ATOM     24  C   UNL     1      -7.581   5.046 130.793  0.00  0.00    +0.000 C 
ATOM     25  C   UNL     1      -7.341   3.536 131.042  0.00  0.00    +0.000 C 
ATOM     26  C   UNL     1      -8.556   2.617 130.899  0.00  0.00    +0.000 C 
ATOM     27  F   UNL     1      -6.851   3.351 132.296  0.00  0.00    +0.000 F 
ATOM     28  C   UNL     1      -6.284   3.191 129.997  0.00  0.00    +0.000 C 
BRANCH  24  29
ATOM     29  N   UNL     1      -8.961   5.514 131.092  0.00  0.00    +0.000 N 
ATOM     30  C   UNL     1      -9.901   5.590 130.103  0.00  0.00    +0.000 A 
ATOM     31  C   UNL     1     -11.201   5.824 130.237  0.00  0.00    +0.000 A 
ATOM     32  C   UNL     1     -11.623   6.248 131.556  0.00  0.00    +0.000 A 
ATOM     33  O   UNL     1     -12.684   6.856 131.695  0.00  0.00    +0.000 OA
ATOM     34  N   UNL     1     -10.704   6.068 132.552  0.00  0.00    +0.000 N 
ATOM     35  C   UNL     1      -9.348   5.778 132.402  0.00  0.00    +0.000 A 
ATOM     36  O   UNL     1      -8.602   5.799 133.355  0.00  0.00    +0.000 OA
ATOM     37  H   UNL     1     -10.956   6.458 133.445  0.00  0.00    +0.000 HD
ENDBRANCH  24  29
BRANCH  28  38
ATOM     38  O   UNL     1      -4.950   3.476 130.434  0.00  0.00    +0.000 OA
ATOM     39  H   UNL     1      -4.979   3.812 131.346  0.00  0.00    +0.000 HD
ENDBRANCH  28  38
ENDBRANCH  21  22
ENDBRANCH   1  21
TORSDOF 12
ENDMDL
MODEL 9
REMARK VINA RESULT:      -7.9      1.744      2.158
REMARK  Name = Sofosbuvir
REMARK  16 active torsions:
REMARK  status: ('A' for Active; 'I' for Inactive)
REMARK    1  A    between atoms: C_1  and  C_2
REMARK    2  A    between atoms: C_2  and  C_3
REMARK    3  A    between atoms: C_2  and  O_4
REMARK    4  A    between atoms: O_4  and  C_5
REMARK    5  A    between atoms: C_5  and  C_7
REMARK    6  A    between atoms: C_7  and  C_8
REMARK    7  A    between atoms: C_7  and  N_9
REMARK    8  A    between atoms: N_9  and  P_10
REMARK    9  A    between atoms: P_10  and  O_12
REMARK   10  A    between atoms: P_10  and  O_30
REMARK   11  A    between atoms: O_12  and  C_13
REMARK   12  A    between atoms: C_13  and  C_14
REMARK   13  A    between atoms: C_16  and  N_17
REMARK   14  A    between atoms: C_25  and  C_26
REMARK   15  A    between atoms: C_28  and  O_29
REMARK   16  A    between atoms: O_30  and  C_31
REMARK                            x       y       z     vdW  Elec       q    Type
REMARK                         _______ _______ _______ _____ _____    ______ ____
ROOT
ATOM      1  O   UNL     1      -8.175   3.678 127.542  0.00  0.00    +0.000 OA
ENDROOT
BRANCH   1   2
ATOM      2  P   UNL     1      -8.407   4.629 128.867  0.00  0.00    +0.000 P 
ATOM      3  O   UNL     1      -9.076   5.648 127.913  0.00  0.00    +0.000 OA
BRANCH   2   4
ATOM      4  N   UNL     1      -9.934   4.333 129.569  0.00  0.00    +0.000 NA
ATOM      5  H   UNL     1     -10.664   4.554 128.902  0.00  0.00    +0.000 HD
BRANCH   4   6
ATOM      6  C   UNL     1     -10.206   5.173 130.809  0.00  0.00    +0.000 C 
ATOM      7  C   UNL     1      -9.242   6.378 131.064  0.00  0.00    +0.000 C 
BRANCH   6   8
ATOM      8  C   UNL     1     -11.576   5.842 130.695  0.00  0.00    +0.000 C 
ATOM      9  O   UNL     1     -12.178   6.282 131.670  0.00  0.00    +0.000 OA
BRANCH   8  10
ATOM     10  O   UNL     1     -12.049   5.894 129.417  0.00  0.00    +0.000 OA
BRANCH  10  12
ATOM     11  C   UNL     1     -11.581   8.170 128.755  0.00  0.00    +0.000 C 
ATOM     12  C   UNL     1     -12.674   7.150 129.064  0.00  0.00    +0.000 C 
ATOM     13  C   UNL     1     -13.573   7.010 127.832  0.00  0.00    +0.000 C 
ENDBRANCH  10  12
ENDBRANCH   8  10
ENDBRANCH   6   8
ENDBRANCH   4   6
ENDBRANCH   2   4
BRANCH   2  14
ATOM     14  O   UNL     1      -7.661   3.491 129.935  0.00  0.00    +0.000 OA
BRANCH  14  15
ATOM     15  C   UNL     1      -7.360   2.150 129.552  0.00  0.00    +0.000 A 
ATOM     16  C   UNL     1      -8.254   1.082 129.670  0.00  0.00    +0.000 A 
ATOM     17  C   UNL     1      -7.788  -0.228 129.933  0.00  0.00    +0.000 A 
ATOM     18  C   UNL     1      -6.434  -0.522 129.923  0.00  0.00    +0.000 A 
ATOM     19  C   UNL     1      -5.561   0.470 129.498  0.00  0.00    +0.000 A 
ATOM     20  C   UNL     1      -6.016   1.805 129.317  0.00  0.00    +0.000 A 
ENDBRANCH  14  15
ENDBRANCH   2  14
ENDBRANCH   1   2
BRANCH   1  21
ATOM     21  C   UNL     1      -7.888   4.291 126.267  0.00  0.00    +0.000 C 
BRANCH  21  22
ATOM     22  C   UNL     1      -6.539   3.906 125.687  0.00  0.00    +0.000 C 
ATOM     23  O   UNL     1      -6.266   2.512 125.930  0.00  0.00    +0.000 OA
ATOM     24  C   UNL     1      -6.509   1.765 124.706  0.00  0.00    +0.000 C 
ATOM     25  C   UNL     1      -7.011   2.774 123.644  0.00  0.00    +0.000 C 
ATOM     26  C   UNL     1      -8.524   2.847 123.429  0.00  0.00    +0.000 C 
ATOM     27  F   UNL     1      -6.455   2.485 122.437  0.00  0.00    +0.000 F 
ATOM     28  C   UNL     1      -6.482   4.104 124.173  0.00  0.00    +0.000 C 
BRANCH  24  29
ATOM     29  N   UNL     1      -7.389   0.583 124.905  0.00  0.00    +0.000 N 
ATOM     30  C   UNL     1      -8.273   0.539 125.946  0.00  0.00    +0.000 A 
ATOM     31  C   UNL     1      -9.230  -0.357 126.159  0.00  0.00    +0.000 A 
ATOM     32  C   UNL     1      -9.190  -1.524 125.303  0.00  0.00    +0.000 A 
ATOM     33  O   UNL     1      -9.750  -2.562 125.656  0.00  0.00    +0.000 OA
ATOM     34  N   UNL     1      -8.376  -1.422 124.210  0.00  0.00    +0.000 N 
ATOM     35  C   UNL     1      -7.404  -0.452 123.973  0.00  0.00    +0.000 A 
ATOM     36  O   UNL     1      -6.638  -0.558 123.043  0.00  0.00    +0.000 OA
ATOM     37  H   UNL     1      -8.268  -2.268 123.675  0.00  0.00    +0.000 HD
ENDBRANCH  24  29
BRANCH  28  38
ATOM     38  O   UNL     1      -5.128   4.364 123.782  0.00  0.00    +0.000 OA
ATOM     39  H   UNL     1      -4.716   3.533 123.488  0.00  0.00    +0.000 HD
ENDBRANCH  28  38
ENDBRANCH  21  22
ENDBRANCH   1  21
TORSDOF 12
ENDMDL
