MODEL 1
REMARK VINA RESULT:      -8.8      0.000      0.000
REMARK  Name = Solifenacin
REMARK  3 active torsions:
REMARK  status: ('A' for Active; 'I' for Inactive)
REMARK    1  A    between atoms: C_2  and  O_3
REMARK    2  A    between atoms: O_3  and  C_4
REMARK    3  A    between atoms: C_21  and  C_22
REMARK                            x       y       z     vdW  Elec       q    Type
REMARK                         _______ _______ _______ _____ _____    ______ ____
ROOT
ATOM      1  O   UNL     1      -9.617   4.300 129.529  0.00  0.00    +0.000 OA
ATOM      2  C   UNL     1      -8.912   5.290 129.616  0.00  0.00    +0.000 C 
ATOM      3  N   UNL     1      -7.583   5.154 130.120  0.00  0.00    +0.000 N 
ATOM      4  C   UNL     1      -6.820   4.000 129.608  0.00  0.00    +0.000 C 
ATOM      5  C   UNL     1      -5.354   3.864 130.079  0.00  0.00    +0.000 C 
ATOM      6  C   UNL     1      -4.643   5.189 130.129  0.00  0.00    +0.000 A 
ATOM      7  C   UNL     1      -3.286   5.296 129.787  0.00  0.00    +0.000 A 
ATOM      8  C   UNL     1      -2.688   6.542 129.605  0.00  0.00    +0.000 A 
ATOM      9  C   UNL     1      -3.432   7.693 129.803  0.00  0.00    +0.000 A 
ATOM     10  C   UNL     1      -4.727   7.588 130.330  0.00  0.00    +0.000 A 
ATOM     11  C   UNL     1      -5.365   6.331 130.502  0.00  0.00    +0.000 A 
ATOM     12  C   UNL     1      -6.842   6.134 130.957  0.00  0.00    +0.000 C 
ENDROOT
BRANCH  12  13
ATOM     13  C   UNL     1      -7.017   5.988 132.422  0.00  0.00    +0.000 A 
ATOM     14  C   UNL     1      -5.901   5.865 133.267  0.00  0.00    +0.000 A 
ATOM     15  C   UNL     1      -6.108   5.488 134.576  0.00  0.00    +0.000 A 
ATOM     16  C   UNL     1      -7.412   5.294 135.036  0.00  0.00    +0.000 A 
ATOM     17  C   UNL     1      -8.506   5.466 134.202  0.00  0.00    +0.000 A 
ATOM     18  C   UNL     1      -8.293   5.854 132.913  0.00  0.00    +0.000 A 
ENDBRANCH  12  13
BRANCH   2  19
ATOM     19  O   UNL     1      -9.428   6.491 129.107  0.00  0.00    +0.000 OA
BRANCH  19  20
ATOM     20  C   UNL     1     -10.350   7.574 129.562  0.00  0.00    +0.000 C 
ATOM     21  C   UNL     1     -10.796   8.399 128.412  0.00  0.00    +0.000 C 
ATOM     22  N   UNL     1     -12.172   8.466 127.952  0.00  0.00    +0.000 NA
ATOM     23  C   UNL     1     -12.675   7.093 127.788  0.00  0.00    +0.000 C 
ATOM     24  C   UNL     1     -12.462   6.305 129.086  0.00  0.00    +0.000 C 
ATOM     25  C   UNL     1     -11.732   7.185 130.131  0.00  0.00    +0.000 C 
ATOM     26  C   UNL     1     -12.576   8.530 130.290  0.00  0.00    +0.000 C 
ATOM     27  C   UNL     1     -12.825   9.246 128.951  0.00  0.00    +0.000 C 
ENDBRANCH  19  20
ENDBRANCH   2  19
TORSDOF 3
ENDMDL
MODEL 2
REMARK VINA RESULT:      -8.8      6.965      9.938
REMARK  Name = Solifenacin
REMARK  3 active torsions:
REMARK  status: ('A' for Active; 'I' for Inactive)
REMARK    1  A    between atoms: C_2  and  O_3
REMARK    2  A    between atoms: O_3  and  C_4
REMARK    3  A    between atoms: C_21  and  C_22
REMARK                            x       y       z     vdW  Elec       q    Type
REMARK                         _______ _______ _______ _____ _____    ______ ____
ROOT
ATOM      1  O   UNL     1      -9.982   1.757 123.448  0.00  0.00    +0.000 OA
ATOM      2  C   UNL     1      -8.827   1.526 123.760  0.00  0.00    +0.000 C 
ATOM      3  N   UNL     1      -8.015   2.590 124.254  0.00  0.00    +0.000 N 
ATOM      4  C   UNL     1      -8.660   3.487 125.231  0.00  0.00    +0.000 C 
ATOM      5  C   UNL     1      -7.786   4.608 125.840  0.00  0.00    +0.000 C 
ATOM      6  C   UNL     1      -6.392   4.138 126.156  0.00  0.00    +0.000 A 
ATOM      7  C   UNL     1      -5.710   4.609 127.288  0.00  0.00    +0.000 A 
ATOM      8  C   UNL     1      -4.525   4.009 127.714  0.00  0.00    +0.000 A 
ATOM      9  C   UNL     1      -3.993   2.958 126.987  0.00  0.00    +0.000 A 
ATOM     10  C   UNL     1      -4.568   2.617 125.755  0.00  0.00    +0.000 A 
ATOM     11  C   UNL     1      -5.787   3.197 125.313  0.00  0.00    +0.000 A 
ATOM     12  C   UNL     1      -6.558   2.782 124.024  0.00  0.00    +0.000 C 
ENDROOT
BRANCH  12  13
ATOM     13  C   UNL     1      -6.197   3.561 122.816  0.00  0.00    +0.000 A 
ATOM     14  C   UNL     1      -6.916   3.401 121.620  0.00  0.00    +0.000 A 
ATOM     15  C   UNL     1      -6.402   3.953 120.467  0.00  0.00    +0.000 A 
ATOM     16  C   UNL     1      -5.221   4.696 120.529  0.00  0.00    +0.000 A 
ATOM     17  C   UNL     1      -4.549   4.886 121.727  0.00  0.00    +0.000 A 
ATOM     18  C   UNL     1      -5.073   4.350 122.865  0.00  0.00    +0.000 A 
ENDBRANCH  12  13
BRANCH   2  19
ATOM     19  O   UNL     1      -8.406   0.188 123.711  0.00  0.00    +0.000 OA
BRANCH  19  20
ATOM     20  C   UNL     1      -7.117  -0.557 123.586  0.00  0.00    +0.000 C 
ATOM     21  C   UNL     1      -6.634  -0.991 124.920  0.00  0.00    +0.000 C 
ATOM     22  N   UNL     1      -6.520  -2.381 125.325  0.00  0.00    +0.000 NA
ATOM     23  C   UNL     1      -7.793  -3.057 125.028  0.00  0.00    +0.000 C 
ATOM     24  C   UNL     1      -8.164  -2.839 123.556  0.00  0.00    +0.000 C 
ATOM     25  C   UNL     1      -7.116  -1.926 122.872  0.00  0.00    +0.000 C 
ATOM     26  C   UNL     1      -5.683  -2.586 123.113  0.00  0.00    +0.000 C 
ATOM     27  C   UNL     1      -5.387  -2.853 124.599  0.00  0.00    +0.000 C 
ENDBRANCH  19  20
ENDBRANCH   2  19
TORSDOF 3
ENDMDL
MODEL 3
REMARK VINA RESULT:      -8.7      2.169      4.081
REMARK  Name = Solifenacin
REMARK  3 active torsions:
REMARK  status: ('A' for Active; 'I' for Inactive)
REMARK    1  A    between atoms: C_2  and  O_3
REMARK    2  A    between atoms: O_3  and  C_4
REMARK    3  A    between atoms: C_21  and  C_22
REMARK                            x       y       z     vdW  Elec       q    Type
REMARK                         _______ _______ _______ _____ _____    ______ ____
ROOT
ATOM      1  O   UNL     1      -8.602   5.129 127.964  0.00  0.00    +0.000 OA
ATOM      2  C   UNL     1      -9.060   5.025 129.088  0.00  0.00    +0.000 C 
ATOM      3  N   UNL     1      -8.241   4.486 130.125  0.00  0.00    +0.000 N 
ATOM      4  C   UNL     1      -6.851   4.977 130.162  0.00  0.00    +0.000 C 
ATOM      5  C   UNL     1      -5.956   4.468 131.315  0.00  0.00    +0.000 C 
ATOM      6  C   UNL     1      -6.695   4.400 132.625  0.00  0.00    +0.000 A 
ATOM      7  C   UNL     1      -6.052   4.707 133.834  0.00  0.00    +0.000 A 
ATOM      8  C   UNL     1      -6.780   4.875 135.011  0.00  0.00    +0.000 A 
ATOM      9  C   UNL     1      -8.154   4.697 134.996  0.00  0.00    +0.000 A 
ATOM     10  C   UNL     1      -8.767   4.204 133.836  0.00  0.00    +0.000 A 
ATOM     11  C   UNL     1      -8.051   4.048 132.620  0.00  0.00    +0.000 A 
ATOM     12  C   UNL     1      -8.683   3.631 131.258  0.00  0.00    +0.000 C 
ENDROOT
BRANCH  12  13
ATOM     13  C   UNL     1      -8.675   2.171 131.001  0.00  0.00    +0.000 A 
ATOM     14  C   UNL     1      -9.198   1.274 131.948  0.00  0.00    +0.000 A 
ATOM     15  C   UNL     1      -8.951  -0.072 131.783  0.00  0.00    +0.000 A 
ATOM     16  C   UNL     1      -8.242  -0.506 130.660  0.00  0.00    +0.000 A 
ATOM     17  C   UNL     1      -7.775   0.388 129.710  0.00  0.00    +0.000 A 
ATOM     18  C   UNL     1      -8.037   1.714 129.872  0.00  0.00    +0.000 A 
ENDBRANCH  12  13
BRANCH   2  19
ATOM     19  O   UNL     1     -10.344   5.548 129.308  0.00  0.00    +0.000 OA
BRANCH  19  20
ATOM     20  C   UNL     1     -10.944   6.805 129.847  0.00  0.00    +0.000 C 
ATOM     21  C   UNL     1     -10.791   7.915 128.875  0.00  0.00    +0.000 C 
ATOM     22  N   UNL     1     -11.906   8.568 128.212  0.00  0.00    +0.000 NA
ATOM     23  C   UNL     1     -12.772   7.531 127.630  0.00  0.00    +0.000 C 
ATOM     24  C   UNL     1     -13.164   6.516 128.711  0.00  0.00    +0.000 C 
ATOM     25  C   UNL     1     -12.473   6.871 130.051  0.00  0.00    +0.000 C 
ATOM     26  C   UNL     1     -12.842   8.387 130.387  0.00  0.00    +0.000 C 
ATOM     27  C   UNL     1     -12.497   9.357 129.243  0.00  0.00    +0.000 C 
ENDBRANCH  19  20
ENDBRANCH   2  19
TORSDOF 3
ENDMDL
MODEL 4
REMARK VINA RESULT:      -8.6      2.368      6.560
REMARK  Name = Solifenacin
REMARK  3 active torsions:
REMARK  status: ('A' for Active; 'I' for Inactive)
REMARK    1  A    between atoms: C_2  and  O_3
REMARK    2  A    between atoms: O_3  and  C_4
REMARK    3  A    between atoms: C_21  and  C_22
REMARK                            x       y       z     vdW  Elec       q    Type
REMARK                         _______ _______ _______ _____ _____    ______ ____
ROOT
ATOM      1  O   UNL     1      -8.370   3.477 127.428  0.00  0.00    +0.000 OA
ATOM      2  C   UNL     1      -7.985   4.214 128.319  0.00  0.00    +0.000 C 
ATOM      3  N   UNL     1      -8.693   4.235 129.558  0.00  0.00    +0.000 N 
ATOM      4  C   UNL     1      -9.089   2.919 130.092  0.00  0.00    +0.000 C 
ATOM      5  C   UNL     1      -9.795   2.902 131.467  0.00  0.00    +0.000 C 
ATOM      6  C   UNL     1      -9.185   3.879 132.435  0.00  0.00    +0.000 A 
ATOM      7  C   UNL     1      -9.085   3.576 133.802  0.00  0.00    +0.000 A 
ATOM      8  C   UNL     1      -8.317   4.366 134.658  0.00  0.00    +0.000 A 
ATOM      9  C   UNL     1      -7.677   5.488 134.160  0.00  0.00    +0.000 A 
ATOM     10  C   UNL     1      -7.934   5.897 132.844  0.00  0.00    +0.000 A 
ATOM     11  C   UNL     1      -8.692   5.097 131.948  0.00  0.00    +0.000 A 
ATOM     12  C   UNL     1      -8.915   5.414 130.439  0.00  0.00    +0.000 C 
ENDROOT
BRANCH  12  13
ATOM     13  C   UNL     1     -10.135   6.207 130.153  0.00  0.00    +0.000 A 
ATOM     14  C   UNL     1     -10.170   7.096 129.065  0.00  0.00    +0.000 A 
ATOM     15  C   UNL     1     -11.220   7.984 128.980  0.00  0.00    +0.000 A 
ATOM     16  C   UNL     1     -12.237   7.939 129.937  0.00  0.00    +0.000 A 
ATOM     17  C   UNL     1     -12.210   7.023 130.977  0.00  0.00    +0.000 A 
ATOM     18  C   UNL     1     -11.178   6.138 131.045  0.00  0.00    +0.000 A 
ENDBRANCH  12  13
BRANCH   2  19
ATOM     19  O   UNL     1      -6.792   4.919 128.096  0.00  0.00    +0.000 OA
BRANCH  19  20
ATOM     20  C   UNL     1      -5.327   4.688 128.271  0.00  0.00    +0.000 C 
ATOM     21  C   UNL     1      -5.044   3.244 128.457  0.00  0.00    +0.000 C 
ATOM     22  N   UNL     1      -4.286   2.441 127.514  0.00  0.00    +0.000 NA
ATOM     23  C   UNL     1      -4.841   2.656 126.168  0.00  0.00    +0.000 C 
ATOM     24  C   UNL     1      -4.881   4.157 125.858  0.00  0.00    +0.000 C 
ATOM     25  C   UNL     1      -4.383   4.968 127.081  0.00  0.00    +0.000 C 
ATOM     26  C   UNL     1      -2.944   4.399 127.472  0.00  0.00    +0.000 C 
ATOM     27  C   UNL     1      -2.941   2.878 127.702  0.00  0.00    +0.000 C 
ENDBRANCH  19  20
ENDBRANCH   2  19
TORSDOF 3
ENDMDL
MODEL 5
REMARK VINA RESULT:      -8.5      1.857      6.372
REMARK  Name = Solifenacin
REMARK  3 active torsions:
REMARK  status: ('A' for Active; 'I' for Inactive)
REMARK    1  A    between atoms: C_2  and  O_3
REMARK    2  A    between atoms: O_3  and  C_4
REMARK    3  A    between atoms: C_21  and  C_22
REMARK                            x       y       z     vdW  Elec       q    Type
REMARK                         _______ _______ _______ _____ _____    ______ ____
ROOT
ATOM      1  O   UNL     1      -8.182   3.461 127.350  0.00  0.00    +0.000 OA
ATOM      2  C   UNL     1      -7.817   4.183 128.262  0.00  0.00    +0.000 C 
ATOM      3  N   UNL     1      -8.583   4.222 129.466  0.00  0.00    +0.000 N 
ATOM      4  C   UNL     1      -9.042   2.917 129.974  0.00  0.00    +0.000 C 
ATOM      5  C   UNL     1      -9.813   2.916 131.315  0.00  0.00    +0.000 C 
ATOM      6  C   UNL     1      -9.221   3.873 132.315  0.00  0.00    +0.000 A 
ATOM      7  C   UNL     1      -9.194   3.563 133.683  0.00  0.00    +0.000 A 
ATOM      8  C   UNL     1      -8.445   4.326 134.578  0.00  0.00    +0.000 A 
ATOM      9  C   UNL     1      -7.749   5.431 134.116  0.00  0.00    +0.000 A 
ATOM     10  C   UNL     1      -7.931   5.850 132.791  0.00  0.00    +0.000 A 
ATOM     11  C   UNL     1      -8.670   5.077 131.856  0.00  0.00    +0.000 A 
ATOM     12  C   UNL     1      -8.811   5.404 130.340  0.00  0.00    +0.000 C 
ENDROOT
BRANCH  12  13
ATOM     13  C   UNL     1      -9.992   6.234 130.000  0.00  0.00    +0.000 A 
ATOM     14  C   UNL     1     -11.287   5.693 130.059  0.00  0.00    +0.000 A 
ATOM     15  C   UNL     1     -12.324   6.413 129.506  0.00  0.00    +0.000 A 
ATOM     16  C   UNL     1     -12.069   7.672 128.957  0.00  0.00    +0.000 A 
ATOM     17  C   UNL     1     -10.792   8.212 128.950  0.00  0.00    +0.000 A 
ATOM     18  C   UNL     1      -9.776   7.501 129.513  0.00  0.00    +0.000 A 
ENDBRANCH  12  13
BRANCH   2  19
ATOM     19  O   UNL     1      -6.595   4.854 128.098  0.00  0.00    +0.000 OA
BRANCH  19  20
ATOM     20  C   UNL     1      -5.152   4.599 128.388  0.00  0.00    +0.000 C 
ATOM     21  C   UNL     1      -4.303   5.651 127.775  0.00  0.00    +0.000 C 
ATOM     22  N   UNL     1      -3.507   6.593 128.541  0.00  0.00    +0.000 NA
ATOM     23  C   UNL     1      -4.367   7.203 129.568  0.00  0.00    +0.000 C 
ATOM     24  C   UNL     1      -5.044   6.103 130.395  0.00  0.00    +0.000 C 
ATOM     25  C   UNL     1      -4.656   4.707 129.846  0.00  0.00    +0.000 C 
ATOM     26  C   UNL     1      -3.062   4.638 129.812  0.00  0.00    +0.000 C 
ATOM     27  C   UNL     1      -2.426   5.802 129.032  0.00  0.00    +0.000 C 
ENDBRANCH  19  20
ENDBRANCH   2  19
TORSDOF 3
ENDMDL
MODEL 6
REMARK VINA RESULT:      -8.4      6.093      9.472
REMARK  Name = Solifenacin
REMARK  3 active torsions:
REMARK  status: ('A' for Active; 'I' for Inactive)
REMARK    1  A    between atoms: C_2  and  O_3
REMARK    2  A    between atoms: O_3  and  C_4
REMARK    3  A    between atoms: C_21  and  C_22
REMARK                            x       y       z     vdW  Elec       q    Type
REMARK                         _______ _______ _______ _____ _____    ______ ____
ROOT
ATOM      1  O   UNL     1      -7.206   0.691 128.396  0.00  0.00    +0.000 OA
ATOM      2  C   UNL     1      -6.635   1.154 127.424  0.00  0.00    +0.000 C 
ATOM      3  N   UNL     1      -7.249   1.046 126.140  0.00  0.00    +0.000 N 
ATOM      4  C   UNL     1      -8.694   1.339 126.096  0.00  0.00    +0.000 C 
ATOM      5  C   UNL     1      -9.376   1.302 124.709  0.00  0.00    +0.000 C 
ATOM      6  C   UNL     1      -8.519   1.912 123.633  0.00  0.00    +0.000 A 
ATOM      7  C   UNL     1      -9.090   2.652 122.587  0.00  0.00    +0.000 A 
ATOM      8  C   UNL     1      -8.297   3.411 121.727  0.00  0.00    +0.000 A 
ATOM      9  C   UNL     1      -6.921   3.403 121.884  0.00  0.00    +0.000 A 
ATOM     10  C   UNL     1      -6.341   2.517 122.802  0.00  0.00    +0.000 A 
ATOM     11  C   UNL     1      -7.129   1.752 123.703  0.00  0.00    +0.000 A 
ATOM     12  C   UNL     1      -6.563   0.845 124.837  0.00  0.00    +0.000 C 
ENDROOT
BRANCH  12  13
ATOM     13  C   UNL     1      -6.342  -0.566 124.439  0.00  0.00    +0.000 A 
ATOM     14  C   UNL     1      -5.699  -1.461 125.310  0.00  0.00    +0.000 A 
ATOM     15  C   UNL     1      -5.298  -2.683 124.814  0.00  0.00    +0.000 A 
ATOM     16  C   UNL     1      -5.589  -3.015 123.488  0.00  0.00    +0.000 A 
ATOM     17  C   UNL     1      -6.267  -2.138 122.656  0.00  0.00    +0.000 A 
ATOM     18  C   UNL     1      -6.674  -0.939 123.159  0.00  0.00    +0.000 A 
ENDBRANCH  12  13
BRANCH   2  19
ATOM     19  O   UNL     1      -5.446   1.863 127.658  0.00  0.00    +0.000 OA
BRANCH  19  20
ATOM     20  C   UNL     1      -5.047   3.261 127.997  0.00  0.00    +0.000 C 
ATOM     21  C   UNL     1      -3.670   3.291 128.551  0.00  0.00    +0.000 C 
ATOM     22  N   UNL     1      -2.549   3.939 127.895  0.00  0.00    +0.000 NA
ATOM     23  C   UNL     1      -2.499   3.479 126.497  0.00  0.00    +0.000 C 
ATOM     24  C   UNL     1      -3.861   3.703 125.829  0.00  0.00    +0.000 C 
ATOM     25  C   UNL     1      -4.869   4.283 126.854  0.00  0.00    +0.000 C 
ATOM     26  C   UNL     1      -4.205   5.590 127.483  0.00  0.00    +0.000 C 
ATOM     27  C   UNL     1      -2.809   5.329 128.076  0.00  0.00    +0.000 C 
ENDBRANCH  19  20
ENDBRANCH   2  19
TORSDOF 3
ENDMDL
MODEL 7
REMARK VINA RESULT:      -8.3      5.947      9.075
REMARK  Name = Solifenacin
REMARK  3 active torsions:
REMARK  status: ('A' for Active; 'I' for Inactive)
REMARK    1  A    between atoms: C_2  and  O_3
REMARK    2  A    between atoms: O_3  and  C_4
REMARK    3  A    between atoms: C_21  and  C_22
REMARK                            x       y       z     vdW  Elec       q    Type
REMARK                         _______ _______ _______ _____ _____    ______ ____
ROOT
ATOM      1  O   UNL     1      -8.297   2.733 127.575  0.00  0.00    +0.000 OA
ATOM      2  C   UNL     1      -7.421   1.962 127.227  0.00  0.00    +0.000 C 
ATOM      3  N   UNL     1      -7.772   0.808 126.465  0.00  0.00    +0.000 N 
ATOM      4  C   UNL     1      -8.745   1.030 125.379  0.00  0.00    +0.000 C 
ATOM      5  C   UNL     1      -9.094  -0.184 124.488  0.00  0.00    +0.000 C 
ATOM      6  C   UNL     1      -7.887  -1.024 124.167  0.00  0.00    +0.000 A 
ATOM      7  C   UNL     1      -7.746  -1.638 122.914  0.00  0.00    +0.000 A 
ATOM      8  C   UNL     1      -6.536  -2.215 122.529  0.00  0.00    +0.000 A 
ATOM      9  C   UNL     1      -5.469  -2.218 123.411  0.00  0.00    +0.000 A 
ATOM     10  C   UNL     1      -5.669  -1.779 124.728  0.00  0.00    +0.000 A 
ATOM     11  C   UNL     1      -6.884  -1.166 125.136  0.00  0.00    +0.000 A 
ATOM     12  C   UNL     1      -7.140  -0.536 126.538  0.00  0.00    +0.000 C 
ENDROOT
BRANCH  12  13
ATOM     13  C   UNL     1      -7.727  -1.469 127.530  0.00  0.00    +0.000 A 
ATOM     14  C   UNL     1      -7.567  -1.241 128.907  0.00  0.00    +0.000 A 
ATOM     15  C   UNL     1      -7.912  -2.249 129.782  0.00  0.00    +0.000 A 
ATOM     16  C   UNL     1      -8.457  -3.434 129.283  0.00  0.00    +0.000 A 
ATOM     17  C   UNL     1      -8.654  -3.623 127.924  0.00  0.00    +0.000 A 
ATOM     18  C   UNL     1      -8.325  -2.616 127.067  0.00  0.00    +0.000 A 
ENDBRANCH  12  13
BRANCH   2  19
ATOM     19  O   UNL     1      -6.096   2.326 127.516  0.00  0.00    +0.000 OA
BRANCH  19  20
ATOM     20  C   UNL     1      -5.365   3.540 127.988  0.00  0.00    +0.000 C 
ATOM     21  C   UNL     1      -4.061   3.163 128.588  0.00  0.00    +0.000 C 
ATOM     22  N   UNL     1      -2.776   3.541 128.027  0.00  0.00    +0.000 NA
ATOM     23  C   UNL     1      -2.771   3.190 126.597  0.00  0.00    +0.000 C 
ATOM     24  C   UNL     1      -3.989   3.815 125.907  0.00  0.00    +0.000 C 
ATOM     25  C   UNL     1      -4.866   4.561 126.944  0.00  0.00    +0.000 C 
ATOM     26  C   UNL     1      -3.920   5.596 127.706  0.00  0.00    +0.000 C 
ATOM     27  C   UNL     1      -2.674   4.933 128.320  0.00  0.00    +0.000 C 
ENDBRANCH  19  20
ENDBRANCH   2  19
TORSDOF 3
ENDMDL
MODEL 8
REMARK VINA RESULT:      -8.2      6.212      8.855
REMARK  Name = Solifenacin
REMARK  3 active torsions:
REMARK  status: ('A' for Active; 'I' for Inactive)
REMARK    1  A    between atoms: C_2  and  O_3
REMARK    2  A    between atoms: O_3  and  C_4
REMARK    3  A    between atoms: C_21  and  C_22
REMARK                            x       y       z     vdW  Elec       q    Type
REMARK                         _______ _______ _______ _____ _____    ______ ____
ROOT
ATOM      1  O   UNL     1      -4.838   0.784 128.484  0.00  0.00    +0.000 OA
ATOM      2  C   UNL     1      -5.525   0.325 129.380  0.00  0.00    +0.000 C 
ATOM      3  N   UNL     1      -5.600  -1.091 129.543  0.00  0.00    +0.000 N 
ATOM      4  C   UNL     1      -4.321  -1.817 129.429  0.00  0.00    +0.000 C 
ATOM      5  C   UNL     1      -4.356  -3.343 129.670  0.00  0.00    +0.000 C 
ATOM      6  C   UNL     1      -5.260  -3.721 130.812  0.00  0.00    +0.000 A 
ATOM      7  C   UNL     1      -4.933  -4.780 131.673  0.00  0.00    +0.000 A 
ATOM      8  C   UNL     1      -5.637  -4.984 132.860  0.00  0.00    +0.000 A 
ATOM      9  C   UNL     1      -6.699  -4.153 133.175  0.00  0.00    +0.000 A 
ATOM     10  C   UNL     1      -7.144  -3.222 132.227  0.00  0.00    +0.000 A 
ATOM     11  C   UNL     1      -6.431  -2.980 131.023  0.00  0.00    +0.000 A 
ATOM     12  C   UNL     1      -6.784  -1.877 129.981  0.00  0.00    +0.000 C 
ENDROOT
BRANCH  12  13
ATOM     13  C   UNL     1      -7.693  -2.325 128.899  0.00  0.00    +0.000 A 
ATOM     14  C   UNL     1      -8.379  -3.547 129.001  0.00  0.00    +0.000 A 
ATOM     15  C   UNL     1      -9.014  -4.038 127.881  0.00  0.00    +0.000 A 
ATOM     16  C   UNL     1      -9.003  -3.288 126.702  0.00  0.00    +0.000 A 
ATOM     17  C   UNL     1      -8.361  -2.061 126.632  0.00  0.00    +0.000 A 
ATOM     18  C   UNL     1      -7.750  -1.576 127.748  0.00  0.00    +0.000 A 
ENDBRANCH  12  13
BRANCH   2  19
ATOM     19  O   UNL     1      -6.116   1.239 130.266  0.00  0.00    +0.000 OA
BRANCH  19  20
ATOM     20  C   UNL     1      -7.218   1.241 131.274  0.00  0.00    +0.000 C 
ATOM     21  C   UNL     1      -7.250   2.529 132.010  0.00  0.00    +0.000 C 
ATOM     22  N   UNL     1      -8.348   3.476 131.931  0.00  0.00    +0.000 NA
ATOM     23  C   UNL     1      -8.650   3.721 130.511  0.00  0.00    +0.000 C 
ATOM     24  C   UNL     1      -8.892   2.387 129.796  0.00  0.00    +0.000 C 
ATOM     25  C   UNL     1      -8.679   1.208 130.779  0.00  0.00    +0.000 C 
ATOM     26  C   UNL     1      -9.616   1.472 132.044  0.00  0.00    +0.000 C 
ATOM     27  C   UNL     1      -9.387   2.853 132.683  0.00  0.00    +0.000 C 
ENDBRANCH  19  20
ENDBRANCH   2  19
TORSDOF 3
ENDMDL
MODEL 9
REMARK VINA RESULT:      -8.1      6.420      8.723
REMARK  Name = Solifenacin
REMARK  3 active torsions:
REMARK  status: ('A' for Active; 'I' for Inactive)
REMARK    1  A    between atoms: C_2  and  O_3
REMARK    2  A    between atoms: O_3  and  C_4
REMARK    3  A    between atoms: C_21  and  C_22
REMARK                            x       y       z     vdW  Elec       q    Type
REMARK                         _______ _______ _______ _____ _____    ______ ____
ROOT
ATOM      1  O   UNL     1      -8.962   1.748 127.927  0.00  0.00    +0.000 OA
ATOM      2  C   UNL     1      -7.920   1.322 127.460  0.00  0.00    +0.000 C 
ATOM      3  N   UNL     1      -7.879  -0.014 126.960  0.00  0.00    +0.000 N 
ATOM      4  C   UNL     1      -9.035  -0.428 126.143  0.00  0.00    +0.000 C 
ATOM      5  C   UNL     1      -8.989  -1.845 125.527  0.00  0.00    +0.000 C 
ATOM      6  C   UNL     1      -7.621  -2.199 125.008  0.00  0.00    +0.000 A 
ATOM      7  C   UNL     1      -7.466  -2.967 123.844  0.00  0.00    +0.000 A 
ATOM      8  C   UNL     1      -6.220  -3.099 123.232  0.00  0.00    +0.000 A 
ATOM      9  C   UNL     1      -5.112  -2.496 123.802  0.00  0.00    +0.000 A 
ATOM     10  C   UNL     1      -5.233  -1.894 125.063  0.00  0.00    +0.000 A 
ATOM     11  C   UNL     1      -6.494  -1.727 125.694  0.00  0.00    +0.000 A 
ATOM     12  C   UNL     1      -6.731  -0.957 127.028  0.00  0.00    +0.000 C 
ENDROOT
BRANCH  12  13
ATOM     13  C   UNL     1      -6.668  -1.804 128.243  0.00  0.00    +0.000 A 
ATOM     14  C   UNL     1      -5.450  -2.364 128.662  0.00  0.00    +0.000 A 
ATOM     15  C   UNL     1      -5.477  -3.333 129.642  0.00  0.00    +0.000 A 
ATOM     16  C   UNL     1      -6.697  -3.688 130.223  0.00  0.00    +0.000 A 
ATOM     17  C   UNL     1      -7.885  -3.091 129.831  0.00  0.00    +0.000 A 
ATOM     18  C   UNL     1      -7.847  -2.122 128.874  0.00  0.00    +0.000 A 
ENDBRANCH  12  13
BRANCH   2  19
ATOM     19  O   UNL     1      -6.851   2.224 127.349  0.00  0.00    +0.000 OA
BRANCH  19  20
ATOM     20  C   UNL     1      -6.116   2.933 126.260  0.00  0.00    +0.000 C 
ATOM     21  C   UNL     1      -6.263   2.209 124.973  0.00  0.00    +0.000 C 
ATOM     22  N   UNL     1      -6.957   2.748 123.817  0.00  0.00    +0.000 NA
ATOM     23  C   UNL     1      -8.276   3.234 124.253  0.00  0.00    +0.000 C 
ATOM     24  C   UNL     1      -8.108   4.211 125.422  0.00  0.00    +0.000 C 
ATOM     25  C   UNL     1      -6.612   4.325 125.812  0.00  0.00    +0.000 C 
ATOM     26  C   UNL     1      -5.807   4.713 124.490  0.00  0.00    +0.000 C 
ATOM     27  C   UNL     1      -6.065   3.745 123.322  0.00  0.00    +0.000 C 
ENDBRANCH  19  20
ENDBRANCH   2  19
TORSDOF 3
ENDMDL
