MODEL 1
REMARK VINA RESULT:      -9.2      0.000      0.000
REMARK  Name = Sonidegib
REMARK  9 active torsions:
REMARK  status: ('A' for Active; 'I' for Inactive)
REMARK    1  A    between atoms: C_2  and  C_3
REMARK    2  A    between atoms: N_5  and  C_11
REMARK    3  A    between atoms: C_7  and  C_9
REMARK    4  A    between atoms: C_14  and  N_15
REMARK    5  A    between atoms: C_16  and  C_18
REMARK    6  A    between atoms: C_22  and  C_25
REMARK    7  A    between atoms: C_23  and  C_24
REMARK    8  A    between atoms: C_28  and  O_29
REMARK    9  A    between atoms: O_29  and  C_30
REMARK                            x       y       z     vdW  Elec       q    Type
REMARK                         _______ _______ _______ _____ _____    ______ ____
ROOT
ATOM      1  N   UNL     1      -6.321  -0.542 134.073  0.00  0.00    +0.000 N 
ATOM      2  C   UNL     1      -6.876  -1.729 133.616  0.00  0.00    +0.000 C 
ATOM      3  O   UNL     1      -7.663  -2.342 134.365  0.00  0.00    +0.000 OA
ATOM      4  H   UNL     1      -5.949  -0.608 135.015  0.00  0.00    +0.000 HD
ENDROOT
BRANCH   2   5
ATOM      5  C   UNL     1      -6.482  -2.362 132.289  0.00  0.00    +0.000 A 
ATOM      6  C   UNL     1      -5.345  -3.202 132.284  0.00  0.00    +0.000 A 
ATOM      7  C   UNL     1      -4.948  -3.876 131.124  0.00  0.00    +0.000 A 
ATOM      8  C   UNL     1      -5.715  -3.777 129.968  0.00  0.00    +0.000 A 
ATOM      9  C   UNL     1      -6.827  -2.930 129.918  0.00  0.00    +0.000 A 
ATOM     10  C   UNL     1      -7.143  -2.136 131.050  0.00  0.00    +0.000 A 
ATOM     11  C   UNL     1      -8.181  -1.067 130.872  0.00  0.00    +0.000 C 
BRANCH   9  12
ATOM     12  C   UNL     1      -7.593  -2.813 128.666  0.00  0.00    +0.000 A 
ATOM     13  C   UNL     1      -7.284  -1.892 127.663  0.00  0.00    +0.000 A 
ATOM     14  C   UNL     1      -8.090  -1.820 126.519  0.00  0.00    +0.000 A 
ATOM     15  C   UNL     1      -9.095  -2.769 126.286  0.00  0.00    +0.000 A 
ATOM     16  C   UNL     1      -9.342  -3.737 127.244  0.00  0.00    +0.000 A 
ATOM     17  C   UNL     1      -8.665  -3.691 128.444  0.00  0.00    +0.000 A 
BRANCH  15  18
ATOM     18  O   UNL     1      -9.777  -2.663 125.108  0.00  0.00    +0.000 OA
BRANCH  18  19
ATOM     19  C   UNL     1      -9.185  -3.308 123.986  0.00  0.00    +0.000 C 
ATOM     20  F   UNL     1      -8.532  -2.420 123.201  0.00  0.00    +0.000 F 
ATOM     21  F   UNL     1      -8.327  -4.279 124.372  0.00  0.00    +0.000 F 
ATOM     22  F   UNL     1     -10.157  -3.881 123.247  0.00  0.00    +0.000 F 
ENDBRANCH  18  19
ENDBRANCH  15  18
ENDBRANCH   9  12
ENDBRANCH   2   5
BRANCH   1  26
ATOM     23  C   UNL     1      -6.377   2.586 131.311  0.00  0.00    +0.000 A 
ATOM     24  C   UNL     1      -7.204   2.626 132.438  0.00  0.00    +0.000 A 
ATOM     25  C   UNL     1      -7.047   1.727 133.498  0.00  0.00    +0.000 A 
ATOM     26  C   UNL     1      -6.140   0.674 133.352  0.00  0.00    +0.000 A 
ATOM     27  C   UNL     1      -5.320   0.701 132.207  0.00  0.00    +0.000 A 
ATOM     28  N   UNL     1      -5.435   1.623 131.188  0.00  0.00    +0.000 NA
BRANCH  23  32
ATOM     29  C   UNL     1      -8.825   4.443 129.610  0.00  0.00    +0.000 C 
ATOM     30  C   UNL     1      -9.828   3.515 130.279  0.00  0.00    +0.000 C 
ATOM     31  C   UNL     1      -7.576   4.656 130.483  0.00  0.00    +0.000 C 
ATOM     32  N   UNL     1      -6.612   3.566 130.359  0.00  0.00    +0.000 N 
ATOM     33  C   UNL     1      -6.300   3.184 128.976  0.00  0.00    +0.000 C 
ATOM     34  C   UNL     1      -7.579   2.944 128.156  0.00  0.00    +0.000 C 
ATOM     35  C   UNL     1      -8.228   1.595 128.453  0.00  0.00    +0.000 C 
ATOM     36  O   UNL     1      -8.509   4.036 128.262  0.00  0.00    +0.000 OA
ENDBRANCH  23  32
ENDBRANCH   1  26
TORSDOF 6
ENDMDL
MODEL 2
REMARK VINA RESULT:      -9.0      1.237      2.194
REMARK  Name = Sonidegib
REMARK  9 active torsions:
REMARK  status: ('A' for Active; 'I' for Inactive)
REMARK    1  A    between atoms: C_2  and  C_3
REMARK    2  A    between atoms: N_5  and  C_11
REMARK    3  A    between atoms: C_7  and  C_9
REMARK    4  A    between atoms: C_14  and  N_15
REMARK    5  A    between atoms: C_16  and  C_18
REMARK    6  A    between atoms: C_22  and  C_25
REMARK    7  A    between atoms: C_23  and  C_24
REMARK    8  A    between atoms: C_28  and  O_29
REMARK    9  A    between atoms: O_29  and  C_30
REMARK                            x       y       z     vdW  Elec       q    Type
REMARK                         _______ _______ _______ _____ _____    ______ ____
ROOT
ATOM      1  N   UNL     1      -6.264  -0.520 134.073  0.00  0.00    +0.000 N 
ATOM      2  C   UNL     1      -6.858  -1.695 133.634  0.00  0.00    +0.000 C 
ATOM      3  O   UNL     1      -7.668  -2.267 134.390  0.00  0.00    +0.000 OA
ATOM      4  H   UNL     1      -5.897  -0.582 135.017  0.00  0.00    +0.000 HD
ENDROOT
BRANCH   2   5
ATOM      5  C   UNL     1      -6.481  -2.364 132.320  0.00  0.00    +0.000 A 
ATOM      6  C   UNL     1      -5.382  -3.253 132.336  0.00  0.00    +0.000 A 
ATOM      7  C   UNL     1      -5.007  -3.961 131.190  0.00  0.00    +0.000 A 
ATOM      8  C   UNL     1      -5.759  -3.846 130.026  0.00  0.00    +0.000 A 
ATOM      9  C   UNL     1      -6.833  -2.952 129.954  0.00  0.00    +0.000 A 
ATOM     10  C   UNL     1      -7.123  -2.128 131.073  0.00  0.00    +0.000 A 
ATOM     11  C   UNL     1      -8.112  -1.018 130.870  0.00  0.00    +0.000 C 
BRANCH   9  12
ATOM     12  C   UNL     1      -7.584  -2.821 128.695  0.00  0.00    +0.000 A 
ATOM     13  C   UNL     1      -7.248  -1.905 127.696  0.00  0.00    +0.000 A 
ATOM     14  C   UNL     1      -8.042  -1.818 126.543  0.00  0.00    +0.000 A 
ATOM     15  C   UNL     1      -9.060  -2.749 126.299  0.00  0.00    +0.000 A 
ATOM     16  C   UNL     1      -9.334  -3.713 127.254  0.00  0.00    +0.000 A 
ATOM     17  C   UNL     1      -8.669  -3.679 128.461  0.00  0.00    +0.000 A 
BRANCH  15  18
ATOM     18  O   UNL     1      -9.728  -2.630 125.115  0.00  0.00    +0.000 OA
BRANCH  18  19
ATOM     19  C   UNL     1      -9.162  -3.325 124.009  0.00  0.00    +0.000 C 
ATOM     20  F   UNL     1      -8.335  -4.311 124.424  0.00  0.00    +0.000 F 
ATOM     21  F   UNL     1     -10.123  -3.851 123.215  0.00  0.00    +0.000 F 
ATOM     22  F   UNL     1      -8.440  -2.458 123.269  0.00  0.00    +0.000 F 
ENDBRANCH  18  19
ENDBRANCH  15  18
ENDBRANCH   9  12
ENDBRANCH   2   5
BRANCH   1  26
ATOM     23  C   UNL     1      -6.009   2.473 131.175  0.00  0.00    +0.000 A 
ATOM     24  C   UNL     1      -7.048   2.485 132.111  0.00  0.00    +0.000 A 
ATOM     25  C   UNL     1      -7.037   1.648 133.232  0.00  0.00    +0.000 A 
ATOM     26  C   UNL     1      -6.039   0.677 133.331  0.00  0.00    +0.000 A 
ATOM     27  C   UNL     1      -5.009   0.730 132.372  0.00  0.00    +0.000 A 
ATOM     28  N   UNL     1      -4.988   1.594 131.298  0.00  0.00    +0.000 NA
BRANCH  23  32
ATOM     29  C   UNL     1      -4.327   4.840 129.201  0.00  0.00    +0.000 C 
ATOM     30  C   UNL     1      -3.162   4.640 130.158  0.00  0.00    +0.000 C 
ATOM     31  C   UNL     1      -5.167   3.561 129.049  0.00  0.00    +0.000 C 
ATOM     32  N   UNL     1      -6.125   3.387 130.139  0.00  0.00    +0.000 N 
ATOM     33  C   UNL     1      -6.926   4.579 130.441  0.00  0.00    +0.000 C 
ATOM     34  C   UNL     1      -6.039   5.822 130.622  0.00  0.00    +0.000 C 
ATOM     35  C   UNL     1      -5.344   5.861 131.981  0.00  0.00    +0.000 C 
ATOM     36  O   UNL     1      -5.119   6.001 129.531  0.00  0.00    +0.000 OA
ENDBRANCH  23  32
ENDBRANCH   1  26
TORSDOF 6
ENDMDL
MODEL 3
REMARK VINA RESULT:      -8.8      3.956      7.016
REMARK  Name = Sonidegib
REMARK  9 active torsions:
REMARK  status: ('A' for Active; 'I' for Inactive)
REMARK    1  A    between atoms: C_2  and  C_3
REMARK    2  A    between atoms: N_5  and  C_11
REMARK    3  A    between atoms: C_7  and  C_9
REMARK    4  A    between atoms: C_14  and  N_15
REMARK    5  A    between atoms: C_16  and  C_18
REMARK    6  A    between atoms: C_22  and  C_25
REMARK    7  A    between atoms: C_23  and  C_24
REMARK    8  A    between atoms: C_28  and  O_29
REMARK    9  A    between atoms: O_29  and  C_30
REMARK                            x       y       z     vdW  Elec       q    Type
REMARK                         _______ _______ _______ _____ _____    ______ ____
ROOT
ATOM      1  N   UNL     1      -9.386   1.739 123.794  0.00  0.00    +0.000 N 
ATOM      2  C   UNL     1      -9.715   0.492 123.281  0.00  0.00    +0.000 C 
ATOM      3  O   UNL     1     -10.635   0.420 122.442  0.00  0.00    +0.000 OA
ATOM      4  H   UNL     1     -10.193   2.277 124.094  0.00  0.00    +0.000 HD
ENDROOT
BRANCH   2   5
ATOM      5  C   UNL     1      -9.073  -0.795 123.779  0.00  0.00    +0.000 A 
ATOM      6  C   UNL     1      -8.683  -1.743 122.805  0.00  0.00    +0.000 A 
ATOM      7  C   UNL     1      -8.027  -2.925 123.167  0.00  0.00    +0.000 A 
ATOM      8  C   UNL     1      -7.690  -3.151 124.498  0.00  0.00    +0.000 A 
ATOM      9  C   UNL     1      -8.086  -2.257 125.498  0.00  0.00    +0.000 A 
ATOM     10  C   UNL     1      -8.877  -1.132 125.147  0.00  0.00    +0.000 A 
ATOM     11  C   UNL     1      -9.487  -0.344 126.268  0.00  0.00    +0.000 C 
BRANCH   9  12
ATOM     12  C   UNL     1      -7.752  -2.546 126.902  0.00  0.00    +0.000 A 
ATOM     13  C   UNL     1      -8.586  -3.275 127.753  0.00  0.00    +0.000 A 
ATOM     14  C   UNL     1      -8.209  -3.471 129.089  0.00  0.00    +0.000 A 
ATOM     15  C   UNL     1      -6.936  -3.097 129.539  0.00  0.00    +0.000 A 
ATOM     16  C   UNL     1      -6.075  -2.451 128.668  0.00  0.00    +0.000 A 
ATOM     17  C   UNL     1      -6.521  -2.103 127.410  0.00  0.00    +0.000 A 
BRANCH  15  18
ATOM     18  O   UNL     1      -6.632  -3.397 130.836  0.00  0.00    +0.000 OA
BRANCH  18  19
ATOM     19  C   UNL     1      -5.710  -4.464 131.028  0.00  0.00    +0.000 C 
ATOM     20  F   UNL     1      -6.002  -5.512 130.224  0.00  0.00    +0.000 F 
ATOM     21  F   UNL     1      -4.439  -4.064 130.797  0.00  0.00    +0.000 F 
ATOM     22  F   UNL     1      -5.788  -4.886 132.307  0.00  0.00    +0.000 F 
ENDBRANCH  18  19
ENDBRANCH  15  18
ENDBRANCH   9  12
ENDBRANCH   2   5
BRANCH   1  26
ATOM     23  C   UNL     1      -5.842   3.244 125.404  0.00  0.00    +0.000 A 
ATOM     24  C   UNL     1      -5.922   1.906 125.002  0.00  0.00    +0.000 A 
ATOM     25  C   UNL     1      -6.998   1.428 124.248  0.00  0.00    +0.000 A 
ATOM     26  C   UNL     1      -8.086   2.276 124.023  0.00  0.00    +0.000 A 
ATOM     27  C   UNL     1      -7.936   3.616 124.431  0.00  0.00    +0.000 A 
ATOM     28  N   UNL     1      -6.849   4.103 125.124  0.00  0.00    +0.000 NA
BRANCH  23  32
ATOM     29  C   UNL     1      -3.792   2.495 128.155  0.00  0.00    +0.000 C 
ATOM     30  C   UNL     1      -4.884   1.516 128.556  0.00  0.00    +0.000 C 
ATOM     31  C   UNL     1      -3.704   2.657 126.628  0.00  0.00    +0.000 C 
ATOM     32  N   UNL     1      -4.698   3.592 126.106  0.00  0.00    +0.000 N 
ATOM     33  C   UNL     1      -4.769   4.869 126.826  0.00  0.00    +0.000 C 
ATOM     34  C   UNL     1      -4.895   4.654 128.344  0.00  0.00    +0.000 C 
ATOM     35  C   UNL     1      -6.305   4.257 128.771  0.00  0.00    +0.000 C 
ATOM     36  O   UNL     1      -3.894   3.754 128.852  0.00  0.00    +0.000 OA
ENDBRANCH  23  32
ENDBRANCH   1  26
TORSDOF 6
ENDMDL
MODEL 4
REMARK VINA RESULT:      -8.7      3.845      6.545
REMARK  Name = Sonidegib
REMARK  9 active torsions:
REMARK  status: ('A' for Active; 'I' for Inactive)
REMARK    1  A    between atoms: C_2  and  C_3
REMARK    2  A    between atoms: N_5  and  C_11
REMARK    3  A    between atoms: C_7  and  C_9
REMARK    4  A    between atoms: C_14  and  N_15
REMARK    5  A    between atoms: C_16  and  C_18
REMARK    6  A    between atoms: C_22  and  C_25
REMARK    7  A    between atoms: C_23  and  C_24
REMARK    8  A    between atoms: C_28  and  O_29
REMARK    9  A    between atoms: O_29  and  C_30
REMARK                            x       y       z     vdW  Elec       q    Type
REMARK                         _______ _______ _______ _____ _____    ______ ____
ROOT
ATOM      1  N   UNL     1      -7.157   0.089 125.484  0.00  0.00    +0.000 N 
ATOM      2  C   UNL     1      -6.722  -1.204 125.739  0.00  0.00    +0.000 C 
ATOM      3  O   UNL     1      -5.843  -1.690 124.998  0.00  0.00    +0.000 OA
ATOM      4  H   UNL     1      -7.374   0.256 124.507  0.00  0.00    +0.000 HD
ENDROOT
BRANCH   2   5
ATOM      5  C   UNL     1      -7.346  -2.083 126.812  0.00  0.00    +0.000 A 
ATOM      6  C   UNL     1      -8.522  -2.790 126.469  0.00  0.00    +0.000 A 
ATOM      7  C   UNL     1      -9.126  -3.671 127.372  0.00  0.00    +0.000 A 
ATOM      8  C   UNL     1      -8.533  -3.914 128.607  0.00  0.00    +0.000 A 
ATOM      9  C   UNL     1      -7.390  -3.211 129.002  0.00  0.00    +0.000 A 
ATOM     10  C   UNL     1      -6.861  -2.212 128.143  0.00  0.00    +0.000 A 
ATOM     11  C   UNL     1      -5.797  -1.317 128.705  0.00  0.00    +0.000 C 
BRANCH   9  12
ATOM     12  C   UNL     1      -6.811  -3.458 130.332  0.00  0.00    +0.000 A 
ATOM     13  C   UNL     1      -7.271  -2.836 131.495  0.00  0.00    +0.000 A 
ATOM     14  C   UNL     1      -6.636  -3.098 132.717  0.00  0.00    +0.000 A 
ATOM     15  C   UNL     1      -5.663  -4.100 132.821  0.00  0.00    +0.000 A 
ATOM     16  C   UNL     1      -5.270  -4.779 131.680  0.00  0.00    +0.000 A 
ATOM     17  C   UNL     1      -5.770  -4.391 130.455  0.00  0.00    +0.000 A 
BRANCH  15  18
ATOM     18  O   UNL     1      -5.156  -4.335 134.066  0.00  0.00    +0.000 OA
BRANCH  18  19
ATOM     19  C   UNL     1      -5.516  -5.577 134.660  0.00  0.00    +0.000 C 
ATOM     20  F   UNL     1      -6.748  -5.970 134.263  0.00  0.00    +0.000 F 
ATOM     21  F   UNL     1      -4.620  -6.545 134.359  0.00  0.00    +0.000 F 
ATOM     22  F   UNL     1      -5.536  -5.433 136.001  0.00  0.00    +0.000 F 
ENDBRANCH  18  19
ENDBRANCH  15  18
ENDBRANCH   9  12
ENDBRANCH   2   5
BRANCH   1  26
ATOM     23  C   UNL     1      -7.912   2.391 128.883  0.00  0.00    +0.000 A 
ATOM     24  C   UNL     1      -6.615   2.299 128.367  0.00  0.00    +0.000 A 
ATOM     25  C   UNL     1      -6.361   1.740 127.111  0.00  0.00    +0.000 A 
ATOM     26  C   UNL     1      -7.413   1.127 126.426  0.00  0.00    +0.000 A 
ATOM     27  C   UNL     1      -8.699   1.273 126.984  0.00  0.00    +0.000 A 
ATOM     28  N   UNL     1      -8.958   1.876 128.196  0.00  0.00    +0.000 NA
BRANCH  23  32
ATOM     29  C   UNL     1      -6.834   2.401 132.225  0.00  0.00    +0.000 C 
ATOM     30  C   UNL     1      -6.140   1.092 131.884  0.00  0.00    +0.000 C 
ATOM     31  C   UNL     1      -6.913   3.338 131.007  0.00  0.00    +0.000 C 
ATOM     32  N   UNL     1      -8.024   3.010 130.118  0.00  0.00    +0.000 N 
ATOM     33  C   UNL     1      -9.312   2.825 130.797  0.00  0.00    +0.000 C 
ATOM     34  C   UNL     1      -9.191   1.851 131.981  0.00  0.00    +0.000 C 
ATOM     35  C   UNL     1      -9.135   0.390 131.543  0.00  0.00    +0.000 C 
ATOM     36  O   UNL     1      -8.111   2.199 132.866  0.00  0.00    +0.000 OA
ENDBRANCH  23  32
ENDBRANCH   1  26
TORSDOF 6
ENDMDL
MODEL 5
REMARK VINA RESULT:      -8.7      4.826      8.354
REMARK  Name = Sonidegib
REMARK  9 active torsions:
REMARK  status: ('A' for Active; 'I' for Inactive)
REMARK    1  A    between atoms: C_2  and  C_3
REMARK    2  A    between atoms: N_5  and  C_11
REMARK    3  A    between atoms: C_7  and  C_9
REMARK    4  A    between atoms: C_14  and  N_15
REMARK    5  A    between atoms: C_16  and  C_18
REMARK    6  A    between atoms: C_22  and  C_25
REMARK    7  A    between atoms: C_23  and  C_24
REMARK    8  A    between atoms: C_28  and  O_29
REMARK    9  A    between atoms: O_29  and  C_30
REMARK                            x       y       z     vdW  Elec       q    Type
REMARK                         _______ _______ _______ _____ _____    ______ ____
ROOT
ATOM      1  N   UNL     1      -5.308   0.659 129.530  0.00  0.00    +0.000 N 
ATOM      2  C   UNL     1      -5.771   1.684 130.343  0.00  0.00    +0.000 C 
ATOM      3  O   UNL     1      -4.950   2.528 130.758  0.00  0.00    +0.000 OA
ATOM      4  H   UNL     1      -4.473   0.206 129.888  0.00  0.00    +0.000 HD
ENDROOT
BRANCH   2   5
ATOM      5  C   UNL     1      -7.210   1.759 130.831  0.00  0.00    +0.000 A 
ATOM      6  C   UNL     1      -7.741   0.612 131.463  0.00  0.00    +0.000 A 
ATOM      7  C   UNL     1      -9.033   0.613 132.000  0.00  0.00    +0.000 A 
ATOM      8  C   UNL     1      -9.793   1.778 131.975  0.00  0.00    +0.000 A 
ATOM      9  C   UNL     1      -9.321   2.926 131.330  0.00  0.00    +0.000 A 
ATOM     10  C   UNL     1      -8.071   2.879 130.659  0.00  0.00    +0.000 A 
ATOM     11  C   UNL     1      -7.720   4.040 129.776  0.00  0.00    +0.000 C 
BRANCH   9  12
ATOM     12  C   UNL     1     -10.167   4.130 131.283  0.00  0.00    +0.000 A 
ATOM     13  C   UNL     1      -9.979   5.230 132.122  0.00  0.00    +0.000 A 
ATOM     14  C   UNL     1     -10.856   6.320 132.039  0.00  0.00    +0.000 A 
ATOM     15  C   UNL     1     -11.809   6.400 131.014  0.00  0.00    +0.000 A 
ATOM     16  C   UNL     1     -11.935   5.345 130.127  0.00  0.00    +0.000 A 
ATOM     17  C   UNL     1     -11.191   4.201 130.326  0.00  0.00    +0.000 A 
BRANCH  15  18
ATOM     18  O   UNL     1     -12.566   7.535 130.969  0.00  0.00    +0.000 OA
BRANCH  18  19
ATOM     19  C   UNL     1     -12.387   8.357 129.821  0.00  0.00    +0.000 C 
ATOM     20  F   UNL     1     -11.091   8.378 129.433  0.00  0.00    +0.000 F 
ATOM     21  F   UNL     1     -13.155   7.937 128.790  0.00  0.00    +0.000 F 
ATOM     22  F   UNL     1     -12.752   9.620 130.124  0.00  0.00    +0.000 F 
ENDBRANCH  18  19
ENDBRANCH  15  18
ENDBRANCH   9  12
ENDBRANCH   2   5
BRANCH   1  26
ATOM     23  C   UNL     1      -7.892  -0.865 126.629  0.00  0.00    +0.000 A 
ATOM     24  C   UNL     1      -7.549   0.491 126.625  0.00  0.00    +0.000 A 
ATOM     25  C   UNL     1      -6.514   0.990 127.423  0.00  0.00    +0.000 A 
ATOM     26  C   UNL     1      -5.915   0.136 128.351  0.00  0.00    +0.000 A 
ATOM     27  C   UNL     1      -6.285  -1.222 128.291  0.00  0.00    +0.000 A 
ATOM     28  N   UNL     1      -7.265  -1.726 127.463  0.00  0.00    +0.000 NA
BRANCH  23  32
ATOM     29  C   UNL     1      -9.003  -3.276 124.329  0.00  0.00    +0.000 C 
ATOM     30  C   UNL     1      -7.624  -3.896 124.489  0.00  0.00    +0.000 C 
ATOM     31  C   UNL     1      -9.464  -2.573 125.617  0.00  0.00    +0.000 C 
ATOM     32  N   UNL     1      -8.904  -1.231 125.755  0.00  0.00    +0.000 N 
ATOM     33  C   UNL     1      -9.029  -0.393 124.556  0.00  0.00    +0.000 C 
ATOM     34  C   UNL     1      -8.519  -1.125 123.302  0.00  0.00    +0.000 C 
ATOM     35  C   UNL     1      -6.996  -1.149 123.209  0.00  0.00    +0.000 C 
ATOM     36  O   UNL     1      -9.099  -2.434 123.161  0.00  0.00    +0.000 OA
ENDBRANCH  23  32
ENDBRANCH   1  26
TORSDOF 6
ENDMDL
MODEL 6
REMARK VINA RESULT:      -8.6      3.906      7.699
REMARK  Name = Sonidegib
REMARK  9 active torsions:
REMARK  status: ('A' for Active; 'I' for Inactive)
REMARK    1  A    between atoms: C_2  and  C_3
REMARK    2  A    between atoms: N_5  and  C_11
REMARK    3  A    between atoms: C_7  and  C_9
REMARK    4  A    between atoms: C_14  and  N_15
REMARK    5  A    between atoms: C_16  and  C_18
REMARK    6  A    between atoms: C_22  and  C_25
REMARK    7  A    between atoms: C_23  and  C_24
REMARK    8  A    between atoms: C_28  and  O_29
REMARK    9  A    between atoms: O_29  and  C_30
REMARK                            x       y       z     vdW  Elec       q    Type
REMARK                         _______ _______ _______ _____ _____    ______ ____
ROOT
ATOM      1  N   UNL     1      -8.074   4.009 125.015  0.00  0.00    +0.000 N 
ATOM      2  C   UNL     1      -7.823   4.054 126.379  0.00  0.00    +0.000 C 
ATOM      3  O   UNL     1      -8.455   4.876 127.071  0.00  0.00    +0.000 OA
ATOM      4  H   UNL     1      -8.078   4.925 124.576  0.00  0.00    +0.000 HD
ENDROOT
BRANCH   2   5
ATOM      5  C   UNL     1      -6.737   3.217 127.041  0.00  0.00    +0.000 A 
ATOM      6  C   UNL     1      -5.415   3.716 126.995  0.00  0.00    +0.000 A 
ATOM      7  C   UNL     1      -4.366   3.047 127.633  0.00  0.00    +0.000 A 
ATOM      8  C   UNL     1      -4.626   1.905 128.384  0.00  0.00    +0.000 A 
ATOM      9  C   UNL     1      -5.913   1.357 128.429  0.00  0.00    +0.000 A 
ATOM     10  C   UNL     1      -6.947   1.955 127.663  0.00  0.00    +0.000 A 
ATOM     11  C   UNL     1      -8.237   1.199 127.540  0.00  0.00    +0.000 C 
BRANCH   9  12
ATOM     12  C   UNL     1      -6.148   0.123 129.196  0.00  0.00    +0.000 A 
ATOM     13  C   UNL     1      -6.598   0.118 130.518  0.00  0.00    +0.000 A 
ATOM     14  C   UNL     1      -6.758  -1.102 131.189  0.00  0.00    +0.000 A 
ATOM     15  C   UNL     1      -6.639  -2.319 130.506  0.00  0.00    +0.000 A 
ATOM     16  C   UNL     1      -6.277  -2.310 129.170  0.00  0.00    +0.000 A 
ATOM     17  C   UNL     1      -5.948  -1.115 128.566  0.00  0.00    +0.000 A 
BRANCH  15  18
ATOM     18  O   UNL     1      -6.887  -3.453 131.226  0.00  0.00    +0.000 OA
BRANCH  18  19
ATOM     19  C   UNL     1      -5.770  -4.307 131.445  0.00  0.00    +0.000 C 
ATOM     20  F   UNL     1      -5.659  -5.228 130.460  0.00  0.00    +0.000 F 
ATOM     21  F   UNL     1      -4.619  -3.601 131.528  0.00  0.00    +0.000 F 
ATOM     22  F   UNL     1      -5.940  -4.962 132.611  0.00  0.00    +0.000 F 
ENDBRANCH  18  19
ENDBRANCH  15  18
ENDBRANCH   9  12
ENDBRANCH   2   5
BRANCH   1  26
ATOM     23  C   UNL     1      -8.096   0.178 123.360  0.00  0.00    +0.000 A 
ATOM     24  C   UNL     1      -9.257   0.704 123.937  0.00  0.00    +0.000 A 
ATOM     25  C   UNL     1      -9.359   2.054 124.285  0.00  0.00    +0.000 A 
ATOM     26  C   UNL     1      -8.219   2.857 124.189  0.00  0.00    +0.000 A 
ATOM     27  C   UNL     1      -7.089   2.278 123.578  0.00  0.00    +0.000 A 
ATOM     28  N   UNL     1      -7.007   0.961 123.181  0.00  0.00    +0.000 NA
BRANCH  23  32
ATOM     29  C   UNL     1      -8.630  -3.086 124.539  0.00  0.00    +0.000 C 
ATOM     30  C   UNL     1      -8.637  -2.460 125.925  0.00  0.00    +0.000 C 
ATOM     31  C   UNL     1      -9.164  -2.115 123.472  0.00  0.00    +0.000 C 
ATOM     32  N   UNL     1      -8.150  -1.165 123.021  0.00  0.00    +0.000 N 
ATOM     33  C   UNL     1      -6.862  -1.773 122.666  0.00  0.00    +0.000 C 
ATOM     34  C   UNL     1      -6.352  -2.704 123.779  0.00  0.00    +0.000 C 
ATOM     35  C   UNL     1      -5.744  -1.944 124.954  0.00  0.00    +0.000 C 
ATOM     36  O   UNL     1      -7.349  -3.654 124.196  0.00  0.00    +0.000 OA
ENDBRANCH  23  32
ENDBRANCH   1  26
TORSDOF 6
ENDMDL
MODEL 7
REMARK VINA RESULT:      -8.5      2.252      3.059
REMARK  Name = Sonidegib
REMARK  9 active torsions:
REMARK  status: ('A' for Active; 'I' for Inactive)
REMARK    1  A    between atoms: C_2  and  C_3
REMARK    2  A    between atoms: N_5  and  C_11
REMARK    3  A    between atoms: C_7  and  C_9
REMARK    4  A    between atoms: C_14  and  N_15
REMARK    5  A    between atoms: C_16  and  C_18
REMARK    6  A    between atoms: C_22  and  C_25
REMARK    7  A    between atoms: C_23  and  C_24
REMARK    8  A    between atoms: C_28  and  O_29
REMARK    9  A    between atoms: O_29  and  C_30
REMARK                            x       y       z     vdW  Elec       q    Type
REMARK                         _______ _______ _______ _____ _____    ______ ____
ROOT
ATOM      1  N   UNL     1      -7.960   1.604 132.274  0.00  0.00    +0.000 N 
ATOM      2  C   UNL     1      -8.679   0.524 131.780  0.00  0.00    +0.000 C 
ATOM      3  O   UNL     1      -9.917   0.517 131.933  0.00  0.00    +0.000 OA
ATOM      4  H   UNL     1      -8.209   1.852 133.226  0.00  0.00    +0.000 HD
ENDROOT
BRANCH   2   5
ATOM      5  C   UNL     1      -8.009  -0.692 131.158  0.00  0.00    +0.000 A 
ATOM      6  C   UNL     1      -7.528  -1.689 132.038  0.00  0.00    +0.000 A 
ATOM      7  C   UNL     1      -6.957  -2.870 131.552  0.00  0.00    +0.000 A 
ATOM      8  C   UNL     1      -6.916  -3.108 130.182  0.00  0.00    +0.000 A 
ATOM      9  C   UNL     1      -7.348  -2.135 129.275  0.00  0.00    +0.000 A 
ATOM     10  C   UNL     1      -7.792  -0.880 129.765  0.00  0.00    +0.000 A 
ATOM     11  C   UNL     1      -8.007   0.213 128.760  0.00  0.00    +0.000 C 
BRANCH   9  12
ATOM     12  C   UNL     1      -7.251  -2.399 127.830  0.00  0.00    +0.000 A 
ATOM     13  C   UNL     1      -8.333  -2.823 127.055  0.00  0.00    +0.000 A 
ATOM     14  C   UNL     1      -8.144  -3.091 125.692  0.00  0.00    +0.000 A 
ATOM     15  C   UNL     1      -6.935  -2.777 125.058  0.00  0.00    +0.000 A 
ATOM     16  C   UNL     1      -5.889  -2.273 125.813  0.00  0.00    +0.000 A 
ATOM     17  C   UNL     1      -6.025  -2.183 127.183  0.00  0.00    +0.000 A 
BRANCH  15  18
ATOM     18  O   UNL     1      -6.871  -3.003 123.714  0.00  0.00    +0.000 OA
BRANCH  18  19
ATOM     19  C   UNL     1      -7.099  -1.871 122.881  0.00  0.00    +0.000 C 
ATOM     20  F   UNL     1      -7.421  -0.782 123.616  0.00  0.00    +0.000 F 
ATOM     21  F   UNL     1      -6.015  -1.593 122.121  0.00  0.00    +0.000 F 
ATOM     22  F   UNL     1      -8.131  -2.135 122.054  0.00  0.00    +0.000 F 
ENDBRANCH  18  19
ENDBRANCH  15  18
ENDBRANCH   9  12
ENDBRANCH   2   5
BRANCH   1  26
ATOM     23  C   UNL     1      -5.112   3.152 129.645  0.00  0.00    +0.000 A 
ATOM     24  C   UNL     1      -6.266   3.883 129.945  0.00  0.00    +0.000 A 
ATOM     25  C   UNL     1      -7.120   3.514 130.989  0.00  0.00    +0.000 A 
ATOM     26  C   UNL     1      -6.889   2.303 131.645  0.00  0.00    +0.000 A 
ATOM     27  C   UNL     1      -5.699   1.623 131.316  0.00  0.00    +0.000 A 
ATOM     28  N   UNL     1      -4.826   2.018 130.325  0.00  0.00    +0.000 NA
BRANCH  23  32
ATOM     29  C   UNL     1      -5.119   4.539 126.418  0.00  0.00    +0.000 C 
ATOM     30  C   UNL     1      -6.601   4.197 126.400  0.00  0.00    +0.000 C 
ATOM     31  C   UNL     1      -4.625   4.859 127.840  0.00  0.00    +0.000 C 
ATOM     32  N   UNL     1      -4.332   3.657 128.616  0.00  0.00    +0.000 N 
ATOM     33  C   UNL     1      -3.501   2.670 127.917  0.00  0.00    +0.000 C 
ATOM     34  C   UNL     1      -4.056   2.354 126.518  0.00  0.00    +0.000 C 
ATOM     35  C   UNL     1      -5.258   1.414 126.557  0.00  0.00    +0.000 C 
ATOM     36  O   UNL     1      -4.314   3.543 125.752  0.00  0.00    +0.000 OA
ENDBRANCH  23  32
ENDBRANCH   1  26
TORSDOF 6
ENDMDL
MODEL 8
REMARK VINA RESULT:      -8.4      4.857      8.162
REMARK  Name = Sonidegib
REMARK  9 active torsions:
REMARK  status: ('A' for Active; 'I' for Inactive)
REMARK    1  A    between atoms: C_2  and  C_3
REMARK    2  A    between atoms: N_5  and  C_11
REMARK    3  A    between atoms: C_7  and  C_9
REMARK    4  A    between atoms: C_14  and  N_15
REMARK    5  A    between atoms: C_16  and  C_18
REMARK    6  A    between atoms: C_22  and  C_25
REMARK    7  A    between atoms: C_23  and  C_24
REMARK    8  A    between atoms: C_28  and  O_29
REMARK    9  A    between atoms: O_29  and  C_30
REMARK                            x       y       z     vdW  Elec       q    Type
REMARK                         _______ _______ _______ _____ _____    ______ ____
ROOT
ATOM      1  N   UNL     1      -8.020  -1.079 130.585  0.00  0.00    +0.000 N 
ATOM      2  C   UNL     1      -7.823  -0.311 131.724  0.00  0.00    +0.000 C 
ATOM      3  O   UNL     1      -7.863  -0.878 132.835  0.00  0.00    +0.000 OA
ATOM      4  H   UNL     1      -8.825  -1.694 130.649  0.00  0.00    +0.000 HD
ENDROOT
BRANCH   2   5
ATOM      5  C   UNL     1      -7.665   1.202 131.677  0.00  0.00    +0.000 A 
ATOM      6  C   UNL     1      -6.350   1.715 131.596  0.00  0.00    +0.000 A 
ATOM      7  C   UNL     1      -6.115   3.089 131.483  0.00  0.00    +0.000 A 
ATOM      8  C   UNL     1      -7.187   3.971 131.383  0.00  0.00    +0.000 A 
ATOM      9  C   UNL     1      -8.503   3.511 131.494  0.00  0.00    +0.000 A 
ATOM     10  C   UNL     1      -8.736   2.135 131.753  0.00  0.00    +0.000 A 
ATOM     11  C   UNL     1     -10.136   1.731 132.112  0.00  0.00    +0.000 C 
BRANCH   9  12
ATOM     12  C   UNL     1      -9.614   4.474 131.427  0.00  0.00    +0.000 A 
ATOM     13  C   UNL     1      -9.823   5.469 132.385  0.00  0.00    +0.000 A 
ATOM     14  C   UNL     1     -10.931   6.320 132.267  0.00  0.00    +0.000 A 
ATOM     15  C   UNL     1     -11.732   6.302 131.118  0.00  0.00    +0.000 A 
ATOM     16  C   UNL     1     -11.470   5.370 130.127  0.00  0.00    +0.000 A 
ATOM     17  C   UNL     1     -10.491   4.421 130.333  0.00  0.00    +0.000 A 
BRANCH  15  18
ATOM     18  O   UNL     1     -12.742   7.219 131.060  0.00  0.00    +0.000 OA
BRANCH  18  19
ATOM     19  C   UNL     1     -12.590   8.251 130.092  0.00  0.00    +0.000 C 
ATOM     20  F   UNL     1     -13.022   9.439 130.573  0.00  0.00    +0.000 F 
ATOM     21  F   UNL     1     -11.302   8.370 129.697  0.00  0.00    +0.000 F 
ATOM     22  F   UNL     1     -13.331   7.947 129.007  0.00  0.00    +0.000 F 
ENDBRANCH  18  19
ENDBRANCH  15  18
ENDBRANCH   9  12
ENDBRANCH   2   5
BRANCH   1  26
ATOM     23  C   UNL     1      -6.694  -1.393 126.640  0.00  0.00    +0.000 A 
ATOM     24  C   UNL     1      -7.289  -0.210 127.092  0.00  0.00    +0.000 A 
ATOM     25  C   UNL     1      -7.528   0.020 128.450  0.00  0.00    +0.000 A 
ATOM     26  C   UNL     1      -7.303  -1.020 129.355  0.00  0.00    +0.000 A 
ATOM     27  C   UNL     1      -6.681  -2.177 128.844  0.00  0.00    +0.000 A 
ATOM     28  N   UNL     1      -6.392  -2.382 127.512  0.00  0.00    +0.000 NA
BRANCH  23  32
ATOM     29  C   UNL     1      -7.923  -0.564 123.456  0.00  0.00    +0.000 C 
ATOM     30  C   UNL     1      -9.178  -0.110 124.186  0.00  0.00    +0.000 C 
ATOM     31  C   UNL     1      -6.663  -0.379 124.320  0.00  0.00    +0.000 C 
ATOM     32  N   UNL     1      -6.473  -1.469 125.274  0.00  0.00    +0.000 N 
ATOM     33  C   UNL     1      -6.591  -2.812 124.694  0.00  0.00    +0.000 C 
ATOM     34  C   UNL     1      -7.884  -2.959 123.872  0.00  0.00    +0.000 C 
ATOM     35  C   UNL     1      -9.121  -3.153 124.745  0.00  0.00    +0.000 C 
ATOM     36  O   UNL     1      -8.047  -1.896 122.917  0.00  0.00    +0.000 OA
ENDBRANCH  23  32
ENDBRANCH   1  26
TORSDOF 6
ENDMDL
MODEL 9
REMARK VINA RESULT:      -8.3      3.689      5.270
REMARK  Name = Sonidegib
REMARK  9 active torsions:
REMARK  status: ('A' for Active; 'I' for Inactive)
REMARK    1  A    between atoms: C_2  and  C_3
REMARK    2  A    between atoms: N_5  and  C_11
REMARK    3  A    between atoms: C_7  and  C_9
REMARK    4  A    between atoms: C_14  and  N_15
REMARK    5  A    between atoms: C_16  and  C_18
REMARK    6  A    between atoms: C_22  and  C_25
REMARK    7  A    between atoms: C_23  and  C_24
REMARK    8  A    between atoms: C_28  and  O_29
REMARK    9  A    between atoms: O_29  and  C_30
REMARK                            x       y       z     vdW  Elec       q    Type
REMARK                         _______ _______ _______ _____ _____    ______ ____
ROOT
ATOM      1  N   UNL     1     -10.224   5.243 131.719  0.00  0.00    +0.000 N 
ATOM      2  C   UNL     1     -10.513   4.228 130.818  0.00  0.00    +0.000 C 
ATOM      3  O   UNL     1     -11.510   4.357 130.079  0.00  0.00    +0.000 OA
ATOM      4  H   UNL     1     -11.032   5.550 132.252  0.00  0.00    +0.000 HD
ENDROOT
BRANCH   2   5
ATOM      5  C   UNL     1      -9.727   2.925 130.770  0.00  0.00    +0.000 A 
ATOM      6  C   UNL     1      -9.869   2.042 131.864  0.00  0.00    +0.000 A 
ATOM      7  C   UNL     1      -9.235   0.795 131.874  0.00  0.00    +0.000 A 
ATOM      8  C   UNL     1      -8.504   0.379 130.766  0.00  0.00    +0.000 A 
ATOM      9  C   UNL     1      -8.310   1.234 129.676  0.00  0.00    +0.000 A 
ATOM     10  C   UNL     1      -8.832   2.552 129.729  0.00  0.00    +0.000 A 
ATOM     11  C   UNL     1      -8.391   3.509 128.661  0.00  0.00    +0.000 C 
BRANCH   9  12
ATOM     12  C   UNL     1      -7.496   0.781 128.537  0.00  0.00    +0.000 A 
ATOM     13  C   UNL     1      -6.107   0.644 128.595  0.00  0.00    +0.000 A 
ATOM     14  C   UNL     1      -5.404   0.245 127.450  0.00  0.00    +0.000 A 
ATOM     15  C   UNL     1      -6.083  -0.184 126.302  0.00  0.00    +0.000 A 
ATOM     16  C   UNL     1      -7.466  -0.131 126.277  0.00  0.00    +0.000 A 
ATOM     17  C   UNL     1      -8.141   0.431 127.340  0.00  0.00    +0.000 A 
BRANCH  15  18
ATOM     18  O   UNL     1      -5.313  -0.626 125.264  0.00  0.00    +0.000 OA
BRANCH  18  19
ATOM     19  C   UNL     1      -5.599  -1.938 124.793  0.00  0.00    +0.000 C 
ATOM     20  F   UNL     1      -5.813  -2.791 125.821  0.00  0.00    +0.000 F 
ATOM     21  F   UNL     1      -6.678  -1.944 123.977  0.00  0.00    +0.000 F 
ATOM     22  F   UNL     1      -4.542  -2.392 124.088  0.00  0.00    +0.000 F 
ENDBRANCH  18  19
ENDBRANCH  15  18
ENDBRANCH   9  12
ENDBRANCH   2   5
BRANCH   1  26
ATOM     23  C   UNL     1      -6.163   6.116 132.115  0.00  0.00    +0.000 A 
ATOM     24  C   UNL     1      -6.936   6.779 131.157  0.00  0.00    +0.000 A 
ATOM     25  C   UNL     1      -8.332   6.691 131.149  0.00  0.00    +0.000 A 
ATOM     26  C   UNL     1      -8.950   5.801 132.031  0.00  0.00    +0.000 A 
ATOM     27  C   UNL     1      -8.122   5.181 132.987  0.00  0.00    +0.000 A 
ATOM     28  N   UNL     1      -6.751   5.312 133.031  0.00  0.00    +0.000 NA
BRANCH  23  32
ATOM     29  C   UNL     1      -3.366   6.196 129.993  0.00  0.00    +0.000 C 
ATOM     30  C   UNL     1      -4.299   5.633 128.933  0.00  0.00    +0.000 C 
ATOM     31  C   UNL     1      -4.115   7.094 130.992  0.00  0.00    +0.000 C 
ATOM     32  N   UNL     1      -4.795   6.328 132.034  0.00  0.00    +0.000 N 
ATOM     33  C   UNL     1      -3.963   5.304 132.678  0.00  0.00    +0.000 C 
ATOM     34  C   UNL     1      -3.267   4.408 131.639  0.00  0.00    +0.000 C 
ATOM     35  C   UNL     1      -4.203   3.364 131.036  0.00  0.00    +0.000 C 
ATOM     36  O   UNL     1      -2.577   5.172 130.634  0.00  0.00    +0.000 OA
ENDBRANCH  23  32
ENDBRANCH   1  26
TORSDOF 6
ENDMDL
