MODEL 1
REMARK VINA RESULT:      -9.8      0.000      0.000
REMARK  Name = Sorafenib
REMARK  7 active torsions:
REMARK  status: ('A' for Active; 'I' for Inactive)
REMARK    1  A    between atoms: C_1  and  N_2
REMARK    2  A    between atoms: C_3  and  C_5
REMARK    3  A    between atoms: C_9  and  O_10
REMARK    4  A    between atoms: O_10  and  C_11
REMARK    5  A    between atoms: C_14  and  N_15
REMARK    6  A    between atoms: N_18  and  C_19
REMARK    7  A    between atoms: C_21  and  C_26
REMARK                            x       y       z     vdW  Elec       q    Type
REMARK                         _______ _______ _______ _____ _____    ______ ____
ROOT
ATOM      1  C   UNL     1      -7.670  -0.348 130.411  0.00  0.00    +0.000 A 
ATOM      2  C   UNL     1      -7.242   0.938 130.063  0.00  0.00    +0.000 A 
ATOM      3  C   UNL     1      -7.860   2.092 130.617  0.00  0.00    +0.000 A 
ATOM      4  C   UNL     1      -8.964   1.970 131.477  0.00  0.00    +0.000 A 
ATOM      5  C   UNL     1      -9.331   0.667 131.835  0.00  0.00    +0.000 A 
ATOM      6  C   UNL     1      -8.689  -0.470 131.341  0.00  0.00    +0.000 A 
ENDROOT
BRANCH   4   7
ATOM      7  N   UNL     1      -9.697   3.124 131.941  0.00  0.00    +0.000 N 
ATOM      8  C   UNL     1     -10.225   4.091 131.087  0.00  0.00    +0.000 C 
ATOM      9  O   UNL     1     -10.129   4.046 129.860  0.00  0.00    +0.000 OA
ATOM     10  N   UNL     1     -10.863   5.169 131.685  0.00  0.00    +0.000 N 
ATOM     11  H   UNL     1      -9.758   3.259 132.940  0.00  0.00    +0.000 HD
ATOM     12  H   UNL     1     -10.692   5.380 132.657  0.00  0.00    +0.000 HD
BRANCH  10  13
ATOM     13  C   UNL     1     -11.532   6.156 130.888  0.00  0.00    +0.000 A 
ATOM     14  C   UNL     1     -11.308   6.259 129.511  0.00  0.00    +0.000 A 
ATOM     15  C   UNL     1     -11.840   7.347 128.754  0.00  0.00    +0.000 A 
ATOM     16  C   UNL     1     -12.703   8.252 129.379  0.00  0.00    +0.000 A 
ATOM     17 CL   UNL     1     -13.522   9.531 128.558  0.00  0.00    +0.000 Cl
ATOM     18  C   UNL     1     -12.949   8.140 130.744  0.00  0.00    +0.000 A 
ATOM     19  C   UNL     1     -12.367   7.110 131.485  0.00  0.00    +0.000 A 
BRANCH  15  20
ATOM     20  C   UNL     1     -11.338   7.546 127.346  0.00  0.00    +0.000 C 
ATOM     21  F   UNL     1     -10.311   6.684 127.081  0.00  0.00    +0.000 F 
ATOM     22  F   UNL     1     -12.283   7.287 126.403  0.00  0.00    +0.000 F 
ATOM     23  F   UNL     1     -10.840   8.775 127.048  0.00  0.00    +0.000 F 
ENDBRANCH  15  20
ENDBRANCH  10  13
ENDBRANCH   4   7
BRANCH   1  24
ATOM     24  O   UNL     1      -7.016  -1.450 129.897  0.00  0.00    +0.000 OA
BRANCH  24  29
ATOM     25  C   UNL     1      -8.234  -2.379 126.582  0.00  0.00    +0.000 A 
ATOM     26  N   UNL     1      -8.933  -3.522 126.803  0.00  0.00    +0.000 NA
ATOM     27  C   UNL     1      -8.962  -3.991 128.064  0.00  0.00    +0.000 A 
ATOM     28  C   UNL     1      -8.333  -3.374 129.128  0.00  0.00    +0.000 A 
ATOM     29  C   UNL     1      -7.617  -2.201 128.896  0.00  0.00    +0.000 A 
ATOM     30  C   UNL     1      -7.558  -1.692 127.591  0.00  0.00    +0.000 A 
BRANCH  25  33
ATOM     31  C   UNL     1      -7.058  -0.861 123.283  0.00  0.00    +0.000 C 
ATOM     32  N   UNL     1      -7.110  -1.327 124.651  0.00  0.00    +0.000 N 
ATOM     33  C   UNL     1      -8.279  -1.861 125.168  0.00  0.00    +0.000 C 
ATOM     34  O   UNL     1      -9.320  -1.924 124.507  0.00  0.00    +0.000 OA
ATOM     35  H   UNL     1      -6.245  -1.407 125.169  0.00  0.00    +0.000 HD
ENDBRANCH  25  33
ENDBRANCH  24  29
ENDBRANCH   1  24
TORSDOF 6
ENDMDL
MODEL 2
REMARK VINA RESULT:      -9.3      6.071      8.082
REMARK  Name = Sorafenib
REMARK  7 active torsions:
REMARK  status: ('A' for Active; 'I' for Inactive)
REMARK    1  A    between atoms: C_1  and  N_2
REMARK    2  A    between atoms: C_3  and  C_5
REMARK    3  A    between atoms: C_9  and  O_10
REMARK    4  A    between atoms: O_10  and  C_11
REMARK    5  A    between atoms: C_14  and  N_15
REMARK    6  A    between atoms: N_18  and  C_19
REMARK    7  A    between atoms: C_21  and  C_26
REMARK                            x       y       z     vdW  Elec       q    Type
REMARK                         _______ _______ _______ _____ _____    ______ ____
ROOT
ATOM      1  C   UNL     1      -7.321  -2.339 128.311  0.00  0.00    +0.000 A 
ATOM      2  C   UNL     1      -7.142  -1.067 128.866  0.00  0.00    +0.000 A 
ATOM      3  C   UNL     1      -7.623   0.096 128.203  0.00  0.00    +0.000 A 
ATOM      4  C   UNL     1      -8.228   0.002 126.940  0.00  0.00    +0.000 A 
ATOM      5  C   UNL     1      -8.428  -1.292 126.441  0.00  0.00    +0.000 A 
ATOM      6  C   UNL     1      -8.012  -2.442 127.116  0.00  0.00    +0.000 A 
ENDROOT
BRANCH   4   7
ATOM      7  N   UNL     1      -8.596   1.175 126.184  0.00  0.00    +0.000 N 
ATOM      8  C   UNL     1      -8.060   1.482 124.935  0.00  0.00    +0.000 C 
ATOM      9  O   UNL     1      -7.234   0.777 124.354  0.00  0.00    +0.000 OA
ATOM     10  N   UNL     1      -8.476   2.671 124.352  0.00  0.00    +0.000 N 
ATOM     11  H   UNL     1      -9.221   1.832 126.630  0.00  0.00    +0.000 HD
ATOM     12  H   UNL     1      -8.897   3.390 124.921  0.00  0.00    +0.000 HD
BRANCH  10  13
ATOM     13  C   UNL     1      -8.064   3.018 123.023  0.00  0.00    +0.000 A 
ATOM     14  C   UNL     1      -6.733   3.335 122.730  0.00  0.00    +0.000 A 
ATOM     15  C   UNL     1      -6.358   3.846 121.450  0.00  0.00    +0.000 A 
ATOM     16  C   UNL     1      -7.319   3.908 120.435  0.00  0.00    +0.000 A 
ATOM     17 CL   UNL     1      -6.978   4.375 118.809  0.00  0.00    +0.000 Cl
ATOM     18  C   UNL     1      -8.639   3.570 120.715  0.00  0.00    +0.000 A 
ATOM     19  C   UNL     1      -9.004   3.137 121.992  0.00  0.00    +0.000 A 
BRANCH  15  20
ATOM     20  C   UNL     1      -4.974   4.421 121.291  0.00  0.00    +0.000 C 
ATOM     21  F   UNL     1      -4.424   4.684 122.515  0.00  0.00    +0.000 F 
ATOM     22  F   UNL     1      -4.110   3.567 120.679  0.00  0.00    +0.000 F 
ATOM     23  F   UNL     1      -4.879   5.595 120.614  0.00  0.00    +0.000 F 
ENDBRANCH  15  20
ENDBRANCH  10  13
ENDBRANCH   4   7
BRANCH   1  24
ATOM     24  O   UNL     1      -6.890  -3.454 129.003  0.00  0.00    +0.000 OA
BRANCH  24  29
ATOM     25  C   UNL     1      -4.137  -3.725 131.387  0.00  0.00    +0.000 A 
ATOM     26  N   UNL     1      -3.034  -3.461 130.639  0.00  0.00    +0.000 NA
ATOM     27  C   UNL     1      -3.223  -3.225 129.327  0.00  0.00    +0.000 A 
ATOM     28  C   UNL     1      -4.462  -3.230 128.716  0.00  0.00    +0.000 A 
ATOM     29  C   UNL     1      -5.590  -3.502 129.488  0.00  0.00    +0.000 A 
ATOM     30  C   UNL     1      -5.427  -3.764 130.856  0.00  0.00    +0.000 A 
BRANCH  25  33
ATOM     31  C   UNL     1      -2.353  -4.708 134.615  0.00  0.00    +0.000 C 
ATOM     32  N   UNL     1      -2.694  -4.534 133.220  0.00  0.00    +0.000 N 
ATOM     33  C   UNL     1      -3.884  -3.924 132.858  0.00  0.00    +0.000 C 
ATOM     34  O   UNL     1      -4.708  -3.544 133.695  0.00  0.00    +0.000 OA
ATOM     35  H   UNL     1      -1.985  -4.715 132.522  0.00  0.00    +0.000 HD
ENDBRANCH  25  33
ENDBRANCH  24  29
ENDBRANCH   1  24
TORSDOF 6
ENDMDL
MODEL 3
REMARK VINA RESULT:      -9.3      5.793      7.850
REMARK  Name = Sorafenib
REMARK  7 active torsions:
REMARK  status: ('A' for Active; 'I' for Inactive)
REMARK    1  A    between atoms: C_1  and  N_2
REMARK    2  A    between atoms: C_3  and  C_5
REMARK    3  A    between atoms: C_9  and  O_10
REMARK    4  A    between atoms: O_10  and  C_11
REMARK    5  A    between atoms: C_14  and  N_15
REMARK    6  A    between atoms: N_18  and  C_19
REMARK    7  A    between atoms: C_21  and  C_26
REMARK                            x       y       z     vdW  Elec       q    Type
REMARK                         _______ _______ _______ _____ _____    ______ ____
ROOT
ATOM      1  C   UNL     1      -5.726   4.034 134.493  0.00  0.00    +0.000 A 
ATOM      2  C   UNL     1      -6.166   3.565 133.250  0.00  0.00    +0.000 A 
ATOM      3  C   UNL     1      -7.480   3.846 132.784  0.00  0.00    +0.000 A 
ATOM      4  C   UNL     1      -8.392   4.545 133.591  0.00  0.00    +0.000 A 
ATOM      5  C   UNL     1      -7.898   5.035 134.806  0.00  0.00    +0.000 A 
ATOM      6  C   UNL     1      -6.590   4.813 135.243  0.00  0.00    +0.000 A 
ENDROOT
BRANCH   4   7
ATOM      7  N   UNL     1      -9.771   4.722 133.201  0.00  0.00    +0.000 N 
ATOM      8  C   UNL     1     -10.209   5.763 132.386  0.00  0.00    +0.000 C 
ATOM      9  O   UNL     1      -9.463   6.619 131.910  0.00  0.00    +0.000 OA
ATOM     10  N   UNL     1     -11.573   5.830 132.137  0.00  0.00    +0.000 N 
ATOM     11  H   UNL     1     -10.448   4.093 133.608  0.00  0.00    +0.000 HD
ATOM     12  H   UNL     1     -12.219   5.344 132.742  0.00  0.00    +0.000 HD
BRANCH  10  13
ATOM     13  C   UNL     1     -12.104   6.798 131.223  0.00  0.00    +0.000 A 
ATOM     14  C   UNL     1     -11.934   6.668 129.840  0.00  0.00    +0.000 A 
ATOM     15  C   UNL     1     -12.312   7.716 128.947  0.00  0.00    +0.000 A 
ATOM     16  C   UNL     1     -12.979   8.836 129.455  0.00  0.00    +0.000 A 
ATOM     17 CL   UNL     1     -13.610  10.111 128.477  0.00  0.00    +0.000 Cl
ATOM     18  C   UNL     1     -13.172   8.958 130.827  0.00  0.00    +0.000 A 
ATOM     19  C   UNL     1     -12.736   7.955 131.695  0.00  0.00    +0.000 A 
BRANCH  15  20
ATOM     20  C   UNL     1     -11.853   7.628 127.513  0.00  0.00    +0.000 C 
ATOM     21  F   UNL     1     -12.929   7.551 126.673  0.00  0.00    +0.000 F 
ATOM     22  F   UNL     1     -11.154   8.723 127.110  0.00  0.00    +0.000 F 
ATOM     23  F   UNL     1     -11.086   6.556 127.186  0.00  0.00    +0.000 F 
ENDBRANCH  15  20
ENDBRANCH  10  13
ENDBRANCH   4   7
BRANCH   1  24
ATOM     24  O   UNL     1      -4.429   3.789 134.897  0.00  0.00    +0.000 OA
BRANCH  24  29
ATOM     25  C   UNL     1      -2.124   6.364 133.714  0.00  0.00    +0.000 A 
ATOM     26  N   UNL     1      -1.385   5.727 132.769  0.00  0.00    +0.000 NA
ATOM     27  C   UNL     1      -1.646   4.423 132.560  0.00  0.00    +0.000 A 
ATOM     28  C   UNL     1      -2.617   3.715 133.241  0.00  0.00    +0.000 A 
ATOM     29  C   UNL     1      -3.373   4.373 134.209  0.00  0.00    +0.000 A 
ATOM     30  C   UNL     1      -3.118   5.729 134.460  0.00  0.00    +0.000 A 
BRANCH  25  33
ATOM     31  C   UNL     1      -2.080  10.106 132.963  0.00  0.00    +0.000 C 
ATOM     32  N   UNL     1      -2.266   8.676 132.857  0.00  0.00    +0.000 N 
ATOM     33  C   UNL     1      -1.838   7.834 133.871  0.00  0.00    +0.000 C 
ATOM     34  O   UNL     1      -1.255   8.258 134.874  0.00  0.00    +0.000 OA
ATOM     35  H   UNL     1      -2.852   8.316 132.116  0.00  0.00    +0.000 HD
ENDBRANCH  25  33
ENDBRANCH  24  29
ENDBRANCH   1  24
TORSDOF 6
ENDMDL
MODEL 4
REMARK VINA RESULT:      -9.1      4.820      9.564
REMARK  Name = Sorafenib
REMARK  7 active torsions:
REMARK  status: ('A' for Active; 'I' for Inactive)
REMARK    1  A    between atoms: C_1  and  N_2
REMARK    2  A    between atoms: C_3  and  C_5
REMARK    3  A    between atoms: C_9  and  O_10
REMARK    4  A    between atoms: O_10  and  C_11
REMARK    5  A    between atoms: C_14  and  N_15
REMARK    6  A    between atoms: N_18  and  C_19
REMARK    7  A    between atoms: C_21  and  C_26
REMARK                            x       y       z     vdW  Elec       q    Type
REMARK                         _______ _______ _______ _____ _____    ______ ____
ROOT
ATOM      1  C   UNL     1      -6.588   2.710 132.605  0.00  0.00    +0.000 A 
ATOM      2  C   UNL     1      -7.652   1.833 132.843  0.00  0.00    +0.000 A 
ATOM      3  C   UNL     1      -7.676   0.536 132.261  0.00  0.00    +0.000 A 
ATOM      4  C   UNL     1      -6.665   0.129 131.375  0.00  0.00    +0.000 A 
ATOM      5  C   UNL     1      -5.597   1.018 131.201  0.00  0.00    +0.000 A 
ATOM      6  C   UNL     1      -5.538   2.270 131.818  0.00  0.00    +0.000 A 
ENDROOT
BRANCH   4   7
ATOM      7  N   UNL     1      -6.738  -1.124 130.663  0.00  0.00    +0.000 N 
ATOM      8  C   UNL     1      -7.201  -1.235 129.353  0.00  0.00    +0.000 C 
ATOM      9  O   UNL     1      -7.577  -0.277 128.677  0.00  0.00    +0.000 OA
ATOM     10  N   UNL     1      -7.258  -2.514 128.817  0.00  0.00    +0.000 N 
ATOM     11  H   UNL     1      -6.507  -1.962 131.178  0.00  0.00    +0.000 HD
ATOM     12  H   UNL     1      -7.251  -3.317 129.429  0.00  0.00    +0.000 HD
BRANCH  10  13
ATOM     13  C   UNL     1      -7.616  -2.718 127.444  0.00  0.00    +0.000 A 
ATOM     14  C   UNL     1      -6.721  -2.434 126.406  0.00  0.00    +0.000 A 
ATOM     15  C   UNL     1      -7.136  -2.473 125.040  0.00  0.00    +0.000 A 
ATOM     16  C   UNL     1      -8.424  -2.926 124.733  0.00  0.00    +0.000 A 
ATOM     17 CL   UNL     1      -9.011  -3.152 123.126  0.00  0.00    +0.000 Cl
ATOM     18  C   UNL     1      -9.309  -3.233 125.762  0.00  0.00    +0.000 A 
ATOM     19  C   UNL     1      -8.910  -3.125 127.095  0.00  0.00    +0.000 A 
BRANCH  15  20
ATOM     20  C   UNL     1      -6.212  -1.896 123.999  0.00  0.00    +0.000 C 
ATOM     21  F   UNL     1      -6.701  -0.707 123.534  0.00  0.00    +0.000 F 
ATOM     22  F   UNL     1      -4.973  -1.614 124.485  0.00  0.00    +0.000 F 
ATOM     23  F   UNL     1      -6.012  -2.644 122.882  0.00  0.00    +0.000 F 
ENDBRANCH  15  20
ENDBRANCH  10  13
ENDBRANCH   4   7
BRANCH   1  24
ATOM     24  O   UNL     1      -6.566   3.943 133.226  0.00  0.00    +0.000 OA
BRANCH  24  29
ATOM     25  C   UNL     1      -8.046   6.579 131.177  0.00  0.00    +0.000 A 
ATOM     26  N   UNL     1      -6.977   7.313 130.772  0.00  0.00    +0.000 NA
ATOM     27  C   UNL     1      -5.766   6.933 131.221  0.00  0.00    +0.000 A 
ATOM     28  C   UNL     1      -5.559   5.849 132.051  0.00  0.00    +0.000 A 
ATOM     29  C   UNL     1      -6.659   5.099 132.463  0.00  0.00    +0.000 A 
ATOM     30  C   UNL     1      -7.936   5.475 132.022  0.00  0.00    +0.000 A 
BRANCH  25  33
ATOM     31  C   UNL     1     -11.823   6.967 130.789  0.00  0.00    +0.000 C 
ATOM     32  N   UNL     1     -10.514   6.555 131.245  0.00  0.00    +0.000 N 
ATOM     33  C   UNL     1      -9.372   7.004 130.603  0.00  0.00    +0.000 C 
ATOM     34  O   UNL     1      -9.422   7.730 129.605  0.00  0.00    +0.000 OA
ATOM     35  H   UNL     1     -10.439   6.072 132.131  0.00  0.00    +0.000 HD
ENDBRANCH  25  33
ENDBRANCH  24  29
ENDBRANCH   1  24
TORSDOF 6
ENDMDL
MODEL 5
REMARK VINA RESULT:      -9.0      2.432      3.465
REMARK  Name = Sorafenib
REMARK  7 active torsions:
REMARK  status: ('A' for Active; 'I' for Inactive)
REMARK    1  A    between atoms: C_1  and  N_2
REMARK    2  A    between atoms: C_3  and  C_5
REMARK    3  A    between atoms: C_9  and  O_10
REMARK    4  A    between atoms: O_10  and  C_11
REMARK    5  A    between atoms: C_14  and  N_15
REMARK    6  A    between atoms: N_18  and  C_19
REMARK    7  A    between atoms: C_21  and  C_26
REMARK                            x       y       z     vdW  Elec       q    Type
REMARK                         _______ _______ _______ _____ _____    ______ ____
ROOT
ATOM      1  C   UNL     1      -5.742  -0.282 127.273  0.00  0.00    +0.000 A 
ATOM      2  C   UNL     1      -6.681  -0.287 128.310  0.00  0.00    +0.000 A 
ATOM      3  C   UNL     1      -7.063   0.919 128.959  0.00  0.00    +0.000 A 
ATOM      4  C   UNL     1      -6.453   2.138 128.622  0.00  0.00    +0.000 A 
ATOM      5  C   UNL     1      -5.553   2.107 127.549  0.00  0.00    +0.000 A 
ATOM      6  C   UNL     1      -5.219   0.934 126.868  0.00  0.00    +0.000 A 
ENDROOT
BRANCH   4   7
ATOM      7  N   UNL     1      -6.718   3.350 129.359  0.00  0.00    +0.000 N 
ATOM      8  C   UNL     1      -7.980   3.935 129.444  0.00  0.00    +0.000 C 
ATOM      9  O   UNL     1      -8.988   3.468 128.911  0.00  0.00    +0.000 OA
ATOM     10  N   UNL     1      -8.070   5.127 130.149  0.00  0.00    +0.000 N 
ATOM     11  H   UNL     1      -5.925   3.824 129.767  0.00  0.00    +0.000 HD
ATOM     12  H   UNL     1      -7.239   5.672 130.325  0.00  0.00    +0.000 HD
BRANCH  10  13
ATOM     13  C   UNL     1      -9.343   5.746 130.383  0.00  0.00    +0.000 A 
ATOM     14  C   UNL     1      -9.953   6.551 129.415  0.00  0.00    +0.000 A 
ATOM     15  C   UNL     1     -11.130   7.302 129.712  0.00  0.00    +0.000 A 
ATOM     16  C   UNL     1     -11.753   7.127 130.953  0.00  0.00    +0.000 A 
ATOM     17 CL   UNL     1     -13.250   7.864 131.395  0.00  0.00    +0.000 Cl
ATOM     18  C   UNL     1     -11.163   6.307 131.910  0.00  0.00    +0.000 A 
ATOM     19  C   UNL     1      -9.974   5.633 131.628  0.00  0.00    +0.000 A 
BRANCH  15  20
ATOM     20  C   UNL     1     -11.574   8.351 128.725  0.00  0.00    +0.000 C 
ATOM     21  F   UNL     1     -12.077   9.440 129.380  0.00  0.00    +0.000 F 
ATOM     22  F   UNL     1     -10.554   8.826 127.960  0.00  0.00    +0.000 F 
ATOM     23  F   UNL     1     -12.554   7.990 127.856  0.00  0.00    +0.000 F 
ENDBRANCH  15  20
ENDBRANCH  10  13
ENDBRANCH   4   7
BRANCH   1  24
ATOM     24  O   UNL     1      -5.430  -1.461 126.626  0.00  0.00    +0.000 OA
BRANCH  24  29
ATOM     25  C   UNL     1      -7.598  -1.396 123.687  0.00  0.00    +0.000 A 
ATOM     26  N   UNL     1      -6.923  -2.137 122.771  0.00  0.00    +0.000 NA
ATOM     27  C   UNL     1      -5.724  -2.626 123.139  0.00  0.00    +0.000 A 
ATOM     28  C   UNL     1      -5.160  -2.423 124.384  0.00  0.00    +0.000 A 
ATOM     29  C   UNL     1      -5.857  -1.663 125.320  0.00  0.00    +0.000 A 
ATOM     30  C   UNL     1      -7.104  -1.128 124.964  0.00  0.00    +0.000 A 
BRANCH  25  33
ATOM     31  C   UNL     1     -10.410   0.982 122.683  0.00  0.00    +0.000 C 
ATOM     32  N   UNL     1      -9.149   0.449 123.149  0.00  0.00    +0.000 N 
ATOM     33  C   UNL     1      -8.959  -0.919 123.253  0.00  0.00    +0.000 C 
ATOM     34  O   UNL     1      -9.856  -1.728 122.993  0.00  0.00    +0.000 OA
ATOM     35  H   UNL     1      -8.361   1.077 123.242  0.00  0.00    +0.000 HD
ENDBRANCH  25  33
ENDBRANCH  24  29
ENDBRANCH   1  24
TORSDOF 6
ENDMDL
MODEL 6
REMARK VINA RESULT:      -8.9      3.047      4.443
REMARK  Name = Sorafenib
REMARK  7 active torsions:
REMARK  status: ('A' for Active; 'I' for Inactive)
REMARK    1  A    between atoms: C_1  and  N_2
REMARK    2  A    between atoms: C_3  and  C_5
REMARK    3  A    between atoms: C_9  and  O_10
REMARK    4  A    between atoms: O_10  and  C_11
REMARK    5  A    between atoms: C_14  and  N_15
REMARK    6  A    between atoms: N_18  and  C_19
REMARK    7  A    between atoms: C_21  and  C_26
REMARK                            x       y       z     vdW  Elec       q    Type
REMARK                         _______ _______ _______ _____ _____    ______ ____
ROOT
ATOM      1  C   UNL     1      -7.715  -1.156 130.317  0.00  0.00    +0.000 A 
ATOM      2  C   UNL     1      -7.085  -0.014 129.812  0.00  0.00    +0.000 A 
ATOM      3  C   UNL     1      -7.392   1.278 130.320  0.00  0.00    +0.000 A 
ATOM      4  C   UNL     1      -8.389   1.446 131.294  0.00  0.00    +0.000 A 
ATOM      5  C   UNL     1      -8.962   0.275 131.805  0.00  0.00    +0.000 A 
ATOM      6  C   UNL     1      -8.621  -1.002 131.353  0.00  0.00    +0.000 A 
ENDROOT
BRANCH   4   7
ATOM      7  N   UNL     1      -8.818   2.756 131.724  0.00  0.00    +0.000 N 
ATOM      8  C   UNL     1      -9.584   3.609 130.932  0.00  0.00    +0.000 C 
ATOM      9  O   UNL     1      -9.977   3.323 129.801  0.00  0.00    +0.000 OA
ATOM     10  N   UNL     1      -9.878   4.857 131.464  0.00  0.00    +0.000 N 
ATOM     11  H   UNL     1      -8.476   3.082 132.617  0.00  0.00    +0.000 HD
ATOM     12  H   UNL     1      -9.330   5.220 132.229  0.00  0.00    +0.000 HD
BRANCH  10  13
ATOM     13  C   UNL     1     -10.751   5.761 130.771  0.00  0.00    +0.000 A 
ATOM     14  C   UNL     1     -10.604   6.013 129.403  0.00  0.00    +0.000 A 
ATOM     15  C   UNL     1     -11.358   7.037 128.754  0.00  0.00    +0.000 A 
ATOM     16  C   UNL     1     -12.350   7.712 129.475  0.00  0.00    +0.000 A 
ATOM     17 CL   UNL     1     -13.424   8.874 128.786  0.00  0.00    +0.000 Cl
ATOM     18  C   UNL     1     -12.516   7.446 130.830  0.00  0.00    +0.000 A 
ATOM     19  C   UNL     1     -11.724   6.489 131.467  0.00  0.00    +0.000 A 
BRANCH  15  20
ATOM     20  C   UNL     1     -10.958   7.439 127.357  0.00  0.00    +0.000 C 
ATOM     21  F   UNL     1     -10.545   8.742 127.336  0.00  0.00    +0.000 F 
ATOM     22  F   UNL     1      -9.911   6.717 126.875  0.00  0.00    +0.000 F 
ATOM     23  F   UNL     1     -11.926   7.371 126.406  0.00  0.00    +0.000 F 
ENDBRANCH  15  20
ENDBRANCH  10  13
ENDBRANCH   4   7
BRANCH   1  24
ATOM     24  O   UNL     1      -7.359  -2.403 129.841  0.00  0.00    +0.000 OA
BRANCH  24  29
ATOM     25  C   UNL     1      -4.269  -3.663 131.327  0.00  0.00    +0.000 A 
ATOM     26  N   UNL     1      -3.358  -3.548 130.325  0.00  0.00    +0.000 NA
ATOM     27  C   UNL     1      -3.800  -3.078 129.144  0.00  0.00    +0.000 A 
ATOM     28  C   UNL     1      -5.109  -2.704 128.906  0.00  0.00    +0.000 A 
ATOM     29  C   UNL     1      -6.038  -2.823 129.937  0.00  0.00    +0.000 A 
ATOM     30  C   UNL     1      -5.614  -3.321 131.177  0.00  0.00    +0.000 A 
BRANCH  25  33
ATOM     31  C   UNL     1      -3.797  -5.803 134.451  0.00  0.00    +0.000 C 
ATOM     32  N   UNL     1      -4.308  -5.254 133.215  0.00  0.00    +0.000 N 
ATOM     33  C   UNL     1      -3.718  -4.137 132.646  0.00  0.00    +0.000 C 
ATOM     34  O   UNL     1      -2.773  -3.549 133.181  0.00  0.00    +0.000 OA
ATOM     35  H   UNL     1      -4.990  -5.787 132.692  0.00  0.00    +0.000 HD
ENDBRANCH  25  33
ENDBRANCH  24  29
ENDBRANCH   1  24
TORSDOF 6
ENDMDL
MODEL 7
REMARK VINA RESULT:      -8.8      7.000      9.894
REMARK  Name = Sorafenib
REMARK  7 active torsions:
REMARK  status: ('A' for Active; 'I' for Inactive)
REMARK    1  A    between atoms: C_1  and  N_2
REMARK    2  A    between atoms: C_3  and  C_5
REMARK    3  A    between atoms: C_9  and  O_10
REMARK    4  A    between atoms: O_10  and  C_11
REMARK    5  A    between atoms: C_14  and  N_15
REMARK    6  A    between atoms: N_18  and  C_19
REMARK    7  A    between atoms: C_21  and  C_26
REMARK                            x       y       z     vdW  Elec       q    Type
REMARK                         _______ _______ _______ _____ _____    ______ ____
ROOT
ATOM      1  C   UNL     1      -8.120   0.503 123.684  0.00  0.00    +0.000 A 
ATOM      2  C   UNL     1      -7.250  -0.590 123.603  0.00  0.00    +0.000 A 
ATOM      3  C   UNL     1      -7.341  -1.669 124.525  0.00  0.00    +0.000 A 
ATOM      4  C   UNL     1      -8.263  -1.631 125.584  0.00  0.00    +0.000 A 
ATOM      5  C   UNL     1      -9.144  -0.542 125.601  0.00  0.00    +0.000 A 
ATOM      6  C   UNL     1      -9.099   0.491 124.663  0.00  0.00    +0.000 A 
ENDROOT
BRANCH   4   7
ATOM      7  N   UNL     1      -8.281  -2.643 126.612  0.00  0.00    +0.000 N 
ATOM      8  C   UNL     1      -7.530  -2.558 127.784  0.00  0.00    +0.000 C 
ATOM      9  O   UNL     1      -6.795  -1.609 128.058  0.00  0.00    +0.000 OA
ATOM     10  N   UNL     1      -7.615  -3.633 128.658  0.00  0.00    +0.000 N 
ATOM     11  H   UNL     1      -8.812  -3.481 126.425  0.00  0.00    +0.000 HD
ATOM     12  H   UNL     1      -7.953  -4.525 128.328  0.00  0.00    +0.000 HD
BRANCH  10  13
ATOM     13  C   UNL     1      -6.967  -3.590 129.937  0.00  0.00    +0.000 A 
ATOM     14  C   UNL     1      -7.562  -2.963 131.037  0.00  0.00    +0.000 A 
ATOM     15  C   UNL     1      -6.845  -2.771 132.257  0.00  0.00    +0.000 A 
ATOM     16  C   UNL     1      -5.571  -3.332 132.392  0.00  0.00    +0.000 A 
ATOM     17 CL   UNL     1      -4.649  -3.295 133.851  0.00  0.00    +0.000 Cl
ATOM     18  C   UNL     1      -4.985  -3.978 131.308  0.00  0.00    +0.000 A 
ATOM     19  C   UNL     1      -5.672  -4.099 130.100  0.00  0.00    +0.000 A 
BRANCH  15  20
ATOM     20  C   UNL     1      -7.441  -1.855 133.295  0.00  0.00    +0.000 C 
ATOM     21  F   UNL     1      -8.245  -0.922 132.702  0.00  0.00    +0.000 F 
ATOM     22  F   UNL     1      -8.237  -2.507 134.186  0.00  0.00    +0.000 F 
ATOM     23  F   UNL     1      -6.565  -1.130 134.040  0.00  0.00    +0.000 F 
ENDBRANCH  15  20
ENDBRANCH  10  13
ENDBRANCH   4   7
BRANCH   1  24
ATOM     24  O   UNL     1      -8.042   1.511 122.743  0.00  0.00    +0.000 OA
BRANCH  24  29
ATOM     25  C   UNL     1      -5.823   4.289 121.906  0.00  0.00    +0.000 A 
ATOM     26  N   UNL     1      -5.170   4.543 123.069  0.00  0.00    +0.000 NA
ATOM     27  C   UNL     1      -5.506   3.797 124.138  0.00  0.00    +0.000 A 
ATOM     28  C   UNL     1      -6.460   2.798 124.110  0.00  0.00    +0.000 A 
ATOM     29  C   UNL     1      -7.127   2.541 122.914  0.00  0.00    +0.000 A 
ATOM     30  C   UNL     1      -6.808   3.308 121.783  0.00  0.00    +0.000 A 
BRANCH  25  33
ATOM     31  C   UNL     1      -5.750   5.755 118.383  0.00  0.00    +0.000 C 
ATOM     32  N   UNL     1      -6.086   4.962 119.545  0.00  0.00    +0.000 N 
ATOM     33  C   UNL     1      -5.373   5.105 120.724  0.00  0.00    +0.000 C 
ATOM     34  O   UNL     1      -4.411   5.874 120.819  0.00  0.00    +0.000 OA
ATOM     35  H   UNL     1      -6.943   4.425 119.535  0.00  0.00    +0.000 HD
ENDBRANCH  25  33
ENDBRANCH  24  29
ENDBRANCH   1  24
TORSDOF 6
ENDMDL
MODEL 8
REMARK VINA RESULT:      -8.8      6.191      7.902
REMARK  Name = Sorafenib
REMARK  7 active torsions:
REMARK  status: ('A' for Active; 'I' for Inactive)
REMARK    1  A    between atoms: C_1  and  N_2
REMARK    2  A    between atoms: C_3  and  C_5
REMARK    3  A    between atoms: C_9  and  O_10
REMARK    4  A    between atoms: O_10  and  C_11
REMARK    5  A    between atoms: C_14  and  N_15
REMARK    6  A    between atoms: N_18  and  C_19
REMARK    7  A    between atoms: C_21  and  C_26
REMARK                            x       y       z     vdW  Elec       q    Type
REMARK                         _______ _______ _______ _____ _____    ______ ____
ROOT
ATOM      1  C   UNL     1      -6.975  -2.759 128.470  0.00  0.00    +0.000 A 
ATOM      2  C   UNL     1      -8.193  -2.508 127.829  0.00  0.00    +0.000 A 
ATOM      3  C   UNL     1      -8.410  -1.297 127.115  0.00  0.00    +0.000 A 
ATOM      4  C   UNL     1      -7.429  -0.292 127.095  0.00  0.00    +0.000 A 
ATOM      5  C   UNL     1      -6.209  -0.602 127.710  0.00  0.00    +0.000 A 
ATOM      6  C   UNL     1      -5.969  -1.814 128.361  0.00  0.00    +0.000 A 
ENDROOT
BRANCH   4   7
ATOM      7  N   UNL     1      -7.677   0.999 126.499  0.00  0.00    +0.000 N 
ATOM      8  C   UNL     1      -7.447   1.278 125.153  0.00  0.00    +0.000 C 
ATOM      9  O   UNL     1      -7.027   0.449 124.344  0.00  0.00    +0.000 OA
ATOM     10  N   UNL     1      -7.687   2.580 124.736  0.00  0.00    +0.000 N 
ATOM     11  H   UNL     1      -7.961   1.745 127.117  0.00  0.00    +0.000 HD
ATOM     12  H   UNL     1      -7.732   3.325 125.414  0.00  0.00    +0.000 HD
BRANCH  10  13
ATOM     13  C   UNL     1      -7.585   2.936 123.350  0.00  0.00    +0.000 A 
ATOM     14  C   UNL     1      -6.368   3.337 122.787  0.00  0.00    +0.000 A 
ATOM     15  C   UNL     1      -6.304   3.854 121.457  0.00  0.00    +0.000 A 
ATOM     16  C   UNL     1      -7.457   3.837 120.664  0.00  0.00    +0.000 A 
ATOM     17 CL   UNL     1      -7.494   4.303 119.002  0.00  0.00    +0.000 Cl
ATOM     18  C   UNL     1      -8.663   3.415 121.213  0.00  0.00    +0.000 A 
ATOM     19  C   UNL     1      -8.724   2.976 122.537  0.00  0.00    +0.000 A 
BRANCH  15  20
ATOM     20  C   UNL     1      -5.026   4.518 121.013  0.00  0.00    +0.000 C 
ATOM     21  F   UNL     1      -4.333   4.987 122.094  0.00  0.00    +0.000 F 
ATOM     22  F   UNL     1      -4.176   3.667 120.378  0.00  0.00    +0.000 F 
ATOM     23  F   UNL     1      -5.154   5.596 120.195  0.00  0.00    +0.000 F 
ENDBRANCH  15  20
ENDBRANCH  10  13
ENDBRANCH   4   7
BRANCH   1  24
ATOM     24  O   UNL     1      -6.775  -3.965 129.111  0.00  0.00    +0.000 OA
BRANCH  24  29
ATOM     25  C   UNL     1      -6.249  -2.833 132.543  0.00  0.00    +0.000 A 
ATOM     26  N   UNL     1      -5.448  -3.790 133.080  0.00  0.00    +0.000 NA
ATOM     27  C   UNL     1      -5.117  -4.829 132.291  0.00  0.00    +0.000 A 
ATOM     28  C   UNL     1      -5.538  -4.964 130.982  0.00  0.00    +0.000 A 
ATOM     29  C   UNL     1      -6.359  -3.980 130.436  0.00  0.00    +0.000 A 
ATOM     30  C   UNL     1      -6.732  -2.889 131.235  0.00  0.00    +0.000 A 
BRANCH  25  33
ATOM     31  C   UNL     1      -6.211   0.728 133.918  0.00  0.00    +0.000 C 
ATOM     32  N   UNL     1      -5.932  -0.457 133.136  0.00  0.00    +0.000 N 
ATOM     33  C   UNL     1      -6.544  -1.662 133.443  0.00  0.00    +0.000 C 
ATOM     34  O   UNL     1      -7.309  -1.783 134.405  0.00  0.00    +0.000 OA
ATOM     35  H   UNL     1      -5.417  -0.357 132.271  0.00  0.00    +0.000 HD
ENDBRANCH  25  33
ENDBRANCH  24  29
ENDBRANCH   1  24
TORSDOF 6
ENDMDL
MODEL 9
REMARK VINA RESULT:      -8.7      4.580      6.143
REMARK  Name = Sorafenib
REMARK  7 active torsions:
REMARK  status: ('A' for Active; 'I' for Inactive)
REMARK    1  A    between atoms: C_1  and  N_2
REMARK    2  A    between atoms: C_3  and  C_5
REMARK    3  A    between atoms: C_9  and  O_10
REMARK    4  A    between atoms: O_10  and  C_11
REMARK    5  A    between atoms: C_14  and  N_15
REMARK    6  A    between atoms: N_18  and  C_19
REMARK    7  A    between atoms: C_21  and  C_26
REMARK                            x       y       z     vdW  Elec       q    Type
REMARK                         _______ _______ _______ _____ _____    ______ ____
ROOT
ATOM      1  C   UNL     1      -5.051   1.858 132.609  0.00  0.00    +0.000 A 
ATOM      2  C   UNL     1      -5.504   2.024 131.296  0.00  0.00    +0.000 A 
ATOM      3  C   UNL     1      -6.824   2.479 131.028  0.00  0.00    +0.000 A 
ATOM      4  C   UNL     1      -7.730   2.707 132.076  0.00  0.00    +0.000 A 
ATOM      5  C   UNL     1      -7.223   2.574 133.375  0.00  0.00    +0.000 A 
ATOM      6  C   UNL     1      -5.909   2.185 133.645  0.00  0.00    +0.000 A 
ENDROOT
BRANCH   4   7
ATOM      7  N   UNL     1      -9.114   3.032 131.828  0.00  0.00    +0.000 N 
ATOM      8  C   UNL     1      -9.544   4.296 131.428  0.00  0.00    +0.000 C 
ATOM      9  O   UNL     1      -8.786   5.247 131.235  0.00  0.00    +0.000 OA
ATOM     10  N   UNL     1     -10.912   4.470 131.274  0.00  0.00    +0.000 N 
ATOM     11  H   UNL     1      -9.798   2.317 132.029  0.00  0.00    +0.000 HD
ATOM     12  H   UNL     1     -11.554   3.823 131.708  0.00  0.00    +0.000 HD
BRANCH  10  13
ATOM     13  C   UNL     1     -11.441   5.701 130.761  0.00  0.00    +0.000 A 
ATOM     14  C   UNL     1     -11.125   6.152 129.475  0.00  0.00    +0.000 A 
ATOM     15  C   UNL     1     -11.511   7.453 129.032  0.00  0.00    +0.000 A 
ATOM     16  C   UNL     1     -12.328   8.237 129.854  0.00  0.00    +0.000 A 
ATOM     17 CL   UNL     1     -12.978   9.768 129.392  0.00  0.00    +0.000 Cl
ATOM     18  C   UNL     1     -12.665   7.781 131.124  0.00  0.00    +0.000 A 
ATOM     19  C   UNL     1     -12.224   6.534 131.570  0.00  0.00    +0.000 A 
BRANCH  15  20
ATOM     20  C   UNL     1     -10.908   7.977 127.754  0.00  0.00    +0.000 C 
ATOM     21  F   UNL     1     -10.143   9.082 128.005  0.00  0.00    +0.000 F 
ATOM     22  F   UNL     1     -10.073   7.086 127.154  0.00  0.00    +0.000 F 
ATOM     23  F   UNL     1     -11.780   8.376 126.790  0.00  0.00    +0.000 F 
ENDBRANCH  15  20
ENDBRANCH  10  13
ENDBRANCH   4   7
BRANCH   1  24
ATOM     24  O   UNL     1      -3.747   1.465 132.839  0.00  0.00    +0.000 OA
BRANCH  24  29
ATOM     25  C   UNL     1      -2.030  -1.593 133.859  0.00  0.00    +0.000 A 
ATOM     26  N   UNL     1      -2.604  -2.557 133.093  0.00  0.00    +0.000 NA
ATOM     27  C   UNL     1      -3.590  -2.174 132.261  0.00  0.00    +0.000 A 
ATOM     28  C   UNL     1      -4.035  -0.871 132.143  0.00  0.00    +0.000 A 
ATOM     29  C   UNL     1      -3.442   0.114 132.931  0.00  0.00    +0.000 A 
ATOM     30  C   UNL     1      -2.419  -0.253 133.817  0.00  0.00    +0.000 A 
BRANCH  25  33
ATOM     31  C   UNL     1       0.222  -1.956 136.919  0.00  0.00    +0.000 C 
ATOM     32  N   UNL     1      -0.809  -1.518 136.004  0.00  0.00    +0.000 N 
ATOM     33  C   UNL     1      -0.892  -2.056 134.730  0.00  0.00    +0.000 C 
ATOM     34  O   UNL     1      -0.079  -2.888 134.314  0.00  0.00    +0.000 OA
ATOM     35  H   UNL     1      -1.559  -0.940 136.359  0.00  0.00    +0.000 HD
ENDBRANCH  25  33
ENDBRANCH  24  29
ENDBRANCH   1  24
TORSDOF 6
ENDMDL
