MODEL 1
REMARK VINA RESULT:      -7.5      0.000      0.000
REMARK  Name = Sotagliflozin
REMARK  11 active torsions:
REMARK  status: ('A' for Active; 'I' for Inactive)
REMARK    1  A    between atoms: C_1  and  C_2
REMARK    2  A    between atoms: C_2  and  O_3
REMARK    3  A    between atoms: O_3  and  C_4
REMARK    4  A    between atoms: C_7  and  C_8
REMARK    5  A    between atoms: C_8  and  C_9
REMARK    6  A    between atoms: C_11  and  C_16
REMARK    7  A    between atoms: C_18  and  S_19
REMARK    8  A    between atoms: S_19  and  C_20
REMARK    9  A    between atoms: C_21  and  O_22
REMARK   10  A    between atoms: C_23  and  O_24
REMARK   11  A    between atoms: C_25  and  O_26
REMARK                            x       y       z     vdW  Elec       q    Type
REMARK                         _______ _______ _______ _____ _____    ______ ____
ROOT
ATOM      1  C   UNL     1      -7.768  -1.348 123.743  0.00  0.00    +0.000 A 
ATOM      2  C   UNL     1      -7.460  -0.039 123.432  0.00  0.00    +0.000 A 
ATOM      3  C   UNL     1      -8.438   0.812 122.928  0.00  0.00    +0.000 A 
ATOM      4  C   UNL     1      -9.638   0.291 122.440  0.00  0.00    +0.000 A 
ATOM      5  C   UNL     1      -9.918  -1.055 122.653  0.00  0.00    +0.000 A 
ATOM      6  C   UNL     1      -9.027  -1.850 123.377  0.00  0.00    +0.000 A 
ATOM      7 CL   UNL     1      -9.473  -3.487 123.693  0.00  0.00    +0.000 Cl
ENDROOT
BRANCH   3   8
ATOM      8  C   UNL     1      -8.197   2.272 123.160  0.00  0.00    +0.000 C 
ATOM      9  O   UNL     1      -6.809   2.495 122.917  0.00  0.00    +0.000 OA
ATOM     10  C   UNL     1      -6.507   3.848 123.172  0.00  0.00    +0.000 C 
ATOM     11  C   UNL     1      -6.572   4.247 124.641  0.00  0.00    +0.000 C 
ATOM     12  C   UNL     1      -8.038   4.003 125.059  0.00  0.00    +0.000 C 
ATOM     13  C   UNL     1      -8.511   2.597 124.656  0.00  0.00    +0.000 C 
BRANCH  10  14
ATOM     14  S   UNL     1      -5.081   4.389 122.232  0.00  0.00    +0.000 S 
ATOM     15  C   UNL     1      -5.683   3.559 120.757  0.00  0.00    +0.000 C 
ENDBRANCH  10  14
BRANCH  11  16
ATOM     16  O   UNL     1      -6.257   5.634 124.831  0.00  0.00    +0.000 OA
ATOM     17  H   UNL     1      -6.429   5.875 125.758  0.00  0.00    +0.000 HD
ENDBRANCH  11  16
BRANCH  12  18
ATOM     18  O   UNL     1      -8.186   4.201 126.465  0.00  0.00    +0.000 OA
ATOM     19  H   UNL     1      -7.731   5.028 126.697  0.00  0.00    +0.000 HD
ENDBRANCH  12  18
BRANCH  13  20
ATOM     20  O   UNL     1      -9.896   2.415 124.955  0.00  0.00    +0.000 OA
ATOM     21  H   UNL     1     -10.071   1.474 125.113  0.00  0.00    +0.000 HD
ENDBRANCH  13  20
ENDBRANCH   3   8
BRANCH   1  22
ATOM     22  C   UNL     1      -6.659  -2.182 124.320  0.00  0.00    +0.000 C 
BRANCH  22  26
ATOM     23  C   UNL     1      -6.583  -2.091 128.625  0.00  0.00    +0.000 A 
ATOM     24  C   UNL     1      -7.698  -2.574 127.940  0.00  0.00    +0.000 A 
ATOM     25  C   UNL     1      -7.721  -2.627 126.549  0.00  0.00    +0.000 A 
ATOM     26  C   UNL     1      -6.633  -2.126 125.826  0.00  0.00    +0.000 A 
ATOM     27  C   UNL     1      -5.541  -1.600 126.534  0.00  0.00    +0.000 A 
ATOM     28  C   UNL     1      -5.483  -1.628 127.909  0.00  0.00    +0.000 A 
BRANCH  23  29
ATOM     29  O   UNL     1      -6.609  -2.164 129.984  0.00  0.00    +0.000 OA
BRANCH  29  31
ATOM     30  C   UNL     1      -5.816  -4.340 130.491  0.00  0.00    +0.000 C 
ATOM     31  C   UNL     1      -7.022  -3.429 130.504  0.00  0.00    +0.000 C 
ENDBRANCH  29  31
ENDBRANCH  23  29
ENDBRANCH  22  26
ENDBRANCH   1  22
TORSDOF 9
ENDMDL
MODEL 2
REMARK VINA RESULT:      -7.3      6.023      9.096
REMARK  Name = Sotagliflozin
REMARK  11 active torsions:
REMARK  status: ('A' for Active; 'I' for Inactive)
REMARK    1  A    between atoms: C_1  and  C_2
REMARK    2  A    between atoms: C_2  and  O_3
REMARK    3  A    between atoms: O_3  and  C_4
REMARK    4  A    between atoms: C_7  and  C_8
REMARK    5  A    between atoms: C_8  and  C_9
REMARK    6  A    between atoms: C_11  and  C_16
REMARK    7  A    between atoms: C_18  and  S_19
REMARK    8  A    between atoms: S_19  and  C_20
REMARK    9  A    between atoms: C_21  and  O_22
REMARK   10  A    between atoms: C_23  and  O_24
REMARK   11  A    between atoms: C_25  and  O_26
REMARK                            x       y       z     vdW  Elec       q    Type
REMARK                         _______ _______ _______ _____ _____    ______ ____
ROOT
ATOM      1  C   UNL     1      -7.983   4.596 131.689  0.00  0.00    +0.000 A 
ATOM      2  C   UNL     1      -7.230   4.376 130.553  0.00  0.00    +0.000 A 
ATOM      3  C   UNL     1      -6.953   3.078 130.135  0.00  0.00    +0.000 A 
ATOM      4  C   UNL     1      -7.154   2.003 131.003  0.00  0.00    +0.000 A 
ATOM      5  C   UNL     1      -7.820   2.229 132.204  0.00  0.00    +0.000 A 
ATOM      6  C   UNL     1      -8.308   3.502 132.505  0.00  0.00    +0.000 A 
ATOM      7 CL   UNL     1      -9.211   3.700 133.963  0.00  0.00    +0.000 Cl
ENDROOT
BRANCH   3   8
ATOM      8  C   UNL     1      -6.660   2.926 128.674  0.00  0.00    +0.000 C 
ATOM      9  O   UNL     1      -5.556   3.785 128.392  0.00  0.00    +0.000 OA
ATOM     10  C   UNL     1      -5.265   3.727 127.015  0.00  0.00    +0.000 C 
ATOM     11  C   UNL     1      -6.317   4.365 126.117  0.00  0.00    +0.000 C 
ATOM     12  C   UNL     1      -7.605   3.551 126.363  0.00  0.00    +0.000 C 
ATOM     13  C   UNL     1      -7.904   3.413 127.864  0.00  0.00    +0.000 C 
BRANCH  10  14
ATOM     14  S   UNL     1      -3.549   4.125 126.691  0.00  0.00    +0.000 S 
ATOM     15  C   UNL     1      -3.598   5.488 127.860  0.00  0.00    +0.000 C 
ENDBRANCH  10  14
BRANCH  11  16
ATOM     16  O   UNL     1      -5.961   4.269 124.729  0.00  0.00    +0.000 OA
ATOM     17  H   UNL     1      -5.169   4.811 124.565  0.00  0.00    +0.000 HD
ENDBRANCH  11  16
BRANCH  12  18
ATOM     18  O   UNL     1      -8.705   4.156 125.682  0.00  0.00    +0.000 OA
ATOM     19  H   UNL     1      -9.523   3.764 126.035  0.00  0.00    +0.000 HD
ENDBRANCH  12  18
BRANCH  13  20
ATOM     20  O   UNL     1      -9.040   2.574 128.086  0.00  0.00    +0.000 OA
ATOM     21  H   UNL     1      -9.802   2.929 127.603  0.00  0.00    +0.000 HD
ENDBRANCH  13  20
ENDBRANCH   3   8
BRANCH   1  22
ATOM     22  C   UNL     1      -8.265   6.030 132.042  0.00  0.00    +0.000 C 
BRANCH  22  26
ATOM     23  C   UNL     1     -11.854   7.430 130.118  0.00  0.00    +0.000 A 
ATOM     24  C   UNL     1     -10.601   7.667 129.552  0.00  0.00    +0.000 A 
ATOM     25  C   UNL     1      -9.438   7.199 130.157  0.00  0.00    +0.000 A 
ATOM     26  C   UNL     1      -9.524   6.536 131.386  0.00  0.00    +0.000 A 
ATOM     27  C   UNL     1     -10.791   6.350 131.962  0.00  0.00    +0.000 A 
ATOM     28  C   UNL     1     -11.946   6.737 131.321  0.00  0.00    +0.000 A 
BRANCH  23  29
ATOM     29  O   UNL     1     -12.944   7.841 129.411  0.00  0.00    +0.000 OA
BRANCH  29  31
ATOM     30  C   UNL     1     -13.264  10.136 129.913  0.00  0.00    +0.000 C 
ATOM     31  C   UNL     1     -12.829   9.151 128.852  0.00  0.00    +0.000 C 
ENDBRANCH  29  31
ENDBRANCH  23  29
ENDBRANCH  22  26
ENDBRANCH   1  22
TORSDOF 9
ENDMDL
MODEL 3
REMARK VINA RESULT:      -7.2      5.110      7.143
REMARK  Name = Sotagliflozin
REMARK  11 active torsions:
REMARK  status: ('A' for Active; 'I' for Inactive)
REMARK    1  A    between atoms: C_1  and  C_2
REMARK    2  A    between atoms: C_2  and  O_3
REMARK    3  A    between atoms: O_3  and  C_4
REMARK    4  A    between atoms: C_7  and  C_8
REMARK    5  A    between atoms: C_8  and  C_9
REMARK    6  A    between atoms: C_11  and  C_16
REMARK    7  A    between atoms: C_18  and  S_19
REMARK    8  A    between atoms: S_19  and  C_20
REMARK    9  A    between atoms: C_21  and  O_22
REMARK   10  A    between atoms: C_23  and  O_24
REMARK   11  A    between atoms: C_25  and  O_26
REMARK                            x       y       z     vdW  Elec       q    Type
REMARK                         _______ _______ _______ _____ _____    ______ ____
ROOT
ATOM      1  C   UNL     1      -8.054   1.195 129.881  0.00  0.00    +0.000 A 
ATOM      2  C   UNL     1      -8.773   2.371 129.811  0.00  0.00    +0.000 A 
ATOM      3  C   UNL     1      -9.608   2.746 130.859  0.00  0.00    +0.000 A 
ATOM      4  C   UNL     1      -9.972   1.816 131.835  0.00  0.00    +0.000 A 
ATOM      5  C   UNL     1      -9.330   0.582 131.854  0.00  0.00    +0.000 A 
ATOM      6  C   UNL     1      -8.314   0.306 130.936  0.00  0.00    +0.000 A 
ATOM      7 CL   UNL     1      -7.487  -1.203 131.071  0.00  0.00    +0.000 Cl
ENDROOT
BRANCH   3   8
ATOM      8  C   UNL     1      -9.876   4.216 130.968  0.00  0.00    +0.000 C 
ATOM      9  O   UNL     1     -10.707   4.557 129.859  0.00  0.00    +0.000 OA
ATOM     10  C   UNL     1     -10.952   5.945 129.876  0.00  0.00    +0.000 C 
ATOM     11  C   UNL     1      -9.738   6.807 129.555  0.00  0.00    +0.000 C 
ATOM     12  C   UNL     1      -8.716   6.494 130.669  0.00  0.00    +0.000 C 
ATOM     13  C   UNL     1      -8.519   4.979 130.841  0.00  0.00    +0.000 C 
BRANCH  10  14
ATOM     14  S   UNL     1     -12.492   6.348 129.054  0.00  0.00    +0.000 S 
ATOM     15  C   UNL     1     -13.097   7.205 130.512  0.00  0.00    +0.000 C 
ENDBRANCH  10  14
BRANCH  11  16
ATOM     16  O   UNL     1     -10.054   8.207 129.591  0.00  0.00    +0.000 OA
ATOM     17  H   UNL     1      -9.962   8.577 128.695  0.00  0.00    +0.000 HD
ENDBRANCH  11  16
BRANCH  12  18
ATOM     18  O   UNL     1      -7.472   7.136 130.388  0.00  0.00    +0.000 OA
ATOM     19  H   UNL     1      -7.543   7.548 129.510  0.00  0.00    +0.000 HD
ENDBRANCH  12  18
BRANCH  13  20
ATOM     20  O   UNL     1      -7.650   4.696 131.940  0.00  0.00    +0.000 OA
ATOM     21  H   UNL     1      -8.138   4.200 132.616  0.00  0.00    +0.000 HD
ENDBRANCH  13  20
ENDBRANCH   3   8
BRANCH   1  22
ATOM     22  C   UNL     1      -7.147   0.890 128.721  0.00  0.00    +0.000 C 
BRANCH  22  26
ATOM     23  C   UNL     1      -9.136  -1.556 125.789  0.00  0.00    +0.000 A 
ATOM     24  C   UNL     1      -8.322  -2.131 126.765  0.00  0.00    +0.000 A 
ATOM     25  C   UNL     1      -7.692  -1.348 127.729  0.00  0.00    +0.000 A 
ATOM     26  C   UNL     1      -7.828   0.043 127.678  0.00  0.00    +0.000 A 
ATOM     27  C   UNL     1      -8.614   0.604 126.659  0.00  0.00    +0.000 A 
ATOM     28  C   UNL     1      -9.305  -0.175 125.759  0.00  0.00    +0.000 A 
BRANCH  23  29
ATOM     29  O   UNL     1      -9.787  -2.404 124.944  0.00  0.00    +0.000 OA
BRANCH  29  31
ATOM     30  C   UNL     1      -8.521  -2.503 122.942  0.00  0.00    +0.000 C 
ATOM     31  C   UNL     1      -8.931  -3.259 124.185  0.00  0.00    +0.000 C 
ENDBRANCH  29  31
ENDBRANCH  23  29
ENDBRANCH  22  26
ENDBRANCH   1  22
TORSDOF 9
ENDMDL
MODEL 4
REMARK VINA RESULT:      -7.1      5.143      8.314
REMARK  Name = Sotagliflozin
REMARK  11 active torsions:
REMARK  status: ('A' for Active; 'I' for Inactive)
REMARK    1  A    between atoms: C_1  and  C_2
REMARK    2  A    between atoms: C_2  and  O_3
REMARK    3  A    between atoms: O_3  and  C_4
REMARK    4  A    between atoms: C_7  and  C_8
REMARK    5  A    between atoms: C_8  and  C_9
REMARK    6  A    between atoms: C_11  and  C_16
REMARK    7  A    between atoms: C_18  and  S_19
REMARK    8  A    between atoms: S_19  and  C_20
REMARK    9  A    between atoms: C_21  and  O_22
REMARK   10  A    between atoms: C_23  and  O_24
REMARK   11  A    between atoms: C_25  and  O_26
REMARK                            x       y       z     vdW  Elec       q    Type
REMARK                         _______ _______ _______ _____ _____    ______ ____
ROOT
ATOM      1  C   UNL     1      -6.081   3.772 128.693  0.00  0.00    +0.000 A 
ATOM      2  C   UNL     1      -7.434   3.855 128.955  0.00  0.00    +0.000 A 
ATOM      3  C   UNL     1      -7.930   4.866 129.772  0.00  0.00    +0.000 A 
ATOM      4  C   UNL     1      -7.063   5.606 130.579  0.00  0.00    +0.000 A 
ATOM      5  C   UNL     1      -5.691   5.455 130.400  0.00  0.00    +0.000 A 
ATOM      6  C   UNL     1      -5.204   4.607 129.402  0.00  0.00    +0.000 A 
ATOM      7 CL   UNL     1      -3.496   4.535 129.162  0.00  0.00    +0.000 Cl
ENDROOT
BRANCH   3   8
ATOM      8  C   UNL     1      -9.366   5.224 129.546  0.00  0.00    +0.000 C 
ATOM      9  O   UNL     1      -9.372   6.540 128.994  0.00  0.00    +0.000 OA
ATOM     10  C   UNL     1     -10.705   6.957 128.807  0.00  0.00    +0.000 C 
ATOM     11  C   UNL     1     -11.474   7.221 130.095  0.00  0.00    +0.000 C 
ATOM     12  C   UNL     1     -11.501   5.865 130.833  0.00  0.00    +0.000 C 
ATOM     13  C   UNL     1     -10.096   5.248 130.927  0.00  0.00    +0.000 C 
BRANCH  10  14
ATOM     14  S   UNL     1     -10.833   8.178 127.503  0.00  0.00    +0.000 S 
ATOM     15  C   UNL     1     -11.914   7.110 126.546  0.00  0.00    +0.000 C 
ENDBRANCH  10  14
BRANCH  11  16
ATOM     16  O   UNL     1     -12.822   7.638 129.835  0.00  0.00    +0.000 OA
ATOM     17  H   UNL     1     -13.436   7.006 130.250  0.00  0.00    +0.000 HD
ENDBRANCH  11  16
BRANCH  12  18
ATOM     18  O   UNL     1     -12.069   6.026 132.133  0.00  0.00    +0.000 OA
ATOM     19  H   UNL     1     -12.940   5.593 132.132  0.00  0.00    +0.000 HD
ENDBRANCH  12  18
BRANCH  13  20
ATOM     20  O   UNL     1     -10.144   3.949 131.521  0.00  0.00    +0.000 OA
ATOM     21  H   UNL     1     -10.336   4.035 132.467  0.00  0.00    +0.000 HD
ENDBRANCH  13  20
ENDBRANCH   3   8
BRANCH   1  22
ATOM     22  C   UNL     1      -5.641   2.673 127.767  0.00  0.00    +0.000 C 
BRANCH  22  26
ATOM     23  C   UNL     1      -6.652   3.474 123.659  0.00  0.00    +0.000 A 
ATOM     24  C   UNL     1      -5.977   4.423 124.427  0.00  0.00    +0.000 A 
ATOM     25  C   UNL     1      -5.628   4.163 125.749  0.00  0.00    +0.000 A 
ATOM     26  C   UNL     1      -6.018   2.954 126.335  0.00  0.00    +0.000 A 
ATOM     27  C   UNL     1      -6.738   2.032 125.559  0.00  0.00    +0.000 A 
ATOM     28  C   UNL     1      -7.007   2.255 124.227  0.00  0.00    +0.000 A 
BRANCH  23  29
ATOM     29  O   UNL     1      -6.869   3.775 122.348  0.00  0.00    +0.000 OA
BRANCH  29  31
ATOM     30  C   UNL     1      -5.182   4.261 120.754  0.00  0.00    +0.000 C 
ATOM     31  C   UNL     1      -5.957   3.158 121.438  0.00  0.00    +0.000 C 
ENDBRANCH  29  31
ENDBRANCH  23  29
ENDBRANCH  22  26
ENDBRANCH   1  22
TORSDOF 9
ENDMDL
MODEL 5
REMARK VINA RESULT:      -7.1      1.828      2.418
REMARK  Name = Sotagliflozin
REMARK  11 active torsions:
REMARK  status: ('A' for Active; 'I' for Inactive)
REMARK    1  A    between atoms: C_1  and  C_2
REMARK    2  A    between atoms: C_2  and  O_3
REMARK    3  A    between atoms: O_3  and  C_4
REMARK    4  A    between atoms: C_7  and  C_8
REMARK    5  A    between atoms: C_8  and  C_9
REMARK    6  A    between atoms: C_11  and  C_16
REMARK    7  A    between atoms: C_18  and  S_19
REMARK    8  A    between atoms: S_19  and  C_20
REMARK    9  A    between atoms: C_21  and  O_22
REMARK   10  A    between atoms: C_23  and  O_24
REMARK   11  A    between atoms: C_25  and  O_26
REMARK                            x       y       z     vdW  Elec       q    Type
REMARK                         _______ _______ _______ _____ _____    ______ ____
ROOT
ATOM      1  C   UNL     1      -8.385  -1.534 125.148  0.00  0.00    +0.000 A 
ATOM      2  C   UNL     1      -7.618  -0.392 125.264  0.00  0.00    +0.000 A 
ATOM      3  C   UNL     1      -7.015   0.166 124.141  0.00  0.00    +0.000 A 
ATOM      4  C   UNL     1      -6.912  -0.571 122.960  0.00  0.00    +0.000 A 
ATOM      5  C   UNL     1      -7.595  -1.780 122.864  0.00  0.00    +0.000 A 
ATOM      6  C   UNL     1      -8.398  -2.216 123.921  0.00  0.00    +0.000 A 
ATOM      7 CL   UNL     1      -9.299  -3.673 123.707  0.00  0.00    +0.000 Cl
ENDROOT
BRANCH   3   8
ATOM      8  C   UNL     1      -6.714   1.630 124.238  0.00  0.00    +0.000 C 
ATOM      9  O   UNL     1      -5.806   1.784 125.328  0.00  0.00    +0.000 OA
ATOM     10  C   UNL     1      -5.526   3.154 125.505  0.00  0.00    +0.000 C 
ATOM     11  C   UNL     1      -6.693   3.978 126.031  0.00  0.00    +0.000 C 
ATOM     12  C   UNL     1      -7.790   3.856 124.952  0.00  0.00    +0.000 C 
ATOM     13  C   UNL     1      -8.040   2.389 124.567  0.00  0.00    +0.000 C 
BRANCH  10  14
ATOM     14  S   UNL     1      -3.927   3.400 126.274  0.00  0.00    +0.000 S 
ATOM     15  C   UNL     1      -4.516   2.709 127.824  0.00  0.00    +0.000 C 
ENDBRANCH  10  14
BRANCH  11  16
ATOM     16  O   UNL     1      -6.342   5.362 126.186  0.00  0.00    +0.000 OA
ATOM     17  H   UNL     1      -6.215   5.758 125.305  0.00  0.00    +0.000 HD
ENDBRANCH  11  16
BRANCH  12  18
ATOM     18  O   UNL     1      -8.997   4.470 125.409  0.00  0.00    +0.000 OA
ATOM     19  H   UNL     1      -9.177   5.233 124.833  0.00  0.00    +0.000 HD
ENDBRANCH  12  18
BRANCH  13  20
ATOM     20  O   UNL     1      -8.983   2.291 123.498  0.00  0.00    +0.000 OA
ATOM     21  H   UNL     1      -9.163   3.177 123.146  0.00  0.00    +0.000 HD
ENDBRANCH  13  20
ENDBRANCH   3   8
BRANCH   1  22
ATOM     22  C   UNL     1      -9.030  -2.042 126.407  0.00  0.00    +0.000 C 
BRANCH  22  26
ATOM     23  C   UNL     1      -6.125  -3.230 129.355  0.00  0.00    +0.000 A 
ATOM     24  C   UNL     1      -7.466  -3.589 129.488  0.00  0.00    +0.000 A 
ATOM     25  C   UNL     1      -8.407  -3.227 128.528  0.00  0.00    +0.000 A 
ATOM     26  C   UNL     1      -8.012  -2.434 127.445  0.00  0.00    +0.000 A 
ATOM     27  C   UNL     1      -6.666  -2.044 127.356  0.00  0.00    +0.000 A 
ATOM     28  C   UNL     1      -5.720  -2.474 128.259  0.00  0.00    +0.000 A 
BRANCH  23  29
ATOM     29  O   UNL     1      -5.258  -3.706 130.291  0.00  0.00    +0.000 OA
BRANCH  29  31
ATOM     30  C   UNL     1      -5.301  -4.996 132.280  0.00  0.00    +0.000 C 
ATOM     31  C   UNL     1      -5.582  -5.003 130.795  0.00  0.00    +0.000 C 
ENDBRANCH  29  31
ENDBRANCH  23  29
ENDBRANCH  22  26
ENDBRANCH   1  22
TORSDOF 9
ENDMDL
MODEL 6
REMARK VINA RESULT:      -6.9      4.092      6.522
REMARK  Name = Sotagliflozin
REMARK  11 active torsions:
REMARK  status: ('A' for Active; 'I' for Inactive)
REMARK    1  A    between atoms: C_1  and  C_2
REMARK    2  A    between atoms: C_2  and  O_3
REMARK    3  A    between atoms: O_3  and  C_4
REMARK    4  A    between atoms: C_7  and  C_8
REMARK    5  A    between atoms: C_8  and  C_9
REMARK    6  A    between atoms: C_11  and  C_16
REMARK    7  A    between atoms: C_18  and  S_19
REMARK    8  A    between atoms: S_19  and  C_20
REMARK    9  A    between atoms: C_21  and  O_22
REMARK   10  A    between atoms: C_23  and  O_24
REMARK   11  A    between atoms: C_25  and  O_26
REMARK                            x       y       z     vdW  Elec       q    Type
REMARK                         _______ _______ _______ _____ _____    ______ ____
ROOT
ATOM      1  C   UNL     1      -7.409  -1.526 131.208  0.00  0.00    +0.000 A 
ATOM      2  C   UNL     1      -8.286  -0.558 130.761  0.00  0.00    +0.000 A 
ATOM      3  C   UNL     1      -8.152   0.760 131.185  0.00  0.00    +0.000 A 
ATOM      4  C   UNL     1      -7.350   1.066 132.286  0.00  0.00    +0.000 A 
ATOM      5  C   UNL     1      -6.536   0.071 132.817  0.00  0.00    +0.000 A 
ATOM      6  C   UNL     1      -6.501  -1.195 132.227  0.00  0.00    +0.000 A 
ATOM      7 CL   UNL     1      -5.400  -2.359 132.870  0.00  0.00    +0.000 Cl
ENDROOT
BRANCH   3   8
ATOM      8  C   UNL     1      -8.728   1.790 130.261  0.00  0.00    +0.000 C 
ATOM      9  O   UNL     1      -7.620   2.422 129.621  0.00  0.00    +0.000 OA
ATOM     10  C   UNL     1      -8.097   3.443 128.775  0.00  0.00    +0.000 C 
ATOM     11  C   UNL     1      -8.688   4.645 129.501  0.00  0.00    +0.000 C 
ATOM     12  C   UNL     1      -9.890   4.086 130.292  0.00  0.00    +0.000 C 
ATOM     13  C   UNL     1      -9.496   2.850 131.115  0.00  0.00    +0.000 C 
BRANCH  10  14
ATOM     14  S   UNL     1      -6.956   3.767 127.433  0.00  0.00    +0.000 S 
ATOM     15  C   UNL     1      -7.945   2.789 126.296  0.00  0.00    +0.000 C 
ENDBRANCH  10  14
BRANCH  11  16
ATOM     16  O   UNL     1      -9.157   5.644 128.583  0.00  0.00    +0.000 OA
ATOM     17  H   UNL     1     -10.079   5.869 128.801  0.00  0.00    +0.000 HD
ENDBRANCH  11  16
BRANCH  12  18
ATOM     18  O   UNL     1     -10.436   5.100 131.136  0.00  0.00    +0.000 OA
ATOM     19  H   UNL     1     -10.076   5.955 130.842  0.00  0.00    +0.000 HD
ENDBRANCH  12  18
BRANCH  13  20
ATOM     20  O   UNL     1     -10.634   2.279 131.764  0.00  0.00    +0.000 OA
ATOM     21  H   UNL     1     -10.343   1.575 132.364  0.00  0.00    +0.000 HD
ENDBRANCH  13  20
ENDBRANCH   3   8
BRANCH   1  22
ATOM     22  C   UNL     1      -7.604  -2.914 130.667  0.00  0.00    +0.000 C 
BRANCH  22  26
ATOM     23  C   UNL     1      -7.650  -2.941 126.361  0.00  0.00    +0.000 A 
ATOM     24  C   UNL     1      -8.666  -3.559 127.090  0.00  0.00    +0.000 A 
ATOM     25  C   UNL     1      -8.669  -3.536 128.482  0.00  0.00    +0.000 A 
ATOM     26  C   UNL     1      -7.601  -2.938 129.160  0.00  0.00    +0.000 A 
ATOM     27  C   UNL     1      -6.565  -2.364 128.407  0.00  0.00    +0.000 A 
ATOM     28  C   UNL     1      -6.606  -2.312 127.032  0.00  0.00    +0.000 A 
BRANCH  23  29
ATOM     29  O   UNL     1      -7.776  -2.930 125.005  0.00  0.00    +0.000 OA
BRANCH  29  31
ATOM     30  C   UNL     1      -9.528  -3.228 123.435  0.00  0.00    +0.000 C 
ATOM     31  C   UNL     1      -8.982  -2.334 124.525  0.00  0.00    +0.000 C 
ENDBRANCH  29  31
ENDBRANCH  23  29
ENDBRANCH  22  26
ENDBRANCH   1  22
TORSDOF 9
ENDMDL
MODEL 7
REMARK VINA RESULT:      -6.9      1.697      2.363
REMARK  Name = Sotagliflozin
REMARK  11 active torsions:
REMARK  status: ('A' for Active; 'I' for Inactive)
REMARK    1  A    between atoms: C_1  and  C_2
REMARK    2  A    between atoms: C_2  and  O_3
REMARK    3  A    between atoms: O_3  and  C_4
REMARK    4  A    between atoms: C_7  and  C_8
REMARK    5  A    between atoms: C_8  and  C_9
REMARK    6  A    between atoms: C_11  and  C_16
REMARK    7  A    between atoms: C_18  and  S_19
REMARK    8  A    between atoms: S_19  and  C_20
REMARK    9  A    between atoms: C_21  and  O_22
REMARK   10  A    between atoms: C_23  and  O_24
REMARK   11  A    between atoms: C_25  and  O_26
REMARK                            x       y       z     vdW  Elec       q    Type
REMARK                         _______ _______ _______ _____ _____    ______ ____
ROOT
ATOM      1  C   UNL     1      -7.708  -1.740 124.120  0.00  0.00    +0.000 A 
ATOM      2  C   UNL     1      -7.043  -0.531 124.065  0.00  0.00    +0.000 A 
ATOM      3  C   UNL     1      -7.669   0.590 123.529  0.00  0.00    +0.000 A 
ATOM      4  C   UNL     1      -8.830   0.449 122.766  0.00  0.00    +0.000 A 
ATOM      5  C   UNL     1      -9.456  -0.793 122.725  0.00  0.00    +0.000 A 
ATOM      6  C   UNL     1      -8.945  -1.860 123.469  0.00  0.00    +0.000 A 
ATOM      7 CL   UNL     1      -9.819  -3.348 123.456  0.00  0.00    +0.000 Cl
ENDROOT
BRANCH   3   8
ATOM      8  C   UNL     1      -7.145   1.907 124.012  0.00  0.00    +0.000 C 
ATOM      9  O   UNL     1      -6.375   1.631 125.181  0.00  0.00    +0.000 OA
ATOM     10  C   UNL     1      -5.896   2.843 125.716  0.00  0.00    +0.000 C 
ATOM     11  C   UNL     1      -6.970   3.735 126.327  0.00  0.00    +0.000 C 
ATOM     12  C   UNL     1      -7.921   4.076 125.161  0.00  0.00    +0.000 C 
ATOM     13  C   UNL     1      -8.358   2.812 124.403  0.00  0.00    +0.000 C 
BRANCH  10  14
ATOM     14  S   UNL     1      -4.393   2.595 126.659  0.00  0.00    +0.000 S 
ATOM     15  C   UNL     1      -5.138   1.240 127.574  0.00  0.00    +0.000 C 
ENDBRANCH  10  14
BRANCH  11  16
ATOM     16  O   UNL     1      -6.417   4.952 126.851  0.00  0.00    +0.000 OA
ATOM     17  H   UNL     1      -7.023   5.688 126.651  0.00  0.00    +0.000 HD
ENDBRANCH  11  16
BRANCH  12  18
ATOM     18  O   UNL     1      -9.058   4.790 125.648  0.00  0.00    +0.000 OA
ATOM     19  H   UNL     1      -8.743   5.436 126.303  0.00  0.00    +0.000 HD
ENDBRANCH  12  18
BRANCH  13  20
ATOM     20  O   UNL     1      -9.156   3.144 123.265  0.00  0.00    +0.000 OA
ATOM     21  H   UNL     1      -8.611   3.620 122.619  0.00  0.00    +0.000 HD
ENDBRANCH  13  20
ENDBRANCH   3   8
BRANCH   1  22
ATOM     22  C   UNL     1      -6.969  -2.886 124.752  0.00  0.00    +0.000 C 
BRANCH  22  26
ATOM     23  C   UNL     1      -7.825  -3.160 128.964  0.00  0.00    +0.000 A 
ATOM     24  C   UNL     1      -6.648  -2.563 128.511  0.00  0.00    +0.000 A 
ATOM     25  C   UNL     1      -6.374  -2.451 127.151  0.00  0.00    +0.000 A 
ATOM     26  C   UNL     1      -7.265  -3.006 126.225  0.00  0.00    +0.000 A 
ATOM     27  C   UNL     1      -8.420  -3.644 126.704  0.00  0.00    +0.000 A 
ATOM     28  C   UNL     1      -8.732  -3.677 128.044  0.00  0.00    +0.000 A 
BRANCH  23  29
ATOM     29  O   UNL     1      -8.055  -3.141 130.306  0.00  0.00    +0.000 OA
BRANCH  29  31
ATOM     30  C   UNL     1      -6.987  -2.339 132.265  0.00  0.00    +0.000 C 
ATOM     31  C   UNL     1      -6.888  -3.311 131.111  0.00  0.00    +0.000 C 
ENDBRANCH  29  31
ENDBRANCH  23  29
ENDBRANCH  22  26
ENDBRANCH   1  22
TORSDOF 9
ENDMDL
MODEL 8
REMARK VINA RESULT:      -6.8      5.107      8.015
REMARK  Name = Sotagliflozin
REMARK  11 active torsions:
REMARK  status: ('A' for Active; 'I' for Inactive)
REMARK    1  A    between atoms: C_1  and  C_2
REMARK    2  A    between atoms: C_2  and  O_3
REMARK    3  A    between atoms: O_3  and  C_4
REMARK    4  A    between atoms: C_7  and  C_8
REMARK    5  A    between atoms: C_8  and  C_9
REMARK    6  A    between atoms: C_11  and  C_16
REMARK    7  A    between atoms: C_18  and  S_19
REMARK    8  A    between atoms: S_19  and  C_20
REMARK    9  A    between atoms: C_21  and  O_22
REMARK   10  A    between atoms: C_23  and  O_24
REMARK   11  A    between atoms: C_25  and  O_26
REMARK                            x       y       z     vdW  Elec       q    Type
REMARK                         _______ _______ _______ _____ _____    ______ ____
ROOT
ATOM      1  C   UNL     1      -7.914   2.628 129.647  0.00  0.00    +0.000 A 
ATOM      2  C   UNL     1      -8.643   2.403 128.496  0.00  0.00    +0.000 A 
ATOM      3  C   UNL     1      -8.013   1.938 127.346  0.00  0.00    +0.000 A 
ATOM      4  C   UNL     1      -6.622   1.991 127.236  0.00  0.00    +0.000 A 
ATOM      5  C   UNL     1      -5.875   2.321 128.363  0.00  0.00    +0.000 A 
ATOM      6  C   UNL     1      -6.513   2.553 129.583  0.00  0.00    +0.000 A 
ATOM      7 CL   UNL     1      -5.529   2.862 130.967  0.00  0.00    +0.000 Cl
ENDROOT
BRANCH   3   8
ATOM      8  C   UNL     1      -8.897   1.202 126.386  0.00  0.00    +0.000 C 
ATOM      9  O   UNL     1      -8.359  -0.114 126.270  0.00  0.00    +0.000 OA
ATOM     10  C   UNL     1      -9.120  -0.843 125.335  0.00  0.00    +0.000 C 
ATOM     11  C   UNL     1      -8.966  -0.380 123.892  0.00  0.00    +0.000 C 
ATOM     12  C   UNL     1      -9.473   1.077 123.881  0.00  0.00    +0.000 C 
ATOM     13  C   UNL     1      -8.818   1.909 124.995  0.00  0.00    +0.000 C 
BRANCH  10  14
ATOM     14  S   UNL     1      -9.035  -2.604 125.652  0.00  0.00    +0.000 S 
ATOM     15  C   UNL     1      -7.296  -2.646 125.201  0.00  0.00    +0.000 C 
ENDBRANCH  10  14
BRANCH  11  16
ATOM     16  O   UNL     1      -9.768  -1.161 122.993  0.00  0.00    +0.000 OA
ATOM     17  H   UNL     1      -9.307  -1.997 122.800  0.00  0.00    +0.000 HD
ENDBRANCH  11  16
BRANCH  12  18
ATOM     18  O   UNL     1      -9.234   1.669 122.603  0.00  0.00    +0.000 OA
ATOM     19  H   UNL     1      -8.283   1.864 122.540  0.00  0.00    +0.000 HD
ENDBRANCH  12  18
BRANCH  13  20
ATOM     20  O   UNL     1      -9.366   3.228 125.042  0.00  0.00    +0.000 OA
ATOM     21  H   UNL     1      -9.907   3.380 124.251  0.00  0.00    +0.000 HD
ENDBRANCH  13  20
ENDBRANCH   3   8
BRANCH   1  22
ATOM     22  C   UNL     1      -8.684   3.091 130.852  0.00  0.00    +0.000 C 
BRANCH  22  26
ATOM     23  C   UNL     1     -10.737   6.820 130.203  0.00  0.00    +0.000 A 
ATOM     24  C   UNL     1     -11.444   5.619 130.281  0.00  0.00    +0.000 A 
ATOM     25  C   UNL     1     -10.789   4.413 130.512  0.00  0.00    +0.000 A 
ATOM     26  C   UNL     1      -9.393   4.397 130.602  0.00  0.00    +0.000 A 
ATOM     27  C   UNL     1      -8.698   5.610 130.473  0.00  0.00    +0.000 A 
ATOM     28  C   UNL     1      -9.352   6.813 130.331  0.00  0.00    +0.000 A 
BRANCH  23  29
ATOM     29  O   UNL     1     -11.467   7.962 130.069  0.00  0.00    +0.000 OA
BRANCH  29  31
ATOM     30  C   UNL     1     -13.030   8.798 128.494  0.00  0.00    +0.000 C 
ATOM     31  C   UNL     1     -11.580   8.442 128.728  0.00  0.00    +0.000 C 
ENDBRANCH  29  31
ENDBRANCH  23  29
ENDBRANCH  22  26
ENDBRANCH   1  22
TORSDOF 9
ENDMDL
MODEL 9
REMARK VINA RESULT:      -6.6      4.620      6.569
REMARK  Name = Sotagliflozin
REMARK  11 active torsions:
REMARK  status: ('A' for Active; 'I' for Inactive)
REMARK    1  A    between atoms: C_1  and  C_2
REMARK    2  A    between atoms: C_2  and  O_3
REMARK    3  A    between atoms: O_3  and  C_4
REMARK    4  A    between atoms: C_7  and  C_8
REMARK    5  A    between atoms: C_8  and  C_9
REMARK    6  A    between atoms: C_11  and  C_16
REMARK    7  A    between atoms: C_18  and  S_19
REMARK    8  A    between atoms: S_19  and  C_20
REMARK    9  A    between atoms: C_21  and  O_22
REMARK   10  A    between atoms: C_23  and  O_24
REMARK   11  A    between atoms: C_25  and  O_26
REMARK                            x       y       z     vdW  Elec       q    Type
REMARK                         _______ _______ _______ _____ _____    ______ ____
ROOT
ATOM      1  C   UNL     1      -7.303  -0.390 130.509  0.00  0.00    +0.000 A 
ATOM      2  C   UNL     1      -7.569   0.810 129.880  0.00  0.00    +0.000 A 
ATOM      3  C   UNL     1      -8.391   1.754 130.488  0.00  0.00    +0.000 A 
ATOM      4  C   UNL     1      -9.198   1.391 131.568  0.00  0.00    +0.000 A 
ATOM      5  C   UNL     1      -9.015   0.140 132.148  0.00  0.00    +0.000 A 
ATOM      6  C   UNL     1      -8.013  -0.712 131.676  0.00  0.00    +0.000 A 
ATOM      7 CL   UNL     1      -7.769  -2.210 132.499  0.00  0.00    +0.000 Cl
ENDROOT
BRANCH   3   8
ATOM      8  C   UNL     1      -8.169   3.170 130.052  0.00  0.00    +0.000 C 
ATOM      9  O   UNL     1      -7.030   3.640 130.771  0.00  0.00    +0.000 OA
ATOM     10  C   UNL     1      -6.802   4.991 130.442  0.00  0.00    +0.000 C 
ATOM     11  C   UNL     1      -7.852   5.959 130.972  0.00  0.00    +0.000 C 
ATOM     12  C   UNL     1      -9.173   5.526 130.301  0.00  0.00    +0.000 C 
ATOM     13  C   UNL     1      -9.416   4.017 130.461  0.00  0.00    +0.000 C 
BRANCH  10  14
ATOM     14  S   UNL     1      -5.081   5.436 130.663  0.00  0.00    +0.000 S 
ATOM     15  C   UNL     1      -4.737   5.151 128.923  0.00  0.00    +0.000 C 
ENDBRANCH  10  14
BRANCH  11  16
ATOM     16  O   UNL     1      -7.562   7.315 130.600  0.00  0.00    +0.000 OA
ATOM     17  H   UNL     1      -7.322   7.342 129.657  0.00  0.00    +0.000 HD
ENDBRANCH  11  16
BRANCH  12  18
ATOM     18  O   UNL     1     -10.264   6.273 130.841  0.00  0.00    +0.000 OA
ATOM     19  H   UNL     1     -10.250   7.155 130.432  0.00  0.00    +0.000 HD
ENDBRANCH  12  18
BRANCH  13  20
ATOM     20  O   UNL     1     -10.588   3.607 129.753  0.00  0.00    +0.000 OA
ATOM     21  H   UNL     1     -10.425   3.671 128.798  0.00  0.00    +0.000 HD
ENDBRANCH  13  20
ENDBRANCH   3   8
BRANCH   1  22
ATOM     22  C   UNL     1      -6.373  -1.332 129.797  0.00  0.00    +0.000 C 
BRANCH  22  26
ATOM     23  C   UNL     1      -8.218  -3.295 126.438  0.00  0.00    +0.000 A 
ATOM     24  C   UNL     1      -7.180  -2.382 126.250  0.00  0.00    +0.000 A 
ATOM     25  C   UNL     1      -6.565  -1.759 127.332  0.00  0.00    +0.000 A 
ATOM     26  C   UNL     1      -7.039  -2.006 128.625  0.00  0.00    +0.000 A 
ATOM     27  C   UNL     1      -8.116  -2.892 128.788  0.00  0.00    +0.000 A 
ATOM     28  C   UNL     1      -8.667  -3.572 127.725  0.00  0.00    +0.000 A 
BRANCH  23  29
ATOM     29  O   UNL     1      -8.698  -3.927 125.331  0.00  0.00    +0.000 OA
BRANCH  29  31
ATOM     30  C   UNL     1      -9.467  -3.047 123.267  0.00  0.00    +0.000 C 
ATOM     31  C   UNL     1      -8.244  -3.380 124.091  0.00  0.00    +0.000 C 
ENDBRANCH  29  31
ENDBRANCH  23  29
ENDBRANCH  22  26
ENDBRANCH   1  22
TORSDOF 9
ENDMDL
