MODEL 1
REMARK VINA RESULT:      -5.8      0.000      0.000
REMARK  Name = Sotalol
REMARK  10 active torsions:
REMARK  status: ('A' for Active; 'I' for Inactive)
REMARK    1  A    between atoms: C_1  and  C_2
REMARK    2  A    between atoms: C_2  and  C_3
REMARK    3  A    between atoms: C_2  and  N_4
REMARK    4  A    between atoms: N_4  and  C_5
REMARK    5  A    between atoms: C_5  and  C_6
REMARK    6  A    between atoms: C_6  and  O_7
REMARK    7  A    between atoms: C_6  and  C_8
REMARK    8  A    between atoms: C_11  and  N_12
REMARK    9  A    between atoms: N_12  and  S_13
REMARK   10  A    between atoms: S_13  and  C_14
REMARK                            x       y       z     vdW  Elec       q    Type
REMARK                         _______ _______ _______ _____ _____    ______ ____
ROOT
ATOM      1  C   UNL     1      -8.685  -2.450 126.430  0.00  0.00    +0.000 A 
ATOM      2  C   UNL     1      -9.017  -3.639 127.108  0.00  0.00    +0.000 A 
ATOM      3  C   UNL     1      -8.738  -3.798 128.468  0.00  0.00    +0.000 A 
ATOM      4  C   UNL     1      -8.035  -2.807 129.149  0.00  0.00    +0.000 A 
ATOM      5  C   UNL     1      -7.704  -1.636 128.471  0.00  0.00    +0.000 A 
ATOM      6  C   UNL     1      -7.996  -1.465 127.127  0.00  0.00    +0.000 A 
ENDROOT
BRANCH   4   7
ATOM      7  N   UNL     1      -7.556  -3.091 130.457  0.00  0.00    +0.000 N 
ATOM      8  H   UNL     1      -8.103  -2.819 131.272  0.00  0.00    +0.000 HD
BRANCH   7   9
ATOM      9  S   UNL     1      -6.015  -3.648 130.781  0.00  0.00    +0.000 S 
ATOM     10  C   UNL     1      -5.901  -3.571 132.571  0.00  0.00    +0.000 C 
ATOM     11  O   UNL     1      -5.906  -5.022 130.358  0.00  0.00    +0.000 OA
ATOM     12  O   UNL     1      -5.116  -2.637 130.250  0.00  0.00    +0.000 OA
ENDBRANCH   7   9
ENDBRANCH   4   7
BRANCH   1  13
ATOM     13  C   UNL     1      -9.083  -2.148 125.000  0.00  0.00    +0.000 C 
BRANCH  13  14
ATOM     14  O   UNL     1      -9.873  -3.234 124.493  0.00  0.00    +0.000 OA
ATOM     15  H   UNL     1     -10.797  -2.932 124.498  0.00  0.00    +0.000 HD
ENDBRANCH  13  14
BRANCH  13  16
ATOM     16  C   UNL     1      -7.854  -1.983 124.107  0.00  0.00    +0.000 C 
BRANCH  16  17
ATOM     17  N   UNL     1      -7.069  -3.204 123.969  0.00  0.00    +0.000 NA
ATOM     18  H   UNL     1      -7.166  -3.753 124.827  0.00  0.00    +0.000 HD
BRANCH  17  20
ATOM     19  C   UNL     1      -5.226  -1.817 124.684  0.00  0.00    +0.000 C 
ATOM     20  C   UNL     1      -5.666  -2.887 123.696  0.00  0.00    +0.000 C 
ATOM     21  C   UNL     1      -4.772  -4.125 123.847  0.00  0.00    +0.000 C 
ENDBRANCH  17  20
ENDBRANCH  16  17
ENDBRANCH  13  16
ENDBRANCH   1  13
TORSDOF 7
ENDMDL
MODEL 2
REMARK VINA RESULT:      -5.8      9.357     10.826
REMARK  Name = Sotalol
REMARK  10 active torsions:
REMARK  status: ('A' for Active; 'I' for Inactive)
REMARK    1  A    between atoms: C_1  and  C_2
REMARK    2  A    between atoms: C_2  and  C_3
REMARK    3  A    between atoms: C_2  and  N_4
REMARK    4  A    between atoms: N_4  and  C_5
REMARK    5  A    between atoms: C_5  and  C_6
REMARK    6  A    between atoms: C_6  and  O_7
REMARK    7  A    between atoms: C_6  and  C_8
REMARK    8  A    between atoms: C_11  and  N_12
REMARK    9  A    between atoms: N_12  and  S_13
REMARK   10  A    between atoms: S_13  and  C_14
REMARK                            x       y       z     vdW  Elec       q    Type
REMARK                         _______ _______ _______ _____ _____    ______ ____
ROOT
ATOM      1  C   UNL     1      -9.801   6.503 131.477  0.00  0.00    +0.000 A 
ATOM      2  C   UNL     1      -8.704   6.966 130.725  0.00  0.00    +0.000 A 
ATOM      3  C   UNL     1      -7.391   6.717 131.133  0.00  0.00    +0.000 A 
ATOM      4  C   UNL     1      -7.154   6.084 132.351  0.00  0.00    +0.000 A 
ATOM      5  C   UNL     1      -8.244   5.634 133.094  0.00  0.00    +0.000 A 
ATOM      6  C   UNL     1      -9.549   5.861 132.683  0.00  0.00    +0.000 A 
ENDROOT
BRANCH   4   7
ATOM      7  N   UNL     1      -5.826   6.057 132.856  0.00  0.00    +0.000 N 
ATOM      8  H   UNL     1      -5.512   6.773 133.509  0.00  0.00    +0.000 HD
BRANCH   7   9
ATOM      9  S   UNL     1      -4.630   5.047 132.271  0.00  0.00    +0.000 S 
ATOM     10  C   UNL     1      -5.516   3.550 131.828  0.00  0.00    +0.000 C 
ATOM     11  O   UNL     1      -4.057   5.628 131.082  0.00  0.00    +0.000 OA
ATOM     12  O   UNL     1      -3.795   4.729 133.416  0.00  0.00    +0.000 OA
ENDBRANCH   7   9
ENDBRANCH   4   7
BRANCH   1  13
ATOM     13  C   UNL     1     -11.244   6.607 131.027  0.00  0.00    +0.000 C 
BRANCH  13  14
ATOM     14  O   UNL     1     -12.096   6.101 132.065  0.00  0.00    +0.000 OA
ATOM     15  H   UNL     1     -12.510   6.874 132.488  0.00  0.00    +0.000 HD
ENDBRANCH  13  14
BRANCH  13  16
ATOM     16  C   UNL     1     -11.488   5.791 129.759  0.00  0.00    +0.000 C 
BRANCH  16  17
ATOM     17  N   UNL     1     -12.104   6.558 128.684  0.00  0.00    +0.000 NA
ATOM     18  H   UNL     1     -11.771   6.190 127.789  0.00  0.00    +0.000 HD
BRANCH  17  20
ATOM     19  C   UNL     1     -10.717   8.328 127.804  0.00  0.00    +0.000 C 
ATOM     20  C   UNL     1     -11.795   7.982 128.822  0.00  0.00    +0.000 C 
ATOM     21  C   UNL     1     -13.035   8.851 128.573  0.00  0.00    +0.000 C 
ENDBRANCH  17  20
ENDBRANCH  16  17
ENDBRANCH  13  16
ENDBRANCH   1  13
TORSDOF 7
ENDMDL
MODEL 3
REMARK VINA RESULT:      -5.8      0.836      1.500
REMARK  Name = Sotalol
REMARK  10 active torsions:
REMARK  status: ('A' for Active; 'I' for Inactive)
REMARK    1  A    between atoms: C_1  and  C_2
REMARK    2  A    between atoms: C_2  and  C_3
REMARK    3  A    between atoms: C_2  and  N_4
REMARK    4  A    between atoms: N_4  and  C_5
REMARK    5  A    between atoms: C_5  and  C_6
REMARK    6  A    between atoms: C_6  and  O_7
REMARK    7  A    between atoms: C_6  and  C_8
REMARK    8  A    between atoms: C_11  and  N_12
REMARK    9  A    between atoms: N_12  and  S_13
REMARK   10  A    between atoms: S_13  and  C_14
REMARK                            x       y       z     vdW  Elec       q    Type
REMARK                         _______ _______ _______ _____ _____    ______ ____
ROOT
ATOM      1  C   UNL     1      -8.715  -2.315 126.316  0.00  0.00    +0.000 A 
ATOM      2  C   UNL     1      -8.009  -1.349 127.059  0.00  0.00    +0.000 A 
ATOM      3  C   UNL     1      -7.588  -1.608 128.367  0.00  0.00    +0.000 A 
ATOM      4  C   UNL     1      -7.952  -2.802 128.985  0.00  0.00    +0.000 A 
ATOM      5  C   UNL     1      -8.657  -3.751 128.246  0.00  0.00    +0.000 A 
ATOM      6  C   UNL     1      -9.059  -3.506 126.942  0.00  0.00    +0.000 A 
ENDROOT
BRANCH   4   7
ATOM      7  N   UNL     1      -7.722  -2.942 130.381  0.00  0.00    +0.000 N 
ATOM      8  H   UNL     1      -8.358  -2.510 131.049  0.00  0.00    +0.000 HD
BRANCH   7   9
ATOM      9  S   UNL     1      -6.324  -3.583 131.033  0.00  0.00    +0.000 S 
ATOM     10  C   UNL     1      -5.095  -2.307 130.744  0.00  0.00    +0.000 C 
ATOM     11  O   UNL     1      -6.500  -3.759 132.453  0.00  0.00    +0.000 OA
ATOM     12  O   UNL     1      -5.980  -4.711 130.184  0.00  0.00    +0.000 OA
ENDBRANCH   7   9
ENDBRANCH   4   7
BRANCH   1  13
ATOM     13  C   UNL     1      -9.076  -2.163 124.852  0.00  0.00    +0.000 C 
BRANCH  13  14
ATOM     14  O   UNL     1      -9.833  -3.309 124.435  0.00  0.00    +0.000 OA
ATOM     15  H   UNL     1      -9.667  -4.007 125.091  0.00  0.00    +0.000 HD
ENDBRANCH  13  14
BRANCH  13  16
ATOM     16  C   UNL     1      -7.825  -2.065 123.982  0.00  0.00    +0.000 C 
BRANCH  16  17
ATOM     17  N   UNL     1      -7.016  -3.278 123.987  0.00  0.00    +0.000 NA
ATOM     18  H   UNL     1      -7.128  -3.740 124.893  0.00  0.00    +0.000 HD
BRANCH  17  20
ATOM     19  C   UNL     1      -5.174  -1.892 124.707  0.00  0.00    +0.000 C 
ATOM     20  C   UNL     1      -5.612  -2.965 123.719  0.00  0.00    +0.000 C 
ATOM     21  C   UNL     1      -4.721  -4.203 123.878  0.00  0.00    +0.000 C 
ENDBRANCH  17  20
ENDBRANCH  16  17
ENDBRANCH  13  16
ENDBRANCH   1  13
TORSDOF 7
ENDMDL
MODEL 4
REMARK VINA RESULT:      -5.7      4.891      6.404
REMARK  Name = Sotalol
REMARK  10 active torsions:
REMARK  status: ('A' for Active; 'I' for Inactive)
REMARK    1  A    between atoms: C_1  and  C_2
REMARK    2  A    between atoms: C_2  and  C_3
REMARK    3  A    between atoms: C_2  and  N_4
REMARK    4  A    between atoms: N_4  and  C_5
REMARK    5  A    between atoms: C_5  and  C_6
REMARK    6  A    between atoms: C_6  and  O_7
REMARK    7  A    between atoms: C_6  and  C_8
REMARK    8  A    between atoms: C_11  and  N_12
REMARK    9  A    between atoms: N_12  and  S_13
REMARK   10  A    between atoms: S_13  and  C_14
REMARK                            x       y       z     vdW  Elec       q    Type
REMARK                         _______ _______ _______ _____ _____    ______ ____
ROOT
ATOM      1  C   UNL     1      -8.548  -0.072 123.490  0.00  0.00    +0.000 A 
ATOM      2  C   UNL     1      -7.256   0.482 123.413  0.00  0.00    +0.000 A 
ATOM      3  C   UNL     1      -7.016   1.812 123.769  0.00  0.00    +0.000 A 
ATOM      4  C   UNL     1      -8.084   2.636 124.116  0.00  0.00    +0.000 A 
ATOM      5  C   UNL     1      -9.362   2.084 124.184  0.00  0.00    +0.000 A 
ATOM      6  C   UNL     1      -9.601   0.760 123.850  0.00  0.00    +0.000 A 
ENDROOT
BRANCH   4   7
ATOM      7  N   UNL     1      -7.851   4.033 124.240  0.00  0.00    +0.000 N 
ATOM      8  H   UNL     1      -7.651   4.593 123.413  0.00  0.00    +0.000 HD
BRANCH   7   9
ATOM      9  S   UNL     1      -7.646   4.815 125.702  0.00  0.00    +0.000 S 
ATOM     10  C   UNL     1      -7.563   3.476 126.894  0.00  0.00    +0.000 C 
ATOM     11  O   UNL     1      -6.387   5.519 125.692  0.00  0.00    +0.000 OA
ATOM     12  O   UNL     1      -8.890   5.527 125.941  0.00  0.00    +0.000 OA
ENDBRANCH   7   9
ENDBRANCH   4   7
BRANCH   1  13
ATOM     13  C   UNL     1      -8.860  -1.537 123.260  0.00  0.00    +0.000 C 
BRANCH  13  14
ATOM     14  O   UNL     1      -9.538  -2.058 124.413  0.00  0.00    +0.000 OA
ATOM     15  H   UNL     1     -10.180  -1.382 124.689  0.00  0.00    +0.000 HD
ENDBRANCH  13  14
BRANCH  13  16
ATOM     16  C   UNL     1      -7.583  -2.346 123.041  0.00  0.00    +0.000 C 
BRANCH  16  17
ATOM     17  N   UNL     1      -7.320  -3.315 124.097  0.00  0.00    +0.000 NA
ATOM     18  H   UNL     1      -7.973  -3.144 124.866  0.00  0.00    +0.000 HD
BRANCH  17  20
ATOM     19  C   UNL     1      -5.049  -3.045 123.320  0.00  0.00    +0.000 C 
ATOM     20  C   UNL     1      -5.930  -3.222 124.549  0.00  0.00    +0.000 C 
ATOM     21  C   UNL     1      -5.727  -2.036 125.500  0.00  0.00    +0.000 C 
ENDBRANCH  17  20
ENDBRANCH  16  17
ENDBRANCH  13  16
ENDBRANCH   1  13
TORSDOF 7
ENDMDL
MODEL 5
REMARK VINA RESULT:      -5.6      2.777      6.039
REMARK  Name = Sotalol
REMARK  10 active torsions:
REMARK  status: ('A' for Active; 'I' for Inactive)
REMARK    1  A    between atoms: C_1  and  C_2
REMARK    2  A    between atoms: C_2  and  C_3
REMARK    3  A    between atoms: C_2  and  N_4
REMARK    4  A    between atoms: N_4  and  C_5
REMARK    5  A    between atoms: C_5  and  C_6
REMARK    6  A    between atoms: C_6  and  O_7
REMARK    7  A    between atoms: C_6  and  C_8
REMARK    8  A    between atoms: C_11  and  N_12
REMARK    9  A    between atoms: N_12  and  S_13
REMARK   10  A    between atoms: S_13  and  C_14
REMARK                            x       y       z     vdW  Elec       q    Type
REMARK                         _______ _______ _______ _____ _____    ______ ____
ROOT
ATOM      1  C   UNL     1      -7.697  -3.111 129.259  0.00  0.00    +0.000 A 
ATOM      2  C   UNL     1      -8.675  -3.907 128.632  0.00  0.00    +0.000 A 
ATOM      3  C   UNL     1      -9.069  -3.663 127.313  0.00  0.00    +0.000 A 
ATOM      4  C   UNL     1      -8.560  -2.559 126.634  0.00  0.00    +0.000 A 
ATOM      5  C   UNL     1      -7.597  -1.771 127.263  0.00  0.00    +0.000 A 
ATOM      6  C   UNL     1      -7.189  -2.021 128.564  0.00  0.00    +0.000 A 
ENDROOT
BRANCH   4   7
ATOM      7  N   UNL     1      -9.149  -2.195 125.392  0.00  0.00    +0.000 N 
ATOM      8  H   UNL     1      -9.970  -1.593 125.373  0.00  0.00    +0.000 HD
BRANCH   7   9
ATOM      9  S   UNL     1      -8.729  -2.880 123.928  0.00  0.00    +0.000 S 
ATOM     10  C   UNL     1      -8.199  -1.479 122.938  0.00  0.00    +0.000 C 
ATOM     11  O   UNL     1      -7.612  -3.771 124.123  0.00  0.00    +0.000 OA
ATOM     12  O   UNL     1      -9.972  -3.366 123.354  0.00  0.00    +0.000 OA
ENDBRANCH   7   9
ENDBRANCH   4   7
BRANCH   1  13
ATOM     13  C   UNL     1      -7.116  -3.400 130.629  0.00  0.00    +0.000 C 
BRANCH  13  14
ATOM     14  O   UNL     1      -7.001  -2.170 131.359  0.00  0.00    +0.000 OA
ATOM     15  H   UNL     1      -7.907  -1.864 131.534  0.00  0.00    +0.000 HD
ENDBRANCH  13  14
BRANCH  13  16
ATOM     16  C   UNL     1      -5.730  -4.031 130.518  0.00  0.00    +0.000 C 
BRANCH  16  17
ATOM     17  N   UNL     1      -4.726  -3.378 131.350  0.00  0.00    +0.000 NA
ATOM     18  H   UNL     1      -5.180  -2.631 131.882  0.00  0.00    +0.000 HD
BRANCH  17  20
ATOM     19  C   UNL     1      -3.679  -3.568 129.182  0.00  0.00    +0.000 C 
ATOM     20  C   UNL     1      -3.632  -2.858 130.528  0.00  0.00    +0.000 C 
ATOM     21  C   UNL     1      -3.762  -1.344 130.315  0.00  0.00    +0.000 C 
ENDBRANCH  17  20
ENDBRANCH  16  17
ENDBRANCH  13  16
ENDBRANCH   1  13
TORSDOF 7
ENDMDL
MODEL 6
REMARK VINA RESULT:      -5.6      2.159      2.466
REMARK  Name = Sotalol
REMARK  10 active torsions:
REMARK  status: ('A' for Active; 'I' for Inactive)
REMARK    1  A    between atoms: C_1  and  C_2
REMARK    2  A    between atoms: C_2  and  C_3
REMARK    3  A    between atoms: C_2  and  N_4
REMARK    4  A    between atoms: N_4  and  C_5
REMARK    5  A    between atoms: C_5  and  C_6
REMARK    6  A    between atoms: C_6  and  O_7
REMARK    7  A    between atoms: C_6  and  C_8
REMARK    8  A    between atoms: C_11  and  N_12
REMARK    9  A    between atoms: N_12  and  S_13
REMARK   10  A    between atoms: S_13  and  C_14
REMARK                            x       y       z     vdW  Elec       q    Type
REMARK                         _______ _______ _______ _____ _____    ______ ____
ROOT
ATOM      1  C   UNL     1      -8.397  -2.500 127.041  0.00  0.00    +0.000 A 
ATOM      2  C   UNL     1      -8.589  -3.488 128.026  0.00  0.00    +0.000 A 
ATOM      3  C   UNL     1      -8.299  -3.236 129.369  0.00  0.00    +0.000 A 
ATOM      4  C   UNL     1      -7.720  -2.023 129.735  0.00  0.00    +0.000 A 
ATOM      5  C   UNL     1      -7.525  -1.052 128.754  0.00  0.00    +0.000 A 
ATOM      6  C   UNL     1      -7.830  -1.290 127.423  0.00  0.00    +0.000 A 
ENDROOT
BRANCH   4   7
ATOM      7  N   UNL     1      -7.215  -1.883 131.056  0.00  0.00    +0.000 N 
ATOM      8  H   UNL     1      -6.580  -2.582 131.438  0.00  0.00    +0.000 HD
BRANCH   7   9
ATOM      9  S   UNL     1      -7.775  -0.750 132.149  0.00  0.00    +0.000 S 
ATOM     10  C   UNL     1      -6.532   0.544 132.096  0.00  0.00    +0.000 C 
ATOM     11  O   UNL     1      -9.032  -0.219 131.682  0.00  0.00    +0.000 OA
ATOM     12  O   UNL     1      -7.679  -1.385 133.453  0.00  0.00    +0.000 OA
ENDBRANCH   7   9
ENDBRANCH   4   7
BRANCH   1  13
ATOM     13  C   UNL     1      -8.822  -2.648 125.594  0.00  0.00    +0.000 C 
BRANCH  13  14
ATOM     14  O   UNL     1     -10.217  -2.982 125.547  0.00  0.00    +0.000 OA
ATOM     15  H   UNL     1     -10.357  -3.686 126.203  0.00  0.00    +0.000 HD
ENDBRANCH  13  14
BRANCH  13  16
ATOM     16  C   UNL     1      -8.034  -3.755 124.897  0.00  0.00    +0.000 C 
BRANCH  16  17
ATOM     17  N   UNL     1      -7.066  -3.257 123.927  0.00  0.00    +0.000 NA
ATOM     18  H   UNL     1      -7.038  -3.904 123.134  0.00  0.00    +0.000 HD
BRANCH  17  20
ATOM     19  C   UNL     1      -4.727  -3.777 123.629  0.00  0.00    +0.000 C 
ATOM     20  C   UNL     1      -5.746  -3.109 124.542  0.00  0.00    +0.000 C 
ATOM     21  C   UNL     1      -5.378  -1.632 124.729  0.00  0.00    +0.000 C 
ENDBRANCH  17  20
ENDBRANCH  16  17
ENDBRANCH  13  16
ENDBRANCH   1  13
TORSDOF 7
ENDMDL
MODEL 7
REMARK VINA RESULT:      -5.5      9.259     10.659
REMARK  Name = Sotalol
REMARK  10 active torsions:
REMARK  status: ('A' for Active; 'I' for Inactive)
REMARK    1  A    between atoms: C_1  and  C_2
REMARK    2  A    between atoms: C_2  and  C_3
REMARK    3  A    between atoms: C_2  and  N_4
REMARK    4  A    between atoms: N_4  and  C_5
REMARK    5  A    between atoms: C_5  and  C_6
REMARK    6  A    between atoms: C_6  and  O_7
REMARK    7  A    between atoms: C_6  and  C_8
REMARK    8  A    between atoms: C_11  and  N_12
REMARK    9  A    between atoms: N_12  and  S_13
REMARK   10  A    between atoms: S_13  and  C_14
REMARK                            x       y       z     vdW  Elec       q    Type
REMARK                         _______ _______ _______ _____ _____    ______ ____
ROOT
ATOM      1  C   UNL     1      -9.664   5.628 130.870  0.00  0.00    +0.000 A 
ATOM      2  C   UNL     1      -9.018   6.876 130.959  0.00  0.00    +0.000 A 
ATOM      3  C   UNL     1      -7.623   6.971 130.948  0.00  0.00    +0.000 A 
ATOM      4  C   UNL     1      -6.852   5.811 130.946  0.00  0.00    +0.000 A 
ATOM      5  C   UNL     1      -7.498   4.579 130.864  0.00  0.00    +0.000 A 
ATOM      6  C   UNL     1      -8.881   4.480 130.855  0.00  0.00    +0.000 A 
ENDROOT
BRANCH   4   7
ATOM      7  N   UNL     1      -5.454   5.925 131.177  0.00  0.00    +0.000 N 
ATOM      8  H   UNL     1      -5.095   5.960 132.130  0.00  0.00    +0.000 HD
BRANCH   7   9
ATOM      9  S   UNL     1      -4.337   6.245 129.978  0.00  0.00    +0.000 S 
ATOM     10  C   UNL     1      -4.201   8.036 129.989  0.00  0.00    +0.000 C 
ATOM     11  O   UNL     1      -3.066   5.672 130.345  0.00  0.00    +0.000 OA
ATOM     12  O   UNL     1      -4.985   5.872 128.731  0.00  0.00    +0.000 OA
ENDBRANCH   7   9
ENDBRANCH   4   7
BRANCH   1  13
ATOM     13  C   UNL     1     -11.162   5.455 130.729  0.00  0.00    +0.000 C 
BRANCH  13  14
ATOM     14  O   UNL     1     -11.428   4.275 129.957  0.00  0.00    +0.000 OA
ATOM     15  H   UNL     1     -11.355   4.531 129.022  0.00  0.00    +0.000 HD
ENDBRANCH  13  14
BRANCH  13  16
ATOM     16  C   UNL     1     -11.792   6.651 130.019  0.00  0.00    +0.000 C 
BRANCH  16  17
ATOM     17  N   UNL     1     -12.012   6.433 128.595  0.00  0.00    +0.000 NA
ATOM     18  H   UNL     1     -11.295   5.789 128.250  0.00  0.00    +0.000 HD
BRANCH  17  20
ATOM     19  C   UNL     1     -13.035   8.617 128.476  0.00  0.00    +0.000 C 
ATOM     20  C   UNL     1     -11.982   7.702 127.866  0.00  0.00    +0.000 C 
ATOM     21  C   UNL     1     -10.604   8.371 127.961  0.00  0.00    +0.000 C 
ENDBRANCH  17  20
ENDBRANCH  16  17
ENDBRANCH  13  16
ENDBRANCH   1  13
TORSDOF 7
ENDMDL
MODEL 8
REMARK VINA RESULT:      -5.5      5.093      6.774
REMARK  Name = Sotalol
REMARK  10 active torsions:
REMARK  status: ('A' for Active; 'I' for Inactive)
REMARK    1  A    between atoms: C_1  and  C_2
REMARK    2  A    between atoms: C_2  and  C_3
REMARK    3  A    between atoms: C_2  and  N_4
REMARK    4  A    between atoms: N_4  and  C_5
REMARK    5  A    between atoms: C_5  and  C_6
REMARK    6  A    between atoms: C_6  and  O_7
REMARK    7  A    between atoms: C_6  and  C_8
REMARK    8  A    between atoms: C_11  and  N_12
REMARK    9  A    between atoms: N_12  and  S_13
REMARK   10  A    between atoms: S_13  and  C_14
REMARK                            x       y       z     vdW  Elec       q    Type
REMARK                         _______ _______ _______ _____ _____    ______ ____
ROOT
ATOM      1  C   UNL     1      -6.801   2.251 124.639  0.00  0.00    +0.000 A 
ATOM      2  C   UNL     1      -6.305   1.409 125.652  0.00  0.00    +0.000 A 
ATOM      3  C   UNL     1      -6.377   0.018 125.538  0.00  0.00    +0.000 A 
ATOM      4  C   UNL     1      -7.035  -0.551 124.450  0.00  0.00    +0.000 A 
ATOM      5  C   UNL     1      -7.530   0.288 123.453  0.00  0.00    +0.000 A 
ATOM      6  C   UNL     1      -7.443   1.668 123.554  0.00  0.00    +0.000 A 
ENDROOT
BRANCH   4   7
ATOM      7  N   UNL     1      -7.306  -1.947 124.474  0.00  0.00    +0.000 N 
ATOM      8  H   UNL     1      -6.664  -2.600 124.026  0.00  0.00    +0.000 HD
BRANCH   7   9
ATOM      9  S   UNL     1      -8.750  -2.604 124.994  0.00  0.00    +0.000 S 
ATOM     10  C   UNL     1      -9.492  -3.247 123.491  0.00  0.00    +0.000 C 
ATOM     11  O   UNL     1      -8.479  -3.698 125.894  0.00  0.00    +0.000 OA
ATOM     12  O   UNL     1      -9.559  -1.476 125.424  0.00  0.00    +0.000 OA
ENDBRANCH   7   9
ENDBRANCH   4   7
BRANCH   1  13
ATOM     13  C   UNL     1      -6.629   3.756 124.624  0.00  0.00    +0.000 C 
BRANCH  13  14
ATOM     14  O   UNL     1      -7.859   4.365 124.204  0.00  0.00    +0.000 OA
ATOM     15  H   UNL     1      -8.479   3.639 124.016  0.00  0.00    +0.000 HD
ENDBRANCH  13  14
BRANCH  13  16
ATOM     16  C   UNL     1      -5.524   4.177 123.657  0.00  0.00    +0.000 C 
BRANCH  16  17
ATOM     17  N   UNL     1      -6.024   4.629 122.365  0.00  0.00    +0.000 NA
ATOM     18  H   UNL     1      -6.958   4.236 122.221  0.00  0.00    +0.000 HD
BRANCH  17  20
ATOM     19  C   UNL     1      -5.489   2.834 120.841  0.00  0.00    +0.000 C 
ATOM     20  C   UNL     1      -5.110   4.238 121.291  0.00  0.00    +0.000 C 
ATOM     21  C   UNL     1      -5.199   5.201 120.100  0.00  0.00    +0.000 C 
ENDBRANCH  17  20
ENDBRANCH  16  17
ENDBRANCH  13  16
ENDBRANCH   1  13
TORSDOF 7
ENDMDL
MODEL 9
REMARK VINA RESULT:      -5.5      9.212     10.629
REMARK  Name = Sotalol
REMARK  10 active torsions:
REMARK  status: ('A' for Active; 'I' for Inactive)
REMARK    1  A    between atoms: C_1  and  C_2
REMARK    2  A    between atoms: C_2  and  C_3
REMARK    3  A    between atoms: C_2  and  N_4
REMARK    4  A    between atoms: N_4  and  C_5
REMARK    5  A    between atoms: C_5  and  C_6
REMARK    6  A    between atoms: C_6  and  O_7
REMARK    7  A    between atoms: C_6  and  C_8
REMARK    8  A    between atoms: C_11  and  N_12
REMARK    9  A    between atoms: N_12  and  S_13
REMARK   10  A    between atoms: S_13  and  C_14
REMARK                            x       y       z     vdW  Elec       q    Type
REMARK                         _______ _______ _______ _____ _____    ______ ____
ROOT
ATOM      1  C   UNL     1      -9.062   5.987 131.193  0.00  0.00    +0.000 A 
ATOM      2  C   UNL     1      -8.505   4.694 131.231  0.00  0.00    +0.000 A 
ATOM      3  C   UNL     1      -7.122   4.501 131.187  0.00  0.00    +0.000 A 
ATOM      4  C   UNL     1      -6.277   5.594 131.008  0.00  0.00    +0.000 A 
ATOM      5  C   UNL     1      -6.835   6.870 130.964  0.00  0.00    +0.000 A 
ATOM      6  C   UNL     1      -8.206   7.069 131.027  0.00  0.00    +0.000 A 
ENDROOT
BRANCH   4   7
ATOM      7  N   UNL     1      -4.905   5.353 130.726  0.00  0.00    +0.000 N 
ATOM      8  H   UNL     1      -4.232   5.283 131.488  0.00  0.00    +0.000 HD
BRANCH   7   9
ATOM      9  S   UNL     1      -4.248   5.403 129.192  0.00  0.00    +0.000 S 
ATOM     10  C   UNL     1      -3.670   7.095 129.031  0.00  0.00    +0.000 C 
ATOM     11  O   UNL     1      -3.119   4.509 129.128  0.00  0.00    +0.000 OA
ATOM     12  O   UNL     1      -5.370   5.245 128.282  0.00  0.00    +0.000 OA
ENDBRANCH   7   9
ENDBRANCH   4   7
BRANCH   1  13
ATOM     13  C   UNL     1     -10.536   6.284 131.381  0.00  0.00    +0.000 C 
BRANCH  13  14
ATOM     14  O   UNL     1     -10.950   5.804 132.669  0.00  0.00    +0.000 OA
ATOM     15  H   UNL     1     -11.912   5.936 132.719  0.00  0.00    +0.000 HD
ENDBRANCH  13  14
BRANCH  13  16
ATOM     16  C   UNL     1     -11.379   5.592 130.312  0.00  0.00    +0.000 C 
BRANCH  16  17
ATOM     17  N   UNL     1     -11.317   6.246 129.010  0.00  0.00    +0.000 NA
ATOM     18  H   UNL     1     -10.407   6.046 128.588  0.00  0.00    +0.000 HD
BRANCH  17  20
ATOM     19  C   UNL     1     -10.548   8.398 128.230  0.00  0.00    +0.000 C 
ATOM     20  C   UNL     1     -11.536   7.687 129.144  0.00  0.00    +0.000 C 
ATOM     21  C   UNL     1     -12.967   8.076 128.754  0.00  0.00    +0.000 C 
ENDBRANCH  17  20
ENDBRANCH  16  17
ENDBRANCH  13  16
ENDBRANCH   1  13
TORSDOF 7
ENDMDL
