MODEL 1
REMARK VINA RESULT:      -9.4      0.000      0.000
REMARK  Name = Sotorasib
REMARK  9 active torsions:
REMARK  status: ('A' for Active; 'I' for Inactive)
REMARK    1  A    between atoms: C_1  and  C_2
REMARK    2  A    between atoms: C_2  and  C_3
REMARK    3  A    between atoms: C_2  and  C_4
REMARK    4  A    between atoms: C_8  and  C_9
REMARK    5  A    between atoms: C_10  and  N_11
REMARK    6  A    between atoms: C_21  and  C_22
REMARK    7  A    between atoms: C_23  and  C_25
REMARK    8  A    between atoms: C_31  and  C_34
REMARK    9  A    between atoms: C_35  and  O_36
REMARK                            x       y       z     vdW  Elec       q    Type
REMARK                         _______ _______ _______ _____ _____    ______ ____
ROOT
ATOM      1  N   UNL     1      -7.643   2.905 131.184  0.00  0.00    +0.000 N 
ATOM      2  C   UNL     1      -8.732   2.246 130.579  0.00  0.00    +0.000 A 
ATOM      3  O   UNL     1      -9.883   2.371 131.018  0.00  0.00    +0.000 OA
ATOM      4  N   UNL     1      -8.539   1.486 129.442  0.00  0.00    +0.000 NA
ATOM      5  C   UNL     1      -7.392   1.415 128.838  0.00  0.00    +0.000 A 
ATOM      6  N   UNL     1      -7.226   0.648 127.678  0.00  0.00    +0.000 N 
ATOM      7  C   UNL     1      -6.241  -0.457 127.600  0.00  0.00    +0.000 C 
ATOM      8  C   UNL     1      -6.878  -1.779 127.133  0.00  0.00    +0.000 C 
ATOM      9  N   UNL     1      -7.666  -1.597 125.905  0.00  0.00    +0.000 N 
ATOM     10  C   UNL     1      -8.702  -0.565 126.062  0.00  0.00    +0.000 C 
ATOM     11  C   UNL     1      -8.094   0.799 126.481  0.00  0.00    +0.000 C 
ATOM     12  C   UNL     1      -7.288   1.386 125.310  0.00  0.00    +0.000 C 
ATOM     13  C   UNL     1      -7.355  -2.333 124.769  0.00  0.00    +0.000 C 
ATOM     14  O   UNL     1      -6.434  -3.148 124.751  0.00  0.00    +0.000 OA
ATOM     15  C   UNL     1      -6.237   2.181 129.359  0.00  0.00    +0.000 A 
ATOM     16  C   UNL     1      -5.060   2.280 128.620  0.00  0.00    +0.000 A 
ATOM     17  C   UNL     1      -4.044   3.094 129.064  0.00  0.00    +0.000 A 
ATOM     18  F   UNL     1      -2.888   3.107 128.391  0.00  0.00    +0.000 F 
ATOM     19  C   UNL     1      -4.225   3.825 130.225  0.00  0.00    +0.000 A 
ATOM     20  N   UNL     1      -5.351   3.690 130.998  0.00  0.00    +0.000 NA
ATOM     21  C   UNL     1      -6.373   2.908 130.537  0.00  0.00    +0.000 A 
ENDROOT
BRANCH   1  28
ATOM     22  C   UNL     1      -8.400   5.161 132.037  0.00  0.00    +0.000 A 
ATOM     23  N   UNL     1      -8.562   6.049 133.071  0.00  0.00    +0.000 NA
ATOM     24  C   UNL     1      -8.305   5.637 134.329  0.00  0.00    +0.000 A 
ATOM     25  C   UNL     1      -7.886   4.358 134.632  0.00  0.00    +0.000 A 
ATOM     26  C   UNL     1      -7.667   3.454 133.582  0.00  0.00    +0.000 A 
ATOM     27  C   UNL     1      -7.164   2.076 133.902  0.00  0.00    +0.000 C 
ATOM     28  C   UNL     1      -7.887   3.856 132.245  0.00  0.00    +0.000 A 
BRANCH  22  30
ATOM     29  C   UNL     1     -10.355   5.572 130.416  0.00  0.00    +0.000 C 
ATOM     30  C   UNL     1      -8.847   5.681 130.671  0.00  0.00    +0.000 C 
ATOM     31  C   UNL     1      -8.543   7.170 130.457  0.00  0.00    +0.000 C 
ENDBRANCH  22  30
ENDBRANCH   1  28
BRANCH  19  32
ATOM     32  C   UNL     1      -3.168   4.694 130.742  0.00  0.00    +0.000 A 
ATOM     33  C   UNL     1      -2.482   4.377 131.920  0.00  0.00    +0.000 A 
ATOM     34  C   UNL     1      -1.427   5.162 132.382  0.00  0.00    +0.000 A 
ATOM     35  C   UNL     1      -1.025   6.290 131.667  0.00  0.00    +0.000 A 
ATOM     36  C   UNL     1      -1.684   6.630 130.490  0.00  0.00    +0.000 A 
ATOM     37  C   UNL     1      -2.743   5.839 130.041  0.00  0.00    +0.000 A 
ATOM     38  F   UNL     1      -3.350   6.196 128.896  0.00  0.00    +0.000 F 
BRANCH  33  39
ATOM     39  O   UNL     1      -2.770   3.256 132.655  0.00  0.00    +0.000 OA
ATOM     40  H   UNL     1      -3.693   3.323 132.969  0.00  0.00    +0.000 HD
ENDBRANCH  33  39
ENDBRANCH  19  32
BRANCH  13  41
ATOM     41  C   UNL     1      -8.163  -2.112 123.527  0.00  0.00    +0.000 C 
ATOM     42  C   UNL     1      -9.219  -2.882 123.223  0.00  0.00    +0.000 C 
ENDBRANCH  13  41
TORSDOF 5
ENDMDL
MODEL 2
REMARK VINA RESULT:      -9.1      3.924      7.245
REMARK  Name = Sotorasib
REMARK  9 active torsions:
REMARK  status: ('A' for Active; 'I' for Inactive)
REMARK    1  A    between atoms: C_1  and  C_2
REMARK    2  A    between atoms: C_2  and  C_3
REMARK    3  A    between atoms: C_2  and  C_4
REMARK    4  A    between atoms: C_8  and  C_9
REMARK    5  A    between atoms: C_10  and  N_11
REMARK    6  A    between atoms: C_21  and  C_22
REMARK    7  A    between atoms: C_23  and  C_25
REMARK    8  A    between atoms: C_31  and  C_34
REMARK    9  A    between atoms: C_35  and  O_36
REMARK                            x       y       z     vdW  Elec       q    Type
REMARK                         _______ _______ _______ _____ _____    ______ ____
ROOT
ATOM      1  N   UNL     1      -7.597   1.014 127.461  0.00  0.00    +0.000 N 
ATOM      2  C   UNL     1      -6.755  -0.113 127.382  0.00  0.00    +0.000 A 
ATOM      3  O   UNL     1      -6.225  -0.445 126.314  0.00  0.00    +0.000 OA
ATOM      4  N   UNL     1      -6.461  -0.840 128.520  0.00  0.00    +0.000 NA
ATOM      5  C   UNL     1      -6.861  -0.478 129.700  0.00  0.00    +0.000 A 
ATOM      6  N   UNL     1      -6.538  -1.226 130.840  0.00  0.00    +0.000 N 
ATOM      7  C   UNL     1      -7.578  -1.801 131.725  0.00  0.00    +0.000 C 
ATOM      8  C   UNL     1      -7.385  -3.312 131.952  0.00  0.00    +0.000 C 
ATOM      9  N   UNL     1      -6.011  -3.627 132.367  0.00  0.00    +0.000 N 
ATOM     10  C   UNL     1      -5.016  -3.130 131.404  0.00  0.00    +0.000 C 
ATOM     11  C   UNL     1      -5.142  -1.600 131.188  0.00  0.00    +0.000 C 
ATOM     12  C   UNL     1      -4.695  -0.860 132.460  0.00  0.00    +0.000 C 
ATOM     13  C   UNL     1      -5.785  -4.282 133.571  0.00  0.00    +0.000 C 
ATOM     14  O   UNL     1      -6.707  -4.618 134.314  0.00  0.00    +0.000 OA
ATOM     15  C   UNL     1      -7.651   0.763 129.862  0.00  0.00    +0.000 A 
ATOM     16  C   UNL     1      -7.919   1.274 131.130  0.00  0.00    +0.000 A 
ATOM     17  C   UNL     1      -8.549   2.490 131.256  0.00  0.00    +0.000 A 
ATOM     18  F   UNL     1      -8.879   2.923 132.478  0.00  0.00    +0.000 F 
ATOM     19  C   UNL     1      -8.879   3.199 130.114  0.00  0.00    +0.000 A 
ATOM     20  N   UNL     1      -8.681   2.682 128.858  0.00  0.00    +0.000 NA
ATOM     21  C   UNL     1      -8.023   1.490 128.735  0.00  0.00    +0.000 A 
ENDROOT
BRANCH   1  28
ATOM     22  C   UNL     1      -6.834   2.932 126.001  0.00  0.00    +0.000 A 
ATOM     23  N   UNL     1      -7.036   3.767 124.931  0.00  0.00    +0.000 NA
ATOM     24  C   UNL     1      -8.075   3.524 124.104  0.00  0.00    +0.000 A 
ATOM     25  C   UNL     1      -8.948   2.472 124.282  0.00  0.00    +0.000 A 
ATOM     26  C   UNL     1      -8.786   1.641 125.400  0.00  0.00    +0.000 A 
ATOM     27  C   UNL     1      -9.764   0.525 125.624  0.00  0.00    +0.000 C 
ATOM     28  C   UNL     1      -7.734   1.883 126.313  0.00  0.00    +0.000 A 
BRANCH  22  30
ATOM     29  C   UNL     1      -4.320   2.461 126.280  0.00  0.00    +0.000 C 
ATOM     30  C   UNL     1      -5.556   3.208 126.794  0.00  0.00    +0.000 C 
ATOM     31  C   UNL     1      -5.133   4.683 126.774  0.00  0.00    +0.000 C 
ENDBRANCH  22  30
ENDBRANCH   1  28
BRANCH  19  32
ATOM     32  C   UNL     1      -9.560   4.491 130.198  0.00  0.00    +0.000 A 
ATOM     33  C   UNL     1      -8.850   5.692 130.085  0.00  0.00    +0.000 A 
ATOM     34  C   UNL     1      -9.499   6.925 130.095  0.00  0.00    +0.000 A 
ATOM     35  C   UNL     1     -10.887   6.987 130.213  0.00  0.00    +0.000 A 
ATOM     36  C   UNL     1     -11.622   5.811 130.323  0.00  0.00    +0.000 A 
ATOM     37  C   UNL     1     -10.960   4.582 130.318  0.00  0.00    +0.000 A 
ATOM     38  F   UNL     1     -11.705   3.469 130.420  0.00  0.00    +0.000 F 
BRANCH  33  39
ATOM     39  O   UNL     1      -7.490   5.724 129.907  0.00  0.00    +0.000 OA
ATOM     40  H   UNL     1      -7.073   5.232 130.641  0.00  0.00    +0.000 HD
ENDBRANCH  33  39
ENDBRANCH  19  32
BRANCH  13  41
ATOM     41  C   UNL     1      -4.373  -4.572 133.976  0.00  0.00    +0.000 C 
ATOM     42  C   UNL     1      -3.828  -5.788 133.822  0.00  0.00    +0.000 C 
ENDBRANCH  13  41
TORSDOF 5
ENDMDL
MODEL 3
REMARK VINA RESULT:      -9.0      3.434      6.279
REMARK  Name = Sotorasib
REMARK  9 active torsions:
REMARK  status: ('A' for Active; 'I' for Inactive)
REMARK    1  A    between atoms: C_1  and  C_2
REMARK    2  A    between atoms: C_2  and  C_3
REMARK    3  A    between atoms: C_2  and  C_4
REMARK    4  A    between atoms: C_8  and  C_9
REMARK    5  A    between atoms: C_10  and  N_11
REMARK    6  A    between atoms: C_21  and  C_22
REMARK    7  A    between atoms: C_23  and  C_25
REMARK    8  A    between atoms: C_31  and  C_34
REMARK    9  A    between atoms: C_35  and  O_36
REMARK                            x       y       z     vdW  Elec       q    Type
REMARK                         _______ _______ _______ _____ _____    ______ ____
ROOT
ATOM      1  N   UNL     1      -5.008   4.458 129.852  0.00  0.00    +0.000 N 
ATOM      2  C   UNL     1      -4.095   3.445 130.207  0.00  0.00    +0.000 A 
ATOM      3  O   UNL     1      -2.912   3.705 130.458  0.00  0.00    +0.000 OA
ATOM      4  N   UNL     1      -4.525   2.138 130.334  0.00  0.00    +0.000 NA
ATOM      5  C   UNL     1      -5.774   1.802 130.225  0.00  0.00    +0.000 A 
ATOM      6  N   UNL     1      -6.185   0.471 130.372  0.00  0.00    +0.000 N 
ATOM      7  C   UNL     1      -6.900  -0.255 129.295  0.00  0.00    +0.000 C 
ATOM      8  C   UNL     1      -6.224  -1.593 128.941  0.00  0.00    +0.000 C 
ATOM      9  N   UNL     1      -5.970  -2.406 130.139  0.00  0.00    +0.000 N 
ATOM     10  C   UNL     1      -5.167  -1.683 131.136  0.00  0.00    +0.000 C 
ATOM     11  C   UNL     1      -5.840  -0.352 131.560  0.00  0.00    +0.000 C 
ATOM     12  C   UNL     1      -7.105  -0.653 132.384  0.00  0.00    +0.000 C 
ATOM     13  C   UNL     1      -6.511  -3.681 130.237  0.00  0.00    +0.000 C 
ATOM     14  O   UNL     1      -7.203  -4.167 129.343  0.00  0.00    +0.000 OA
ATOM     15  C   UNL     1      -6.797   2.841 129.970  0.00  0.00    +0.000 A 
ATOM     16  C   UNL     1      -8.154   2.535 130.049  0.00  0.00    +0.000 A 
ATOM     17  C   UNL     1      -9.086   3.539 129.929  0.00  0.00    +0.000 A 
ATOM     18  F   UNL     1     -10.384   3.216 129.916  0.00  0.00    +0.000 F 
ATOM     19  C   UNL     1      -8.654   4.843 129.762  0.00  0.00    +0.000 A 
ATOM     20  N   UNL     1      -7.325   5.153 129.618  0.00  0.00    +0.000 NA
ATOM     21  C   UNL     1      -6.399   4.159 129.772  0.00  0.00    +0.000 A 
ENDROOT
BRANCH   1  28
ATOM     22  C   UNL     1      -4.575   6.605 131.116  0.00  0.00    +0.000 A 
ATOM     23  N   UNL     1      -4.230   7.933 131.124  0.00  0.00    +0.000 NA
ATOM     24  C   UNL     1      -3.818   8.503 129.973  0.00  0.00    +0.000 A 
ATOM     25  C   UNL     1      -3.723   7.814 128.782  0.00  0.00    +0.000 A 
ATOM     26  C   UNL     1      -4.121   6.470 128.748  0.00  0.00    +0.000 A 
ATOM     27  C   UNL     1      -4.066   5.729 127.443  0.00  0.00    +0.000 C 
ATOM     28  C   UNL     1      -4.596   5.843 129.922  0.00  0.00    +0.000 A 
BRANCH  22  30
ATOM     29  C   UNL     1      -4.175   6.711 133.656  0.00  0.00    +0.000 C 
ATOM     30  C   UNL     1      -4.896   6.020 132.493  0.00  0.00    +0.000 C 
ATOM     31  C   UNL     1      -6.381   6.120 132.866  0.00  0.00    +0.000 C 
ENDBRANCH  22  30
ENDBRANCH   1  28
BRANCH  19  32
ATOM     32  C   UNL     1      -9.609   5.942 129.618  0.00  0.00    +0.000 A 
ATOM     33  C   UNL     1      -9.909   6.480 128.361  0.00  0.00    +0.000 A 
ATOM     34  C   UNL     1     -10.868   7.478 128.206  0.00  0.00    +0.000 A 
ATOM     35  C   UNL     1     -11.562   7.964 129.314  0.00  0.00    +0.000 A 
ATOM     36  C   UNL     1     -11.290   7.447 130.577  0.00  0.00    +0.000 A 
ATOM     37  C   UNL     1     -10.322   6.451 130.720  0.00  0.00    +0.000 A 
ATOM     38  F   UNL     1     -10.093   5.973 131.955  0.00  0.00    +0.000 F 
BRANCH  33  39
ATOM     39  O   UNL     1      -9.319   6.023 127.210  0.00  0.00    +0.000 OA
ATOM     40  H   UNL     1      -8.403   5.756 127.419  0.00  0.00    +0.000 HD
ENDBRANCH  33  39
ENDBRANCH  19  32
BRANCH  13  41
ATOM     41  C   UNL     1      -6.251  -4.478 131.478  0.00  0.00    +0.000 C 
ATOM     42  C   UNL     1      -5.238  -5.354 131.558  0.00  0.00    +0.000 C 
ENDBRANCH  13  41
TORSDOF 5
ENDMDL
MODEL 4
REMARK VINA RESULT:      -8.8      3.540      5.680
REMARK  Name = Sotorasib
REMARK  9 active torsions:
REMARK  status: ('A' for Active; 'I' for Inactive)
REMARK    1  A    between atoms: C_1  and  C_2
REMARK    2  A    between atoms: C_2  and  C_3
REMARK    3  A    between atoms: C_2  and  C_4
REMARK    4  A    between atoms: C_8  and  C_9
REMARK    5  A    between atoms: C_10  and  N_11
REMARK    6  A    between atoms: C_21  and  C_22
REMARK    7  A    between atoms: C_23  and  C_25
REMARK    8  A    between atoms: C_31  and  C_34
REMARK    9  A    between atoms: C_35  and  O_36
REMARK                            x       y       z     vdW  Elec       q    Type
REMARK                         _______ _______ _______ _____ _____    ______ ____
ROOT
ATOM      1  N   UNL     1      -7.439   1.421 130.993  0.00  0.00    +0.000 N 
ATOM      2  C   UNL     1      -7.464   2.065 129.740  0.00  0.00    +0.000 A 
ATOM      3  O   UNL     1      -7.436   3.299 129.651  0.00  0.00    +0.000 OA
ATOM      4  N   UNL     1      -7.466   1.319 128.577  0.00  0.00    +0.000 NA
ATOM      5  C   UNL     1      -7.355   0.026 128.578  0.00  0.00    +0.000 A 
ATOM      6  N   UNL     1      -7.345  -0.706 127.384  0.00  0.00    +0.000 N 
ATOM      7  C   UNL     1      -8.346  -1.761 127.100  0.00  0.00    +0.000 C 
ATOM      8  C   UNL     1      -9.055  -1.549 125.750  0.00  0.00    +0.000 C 
ATOM      9  N   UNL     1      -8.092  -1.334 124.660  0.00  0.00    +0.000 N 
ATOM     10  C   UNL     1      -7.188  -0.208 124.937  0.00  0.00    +0.000 C 
ATOM     11  C   UNL     1      -6.413  -0.409 126.265  0.00  0.00    +0.000 C 
ATOM     12  C   UNL     1      -5.397  -1.552 126.102  0.00  0.00    +0.000 C 
ATOM     13  C   UNL     1      -8.092  -2.182 123.560  0.00  0.00    +0.000 C 
ATOM     14  O   UNL     1      -8.883  -3.119 123.458  0.00  0.00    +0.000 OA
ATOM     15  C   UNL     1      -7.206  -0.699 129.861  0.00  0.00    +0.000 A 
ATOM     16  C   UNL     1      -6.886  -2.055 129.877  0.00  0.00    +0.000 A 
ATOM     17  C   UNL     1      -6.633  -2.681 131.075  0.00  0.00    +0.000 A 
ATOM     18  F   UNL     1      -6.417  -4.001 131.080  0.00  0.00    +0.000 F 
ATOM     19  C   UNL     1      -6.671  -1.940 132.243  0.00  0.00    +0.000 A 
ATOM     20  N   UNL     1      -7.046  -0.620 132.252  0.00  0.00    +0.000 NA
ATOM     21  C   UNL     1      -7.264   0.009 131.057  0.00  0.00    +0.000 A 
ENDROOT
BRANCH   1  28
ATOM     22  C   UNL     1      -5.958   2.606 132.665  0.00  0.00    +0.000 A 
ATOM     23  N   UNL     1      -5.808   3.301 133.839  0.00  0.00    +0.000 NA
ATOM     24  C   UNL     1      -6.911   3.685 134.513  0.00  0.00    +0.000 A 
ATOM     25  C   UNL     1      -8.191   3.413 134.079  0.00  0.00    +0.000 A 
ATOM     26  C   UNL     1      -8.361   2.659 132.908  0.00  0.00    +0.000 A 
ATOM     27  C   UNL     1      -9.752   2.319 132.459  0.00  0.00    +0.000 C 
ATOM     28  C   UNL     1      -7.232   2.204 132.191  0.00  0.00    +0.000 A 
BRANCH  22  30
ATOM     29  C   UNL     1      -3.632   3.475 131.994  0.00  0.00    +0.000 C 
ATOM     30  C   UNL     1      -4.656   2.339 131.909  0.00  0.00    +0.000 C 
ATOM     31  C   UNL     1      -3.893   1.112 132.425  0.00  0.00    +0.000 C 
ENDBRANCH  22  30
ENDBRANCH   1  28
BRANCH  19  32
ATOM     32  C   UNL     1      -6.421  -2.566 133.542  0.00  0.00    +0.000 A 
ATOM     33  C   UNL     1      -7.476  -2.918 134.391  0.00  0.00    +0.000 A 
ATOM     34  C   UNL     1      -7.251  -3.577 135.597  0.00  0.00    +0.000 A 
ATOM     35  C   UNL     1      -5.952  -3.907 135.986  0.00  0.00    +0.000 A 
ATOM     36  C   UNL     1      -4.881  -3.574 135.162  0.00  0.00    +0.000 A 
ATOM     37  C   UNL     1      -5.120  -2.909 133.958  0.00  0.00    +0.000 A 
ATOM     38  F   UNL     1      -4.061  -2.610 133.187  0.00  0.00    +0.000 F 
BRANCH  33  39
ATOM     39  O   UNL     1      -8.787  -2.685 134.064  0.00  0.00    +0.000 OA
ATOM     40  H   UNL     1      -9.325  -2.760 134.876  0.00  0.00    +0.000 HD
ENDBRANCH  33  39
ENDBRANCH  19  32
BRANCH  13  41
ATOM     41  C   UNL     1      -7.087  -1.949 122.474  0.00  0.00    +0.000 C 
ATOM     42  C   UNL     1      -5.840  -2.438 122.548  0.00  0.00    +0.000 C 
ENDBRANCH  13  41
TORSDOF 5
ENDMDL
MODEL 5
REMARK VINA RESULT:      -8.8      3.466      5.224
REMARK  Name = Sotorasib
REMARK  9 active torsions:
REMARK  status: ('A' for Active; 'I' for Inactive)
REMARK    1  A    between atoms: C_1  and  C_2
REMARK    2  A    between atoms: C_2  and  C_3
REMARK    3  A    between atoms: C_2  and  C_4
REMARK    4  A    between atoms: C_8  and  C_9
REMARK    5  A    between atoms: C_10  and  N_11
REMARK    6  A    between atoms: C_21  and  C_22
REMARK    7  A    between atoms: C_23  and  C_25
REMARK    8  A    between atoms: C_31  and  C_34
REMARK    9  A    between atoms: C_35  and  O_36
REMARK                            x       y       z     vdW  Elec       q    Type
REMARK                         _______ _______ _______ _____ _____    ______ ____
ROOT
ATOM      1  N   UNL     1      -7.613   3.576 130.400  0.00  0.00    +0.000 N 
ATOM      2  C   UNL     1      -7.693   4.673 129.520  0.00  0.00    +0.000 A 
ATOM      3  O   UNL     1      -8.088   5.780 129.907  0.00  0.00    +0.000 OA
ATOM      4  N   UNL     1      -7.276   4.543 128.209  0.00  0.00    +0.000 NA
ATOM      5  C   UNL     1      -6.720   3.460 127.759  0.00  0.00    +0.000 A 
ATOM      6  N   UNL     1      -6.293   3.358 126.429  0.00  0.00    +0.000 N 
ATOM      7  C   UNL     1      -6.813   2.315 125.514  0.00  0.00    +0.000 C 
ATOM      8  C   UNL     1      -7.361   2.906 124.202  0.00  0.00    +0.000 C 
ATOM      9  N   UNL     1      -6.398   3.821 123.575  0.00  0.00    +0.000 N 
ATOM     10  C   UNL     1      -5.991   4.903 124.484  0.00  0.00    +0.000 C 
ATOM     11  C   UNL     1      -5.383   4.349 125.798  0.00  0.00    +0.000 C 
ATOM     12  C   UNL     1      -4.017   3.703 125.502  0.00  0.00    +0.000 C 
ATOM     13  C   UNL     1      -5.952   3.576 122.282  0.00  0.00    +0.000 C 
ATOM     14  O   UNL     1      -6.342   2.609 121.629  0.00  0.00    +0.000 OA
ATOM     15  C   UNL     1      -6.501   2.313 128.669  0.00  0.00    +0.000 A 
ATOM     16  C   UNL     1      -5.732   1.224 128.265  0.00  0.00    +0.000 A 
ATOM     17  C   UNL     1      -5.439   0.225 129.164  0.00  0.00    +0.000 A 
ATOM     18  F   UNL     1      -4.777  -0.856 128.736  0.00  0.00    +0.000 F 
ATOM     19  C   UNL     1      -5.893   0.338 130.467  0.00  0.00    +0.000 A 
ATOM     20  N   UNL     1      -6.704   1.371 130.865  0.00  0.00    +0.000 NA
ATOM     21  C   UNL     1      -6.965   2.379 129.979  0.00  0.00    +0.000 A 
ENDROOT
BRANCH   1  28
ATOM     22  C   UNL     1      -6.917   4.344 132.706  0.00  0.00    +0.000 A 
ATOM     23  N   UNL     1      -7.173   4.463 134.049  0.00  0.00    +0.000 NA
ATOM     24  C   UNL     1      -8.389   4.106 134.512  0.00  0.00    +0.000 A 
ATOM     25  C   UNL     1      -9.394   3.627 133.699  0.00  0.00    +0.000 A 
ATOM     26  C   UNL     1      -9.131   3.452 132.332  0.00  0.00    +0.000 A 
ATOM     27  C   UNL     1     -10.206   2.884 131.452  0.00  0.00    +0.000 C 
ATOM     28  C   UNL     1      -7.858   3.776 131.811  0.00  0.00    +0.000 A 
BRANCH  22  30
ATOM     29  C   UNL     1      -5.016   6.018 133.158  0.00  0.00    +0.000 C 
ATOM     30  C   UNL     1      -5.564   4.901 132.262  0.00  0.00    +0.000 C 
ATOM     31  C   UNL     1      -4.445   3.851 132.253  0.00  0.00    +0.000 C 
ENDBRANCH  22  30
ENDBRANCH   1  28
BRANCH  19  32
ATOM     32  C   UNL     1      -5.616  -0.705 131.455  0.00  0.00    +0.000 A 
ATOM     33  C   UNL     1      -6.545  -1.720 131.715  0.00  0.00    +0.000 A 
ATOM     34  C   UNL     1      -6.262  -2.755 132.602  0.00  0.00    +0.000 A 
ATOM     35  C   UNL     1      -5.029  -2.805 133.254  0.00  0.00    +0.000 A 
ATOM     36  C   UNL     1      -4.083  -1.814 133.015  0.00  0.00    +0.000 A 
ATOM     37  C   UNL     1      -4.381  -0.778 132.128  0.00  0.00    +0.000 A 
ATOM     38  F   UNL     1      -3.439   0.157 131.918  0.00  0.00    +0.000 F 
BRANCH  33  39
ATOM     39  O   UNL     1      -7.757  -1.783 131.077  0.00  0.00    +0.000 OA
ATOM     40  H   UNL     1      -8.432  -1.387 131.660  0.00  0.00    +0.000 HD
ENDBRANCH  33  39
ENDBRANCH  19  32
BRANCH  13  41
ATOM     41  C   UNL     1      -4.955   4.516 121.676  0.00  0.00    +0.000 C 
ATOM     42  C   UNL     1      -5.049   4.922 120.401  0.00  0.00    +0.000 C 
ENDBRANCH  13  41
TORSDOF 5
ENDMDL
MODEL 6
REMARK VINA RESULT:      -8.7      3.770      6.925
REMARK  Name = Sotorasib
REMARK  9 active torsions:
REMARK  status: ('A' for Active; 'I' for Inactive)
REMARK    1  A    between atoms: C_1  and  C_2
REMARK    2  A    between atoms: C_2  and  C_3
REMARK    3  A    between atoms: C_2  and  C_4
REMARK    4  A    between atoms: C_8  and  C_9
REMARK    5  A    between atoms: C_10  and  N_11
REMARK    6  A    between atoms: C_21  and  C_22
REMARK    7  A    between atoms: C_23  and  C_25
REMARK    8  A    between atoms: C_31  and  C_34
REMARK    9  A    between atoms: C_35  and  O_36
REMARK                            x       y       z     vdW  Elec       q    Type
REMARK                         _______ _______ _______ _____ _____    ______ ____
ROOT
ATOM      1  N   UNL     1      -6.089   1.063 127.275  0.00  0.00    +0.000 N 
ATOM      2  C   UNL     1      -5.414  -0.163 127.113  0.00  0.00    +0.000 A 
ATOM      3  O   UNL     1      -4.894  -0.472 126.033  0.00  0.00    +0.000 OA
ATOM      4  N   UNL     1      -5.271  -1.023 128.184  0.00  0.00    +0.000 NA
ATOM      5  C   UNL     1      -5.663  -0.715 129.383  0.00  0.00    +0.000 A 
ATOM      6  N   UNL     1      -5.495  -1.600 130.455  0.00  0.00    +0.000 N 
ATOM      7  C   UNL     1      -6.641  -2.095 131.253  0.00  0.00    +0.000 C 
ATOM      8  C   UNL     1      -6.674  -3.632 131.342  0.00  0.00    +0.000 C 
ATOM      9  N   UNL     1      -5.376  -4.179 131.762  0.00  0.00    +0.000 N 
ATOM     10  C   UNL     1      -4.284  -3.748 130.877  0.00  0.00    +0.000 C 
ATOM     11  C   UNL     1      -4.182  -2.203 130.803  0.00  0.00    +0.000 C 
ATOM     12  C   UNL     1      -3.685  -1.652 132.151  0.00  0.00    +0.000 C 
ATOM     13  C   UNL     1      -5.294  -4.965 132.905  0.00  0.00    +0.000 C 
ATOM     14  O   UNL     1      -6.283  -5.228 133.588  0.00  0.00    +0.000 OA
ATOM     15  C   UNL     1      -6.274   0.609 129.639  0.00  0.00    +0.000 A 
ATOM     16  C   UNL     1      -6.517   1.038 130.942  0.00  0.00    +0.000 A 
ATOM     17  C   UNL     1      -6.972   2.316 131.165  0.00  0.00    +0.000 A 
ATOM     18  F   UNL     1      -7.285   2.682 132.413  0.00  0.00    +0.000 F 
ATOM     19  C   UNL     1      -7.152   3.165 130.086  0.00  0.00    +0.000 A 
ATOM     20  N   UNL     1      -6.979   2.739 128.793  0.00  0.00    +0.000 NA
ATOM     21  C   UNL     1      -6.494   1.479 128.576  0.00  0.00    +0.000 A 
ENDROOT
BRANCH   1  28
ATOM     22  C   UNL     1      -5.031   3.008 126.055  0.00  0.00    +0.000 A 
ATOM     23  N   UNL     1      -5.070   3.953 125.061  0.00  0.00    +0.000 NA
ATOM     24  C   UNL     1      -6.070   3.903 124.155  0.00  0.00    +0.000 A 
ATOM     25  C   UNL     1      -7.059   2.942 124.178  0.00  0.00    +0.000 A 
ATOM     26  C   UNL     1      -7.061   2.001 125.218  0.00  0.00    +0.000 A 
ATOM     27  C   UNL     1      -8.164   0.984 125.276  0.00  0.00    +0.000 C 
ATOM     28  C   UNL     1      -6.055   2.041 126.210  0.00  0.00    +0.000 A 
BRANCH  22  30
ATOM     29  C   UNL     1      -2.483   3.337 126.189  0.00  0.00    +0.000 C 
ATOM     30  C   UNL     1      -3.789   3.069 126.945  0.00  0.00    +0.000 C 
ATOM     31  C   UNL     1      -3.845   4.186 127.995  0.00  0.00    +0.000 C 
ENDBRANCH  22  30
ENDBRANCH   1  28
BRANCH  19  32
ATOM     32  C   UNL     1      -7.645   4.529 130.274  0.00  0.00    +0.000 A 
ATOM     33  C   UNL     1      -8.987   4.852 130.039  0.00  0.00    +0.000 A 
ATOM     34  C   UNL     1      -9.481   6.132 130.282  0.00  0.00    +0.000 A 
ATOM     35  C   UNL     1      -8.638   7.128 130.774  0.00  0.00    +0.000 A 
ATOM     36  C   UNL     1      -7.300   6.839 131.021  0.00  0.00    +0.000 A 
ATOM     37  C   UNL     1      -6.816   5.554 130.768  0.00  0.00    +0.000 A 
ATOM     38  F   UNL     1      -5.519   5.312 131.026  0.00  0.00    +0.000 F 
BRANCH  33  39
ATOM     39  O   UNL     1      -9.899   3.922 129.611  0.00  0.00    +0.000 OA
ATOM     40  H   UNL     1      -9.788   3.113 130.148  0.00  0.00    +0.000 HD
ENDBRANCH  33  39
ENDBRANCH  19  32
BRANCH  13  41
ATOM     41  C   UNL     1      -3.955  -5.492 133.319  0.00  0.00    +0.000 C 
ATOM     42  C   UNL     1      -3.459  -5.279 134.547  0.00  0.00    +0.000 C 
ENDBRANCH  13  41
TORSDOF 5
ENDMDL
MODEL 7
REMARK VINA RESULT:      -8.6      4.088      6.537
REMARK  Name = Sotorasib
REMARK  9 active torsions:
REMARK  status: ('A' for Active; 'I' for Inactive)
REMARK    1  A    between atoms: C_1  and  C_2
REMARK    2  A    between atoms: C_2  and  C_3
REMARK    3  A    between atoms: C_2  and  C_4
REMARK    4  A    between atoms: C_8  and  C_9
REMARK    5  A    between atoms: C_10  and  N_11
REMARK    6  A    between atoms: C_21  and  C_22
REMARK    7  A    between atoms: C_23  and  C_25
REMARK    8  A    between atoms: C_31  and  C_34
REMARK    9  A    between atoms: C_35  and  O_36
REMARK                            x       y       z     vdW  Elec       q    Type
REMARK                         _______ _______ _______ _____ _____    ______ ____
ROOT
ATOM      1  N   UNL     1      -4.115   3.656 132.095  0.00  0.00    +0.000 N 
ATOM      2  C   UNL     1      -3.208   2.678 132.551  0.00  0.00    +0.000 A 
ATOM      3  O   UNL     1      -2.091   2.989 132.982  0.00  0.00    +0.000 OA
ATOM      4  N   UNL     1      -3.579   1.347 132.576  0.00  0.00    +0.000 NA
ATOM      5  C   UNL     1      -4.778   0.952 132.274  0.00  0.00    +0.000 A 
ATOM      6  N   UNL     1      -5.131  -0.403 132.321  0.00  0.00    +0.000 N 
ATOM      7  C   UNL     1      -5.639  -1.125 131.130  0.00  0.00    +0.000 C 
ATOM      8  C   UNL     1      -4.845  -2.413 130.843  0.00  0.00    +0.000 C 
ATOM      9  N   UNL     1      -4.725  -3.254 132.041  0.00  0.00    +0.000 N 
ATOM     10  C   UNL     1      -4.117  -2.528 133.167  0.00  0.00    +0.000 C 
ATOM     11  C   UNL     1      -4.919  -1.250 133.524  0.00  0.00    +0.000 C 
ATOM     12  C   UNL     1      -6.271  -1.644 134.142  0.00  0.00    +0.000 C 
ATOM     13  C   UNL     1      -5.202  -4.558 132.022  0.00  0.00    +0.000 C 
ATOM     14  O   UNL     1      -5.728  -5.046 131.022  0.00  0.00    +0.000 OA
ATOM     15  C   UNL     1      -5.808   1.946 131.900  0.00  0.00    +0.000 A 
ATOM     16  C   UNL     1      -7.143   1.569 131.768  0.00  0.00    +0.000 A 
ATOM     17  C   UNL     1      -8.102   2.528 131.540  0.00  0.00    +0.000 A 
ATOM     18  F   UNL     1      -9.365   2.140 131.326  0.00  0.00    +0.000 F 
ATOM     19  C   UNL     1      -7.724   3.858 131.476  0.00  0.00    +0.000 A 
ATOM     20  N   UNL     1      -6.407   4.240 131.539  0.00  0.00    +0.000 NA
ATOM     21  C   UNL     1      -5.460   3.289 131.801  0.00  0.00    +0.000 A 
ENDROOT
BRANCH   1  28
ATOM     22  C   UNL     1      -3.285   5.882 131.231  0.00  0.00    +0.000 A 
ATOM     23  N   UNL     1      -2.944   7.193 131.454  0.00  0.00    +0.000 NA
ATOM     24  C   UNL     1      -3.182   7.729 132.669  0.00  0.00    +0.000 A 
ATOM     25  C   UNL     1      -3.756   7.023 133.704  0.00  0.00    +0.000 A 
ATOM     26  C   UNL     1      -4.064   5.669 133.508  0.00  0.00    +0.000 A 
ATOM     27  C   UNL     1      -4.644   4.883 134.648  0.00  0.00    +0.000 C 
ATOM     28  C   UNL     1      -3.795   5.056 132.263  0.00  0.00    +0.000 A 
BRANCH  22  30
ATOM     29  C   UNL     1      -4.387   5.433 128.950  0.00  0.00    +0.000 C 
ATOM     30  C   UNL     1      -3.104   5.411 129.788  0.00  0.00    +0.000 C 
ATOM     31  C   UNL     1      -2.121   6.274 128.984  0.00  0.00    +0.000 C 
ENDBRANCH  22  30
ENDBRANCH   1  28
BRANCH  19  32
ATOM     32  C   UNL     1      -8.707   4.911 131.223  0.00  0.00    +0.000 A 
ATOM     33  C   UNL     1      -8.813   5.514 129.964  0.00  0.00    +0.000 A 
ATOM     34  C   UNL     1      -9.793   6.468 129.695  0.00  0.00    +0.000 A 
ATOM     35  C   UNL     1     -10.701   6.841 130.685  0.00  0.00    +0.000 A 
ATOM     36  C   UNL     1     -10.625   6.257 131.945  0.00  0.00    +0.000 A 
ATOM     37  C   UNL     1      -9.635   5.307 132.205  0.00  0.00    +0.000 A 
ATOM     38  F   UNL     1      -9.598   4.761 133.432  0.00  0.00    +0.000 F 
BRANCH  33  39
ATOM     39  O   UNL     1      -8.001   5.167 128.916  0.00  0.00    +0.000 OA
ATOM     40  H   UNL     1      -8.056   5.869 128.239  0.00  0.00    +0.000 HD
ENDBRANCH  33  39
ENDBRANCH  19  32
BRANCH  13  41
ATOM     41  C   UNL     1      -5.083  -5.386 133.265  0.00  0.00    +0.000 C 
ATOM     42  C   UNL     1      -6.077  -5.461 134.163  0.00  0.00    +0.000 C 
ENDBRANCH  13  41
TORSDOF 5
ENDMDL
MODEL 8
REMARK VINA RESULT:      -8.6      3.791      5.975
REMARK  Name = Sotorasib
REMARK  9 active torsions:
REMARK  status: ('A' for Active; 'I' for Inactive)
REMARK    1  A    between atoms: C_1  and  C_2
REMARK    2  A    between atoms: C_2  and  C_3
REMARK    3  A    between atoms: C_2  and  C_4
REMARK    4  A    between atoms: C_8  and  C_9
REMARK    5  A    between atoms: C_10  and  N_11
REMARK    6  A    between atoms: C_21  and  C_22
REMARK    7  A    between atoms: C_23  and  C_25
REMARK    8  A    between atoms: C_31  and  C_34
REMARK    9  A    between atoms: C_35  and  O_36
REMARK                            x       y       z     vdW  Elec       q    Type
REMARK                         _______ _______ _______ _____ _____    ______ ____
ROOT
ATOM      1  N   UNL     1      -7.031   3.187 131.086  0.00  0.00    +0.000 N 
ATOM      2  C   UNL     1      -7.215   2.516 132.311  0.00  0.00    +0.000 A 
ATOM      3  O   UNL     1      -7.846   3.036 133.240  0.00  0.00    +0.000 OA
ATOM      4  N   UNL     1      -6.735   1.231 132.477  0.00  0.00    +0.000 NA
ATOM      5  C   UNL     1      -6.185   0.563 131.510  0.00  0.00    +0.000 A 
ATOM      6  N   UNL     1      -5.719  -0.744 131.700  0.00  0.00    +0.000 N 
ATOM      7  C   UNL     1      -4.303  -1.116 131.466  0.00  0.00    +0.000 C 
ATOM      8  C   UNL     1      -3.674  -1.824 132.680  0.00  0.00    +0.000 C 
ATOM      9  N   UNL     1      -4.511  -2.936 133.153  0.00  0.00    +0.000 N 
ATOM     10  C   UNL     1      -5.878  -2.500 133.476  0.00  0.00    +0.000 C 
ATOM     11  C   UNL     1      -6.567  -1.828 132.260  0.00  0.00    +0.000 C 
ATOM     12  C   UNL     1      -6.858  -2.886 131.182  0.00  0.00    +0.000 C 
ATOM     13  C   UNL     1      -3.987  -4.222 133.208  0.00  0.00    +0.000 C 
ATOM     14  O   UNL     1      -2.829  -4.469 132.874  0.00  0.00    +0.000 OA
ATOM     15  C   UNL     1      -6.070   1.173 130.166  0.00  0.00    +0.000 A 
ATOM     16  C   UNL     1      -5.670   0.408 129.072  0.00  0.00    +0.000 A 
ATOM     17  C   UNL     1      -5.686   0.961 127.812  0.00  0.00    +0.000 A 
ATOM     18  F   UNL     1      -5.214   0.243 126.787  0.00  0.00    +0.000 F 
ATOM     19  C   UNL     1      -6.130   2.262 127.653  0.00  0.00    +0.000 A 
ATOM     20  N   UNL     1      -6.466   3.049 128.726  0.00  0.00    +0.000 NA
ATOM     21  C   UNL     1      -6.483   2.487 129.973  0.00  0.00    +0.000 A 
ENDROOT
BRANCH   1  28
ATOM     22  C   UNL     1      -7.096   5.713 130.988  0.00  0.00    +0.000 A 
ATOM     23  N   UNL     1      -7.796   6.880 130.811  0.00  0.00    +0.000 NA
ATOM     24  C   UNL     1      -9.084   6.811 130.414  0.00  0.00    +0.000 A 
ATOM     25  C   UNL     1      -9.735   5.619 130.174  0.00  0.00    +0.000 A 
ATOM     26  C   UNL     1      -9.048   4.417 130.400  0.00  0.00    +0.000 A 
ATOM     27  C   UNL     1      -9.769   3.118 130.188  0.00  0.00    +0.000 C 
ATOM     28  C   UNL     1      -7.710   4.443 130.853  0.00  0.00    +0.000 A 
BRANCH  22  30
ATOM     29  C   UNL     1      -5.000   7.182 130.725  0.00  0.00    +0.000 C 
ATOM     30  C   UNL     1      -5.611   5.900 131.303  0.00  0.00    +0.000 C 
ATOM     31  C   UNL     1      -5.314   5.994 132.805  0.00  0.00    +0.000 C 
ENDBRANCH  22  30
ENDBRANCH   1  28
BRANCH  19  32
ATOM     32  C   UNL     1      -6.153   2.895 126.335  0.00  0.00    +0.000 A 
ATOM     33  C   UNL     1      -7.360   3.122 125.662  0.00  0.00    +0.000 A 
ATOM     34  C   UNL     1      -7.397   3.787 124.439  0.00  0.00    +0.000 A 
ATOM     35  C   UNL     1      -6.219   4.250 123.854  0.00  0.00    +0.000 A 
ATOM     36  C   UNL     1      -5.003   4.044 124.499  0.00  0.00    +0.000 A 
ATOM     37  C   UNL     1      -4.978   3.371 125.722  0.00  0.00    +0.000 A 
ATOM     38  F   UNL     1      -3.786   3.197 126.317  0.00  0.00    +0.000 F 
BRANCH  33  39
ATOM     39  O   UNL     1      -8.571   2.754 126.189  0.00  0.00    +0.000 OA
ATOM     40  H   UNL     1      -9.262   3.325 125.801  0.00  0.00    +0.000 HD
ENDBRANCH  33  39
ENDBRANCH  19  32
BRANCH  13  41
ATOM     41  C   UNL     1      -4.870  -5.337 133.676  0.00  0.00    +0.000 C 
ATOM     42  C   UNL     1      -4.697  -5.924 134.870  0.00  0.00    +0.000 C 
ENDBRANCH  13  41
TORSDOF 5
ENDMDL
MODEL 9
REMARK VINA RESULT:      -8.5      4.082      6.674
REMARK  Name = Sotorasib
REMARK  9 active torsions:
REMARK  status: ('A' for Active; 'I' for Inactive)
REMARK    1  A    between atoms: C_1  and  C_2
REMARK    2  A    between atoms: C_2  and  C_3
REMARK    3  A    between atoms: C_2  and  C_4
REMARK    4  A    between atoms: C_8  and  C_9
REMARK    5  A    between atoms: C_10  and  N_11
REMARK    6  A    between atoms: C_21  and  C_22
REMARK    7  A    between atoms: C_23  and  C_25
REMARK    8  A    between atoms: C_31  and  C_34
REMARK    9  A    between atoms: C_35  and  O_36
REMARK                            x       y       z     vdW  Elec       q    Type
REMARK                         _______ _______ _______ _____ _____    ______ ____
ROOT
ATOM      1  N   UNL     1      -4.122   3.633 132.076  0.00  0.00    +0.000 N 
ATOM      2  C   UNL     1      -3.222   2.659 132.552  0.00  0.00    +0.000 A 
ATOM      3  O   UNL     1      -2.106   2.972 132.986  0.00  0.00    +0.000 OA
ATOM      4  N   UNL     1      -3.598   1.330 132.594  0.00  0.00    +0.000 NA
ATOM      5  C   UNL     1      -4.796   0.935 132.290  0.00  0.00    +0.000 A 
ATOM      6  N   UNL     1      -5.156  -0.418 132.354  0.00  0.00    +0.000 N 
ATOM      7  C   UNL     1      -5.658  -1.155 131.171  0.00  0.00    +0.000 C 
ATOM      8  C   UNL     1      -4.868  -2.449 130.907  0.00  0.00    +0.000 C 
ATOM      9  N   UNL     1      -4.758  -3.274 132.118  0.00  0.00    +0.000 N 
ATOM     10  C   UNL     1      -4.155  -2.534 133.237  0.00  0.00    +0.000 C 
ATOM     11  C   UNL     1      -4.954  -1.248 133.570  0.00  0.00    +0.000 C 
ATOM     12  C   UNL     1      -6.311  -1.628 134.185  0.00  0.00    +0.000 C 
ATOM     13  C   UNL     1      -5.241  -4.577 132.114  0.00  0.00    +0.000 C 
ATOM     14  O   UNL     1      -5.762  -5.077 131.118  0.00  0.00    +0.000 OA
ATOM     15  C   UNL     1      -5.821   1.928 131.896  0.00  0.00    +0.000 A 
ATOM     16  C   UNL     1      -7.156   1.554 131.761  0.00  0.00    +0.000 A 
ATOM     17  C   UNL     1      -8.110   2.513 131.513  0.00  0.00    +0.000 A 
ATOM     18  F   UNL     1      -9.373   2.126 131.296  0.00  0.00    +0.000 F 
ATOM     19  C   UNL     1      -7.726   3.840 131.432  0.00  0.00    +0.000 A 
ATOM     20  N   UNL     1      -6.409   4.218 131.498  0.00  0.00    +0.000 NA
ATOM     21  C   UNL     1      -5.466   3.268 131.779  0.00  0.00    +0.000 A 
ENDROOT
BRANCH   1  28
ATOM     22  C   UNL     1      -4.001   5.771 133.420  0.00  0.00    +0.000 A 
ATOM     23  N   UNL     1      -3.730   7.114 133.499  0.00  0.00    +0.000 NA
ATOM     24  C   UNL     1      -3.175   7.729 132.433  0.00  0.00    +0.000 A 
ATOM     25  C   UNL     1      -2.863   7.070 131.263  0.00  0.00    +0.000 A 
ATOM     26  C   UNL     1      -3.180   5.709 131.149  0.00  0.00    +0.000 A 
ATOM     27  C   UNL     1      -2.887   5.000 129.859  0.00  0.00    +0.000 C 
ATOM     28  C   UNL     1      -3.798   5.035 132.227  0.00  0.00    +0.000 A 
BRANCH  22  30
ATOM     29  C   UNL     1      -3.899   5.760 135.991  0.00  0.00    +0.000 C 
ATOM     30  C   UNL     1      -4.499   5.143 134.723  0.00  0.00    +0.000 C 
ATOM     31  C   UNL     1      -6.014   5.279 134.925  0.00  0.00    +0.000 C 
ENDBRANCH  22  30
ENDBRANCH   1  28
BRANCH  19  32
ATOM     32  C   UNL     1      -8.704   4.893 131.158  0.00  0.00    +0.000 A 
ATOM     33  C   UNL     1      -8.821   5.458 129.882  0.00  0.00    +0.000 A 
ATOM     34  C   UNL     1      -9.795   6.411 129.595  0.00  0.00    +0.000 A 
ATOM     35  C   UNL     1     -10.689   6.823 130.583  0.00  0.00    +0.000 A 
ATOM     36  C   UNL     1     -10.602   6.278 131.861  0.00  0.00    +0.000 A 
ATOM     37  C   UNL     1      -9.617   5.328 132.138  0.00  0.00    +0.000 A 
ATOM     38  F   UNL     1      -9.569   4.820 133.381  0.00  0.00    +0.000 F 
BRANCH  33  39
ATOM     39  O   UNL     1      -8.024   5.071 128.835  0.00  0.00    +0.000 OA
ATOM     40  H   UNL     1      -7.480   4.314 129.127  0.00  0.00    +0.000 HD
ENDBRANCH  33  39
ENDBRANCH  19  32
BRANCH  13  41
ATOM     41  C   UNL     1      -5.132  -5.386 133.369  0.00  0.00    +0.000 C 
ATOM     42  C   UNL     1      -6.145  -5.474 134.245  0.00  0.00    +0.000 C 
ENDBRANCH  13  41
TORSDOF 5
ENDMDL
