MODEL 1
REMARK VINA RESULT:      -7.3      0.000      0.000
REMARK  Name = Sparfloxacin
REMARK  7 active torsions:
REMARK  status: ('A' for Active; 'I' for Inactive)
REMARK    1  A    between atoms: C_1  and  C_2
REMARK    2  A    between atoms: N_4  and  C_9
REMARK    3  A    between atoms: C_6  and  C_7
REMARK    4  A    between atoms: C_12  and  N_13
REMARK    5  A    between atoms: C_17  and  C_26
REMARK    6  A    between atoms: N_19  and  C_20
REMARK    7  A    between atoms: C_26  and  O_27
REMARK                            x       y       z     vdW  Elec       q    Type
REMARK                         _______ _______ _______ _____ _____    ______ ____
ROOT
ATOM      1  C   UNL     1      -7.227   2.295 124.871  0.00  0.00    +0.000 A 
ATOM      2  C   UNL     1      -7.436   2.716 126.189  0.00  0.00    +0.000 A 
ATOM      3  F   UNL     1      -7.558   4.032 126.446  0.00  0.00    +0.000 F 
ATOM      4  C   UNL     1      -7.594   1.820 127.255  0.00  0.00    +0.000 A 
ATOM      5  C   UNL     1      -7.495   0.435 126.995  0.00  0.00    +0.000 A 
ATOM      6  C   UNL     1      -7.655  -0.522 128.135  0.00  0.00    +0.000 A 
ATOM      7  O   UNL     1      -7.888  -0.102 129.265  0.00  0.00    +0.000 OA
ATOM      8  C   UNL     1      -7.520  -1.975 127.887  0.00  0.00    +0.000 A 
ATOM      9  C   UNL     1      -7.279  -2.305 126.612  0.00  0.00    +0.000 A 
ATOM     10  N   UNL     1      -7.185  -1.482 125.496  0.00  0.00    +0.000 N 
ATOM     11  C   UNL     1      -7.266  -0.061 125.690  0.00  0.00    +0.000 A 
ATOM     12  C   UNL     1      -7.141   0.899 124.654  0.00  0.00    +0.000 A 
ATOM     13  F   UNL     1      -6.906   0.493 123.394  0.00  0.00    +0.000 F 
ENDROOT
BRANCH   1  17
ATOM     14  C   UNL     1      -4.403   4.816 121.722  0.00  0.00    +0.000 C 
ATOM     15  C   UNL     1      -5.567   3.893 122.070  0.00  0.00    +0.000 C 
ATOM     16  C   UNL     1      -5.960   4.032 123.577  0.00  0.00    +0.000 C 
ATOM     17  N   UNL     1      -7.140   3.199 123.828  0.00  0.00    +0.000 N 
ATOM     18  C   UNL     1      -8.286   3.463 122.959  0.00  0.00    +0.000 C 
ATOM     19  C   UNL     1      -7.845   3.319 121.482  0.00  0.00    +0.000 C 
ATOM     20  C   UNL     1      -9.012   3.654 120.564  0.00  0.00    +0.000 C 
ATOM     21  N   UNL     1      -6.693   4.193 121.144  0.00  0.00    +0.000 NA
ATOM     22  H   UNL     1      -6.974   5.163 121.289  0.00  0.00    +0.000 HD
ENDBRANCH   1  17
BRANCH   4  23
ATOM     23  N   UNL     1      -7.820   2.316 128.537  0.00  0.00    +0.000 N 
ATOM     24  H   UNL     1      -7.395   3.170 128.866  0.00  0.00    +0.000 HD
ATOM     25  H   UNL     1      -8.539   1.855 129.109  0.00  0.00    +0.000 HD
ENDBRANCH   4  23
BRANCH  10  26
ATOM     26  C   UNL     1      -6.735  -2.084 124.202  0.00  0.00    +0.000 C 
ATOM     27  C   UNL     1      -5.263  -2.366 123.952  0.00  0.00    +0.000 C 
ATOM     28  C   UNL     1      -6.244  -3.493 123.973  0.00  0.00    +0.000 C 
ENDBRANCH  10  26
BRANCH   8  29
ATOM     29  C   UNL     1      -7.654  -2.949 129.005  0.00  0.00    +0.000 C 
ATOM     30  O   UNL     1      -8.635  -3.669 129.164  0.00  0.00    +0.000 OA
BRANCH  29  31
ATOM     31  O   UNL     1      -6.627  -3.047 129.876  0.00  0.00    +0.000 OA
ATOM     32  H   UNL     1      -6.538  -3.824 130.447  0.00  0.00    +0.000 HD
ENDBRANCH  29  31
ENDBRANCH   8  29
TORSDOF 5
ENDMDL
MODEL 2
REMARK VINA RESULT:      -7.2      3.770      5.516
REMARK  Name = Sparfloxacin
REMARK  7 active torsions:
REMARK  status: ('A' for Active; 'I' for Inactive)
REMARK    1  A    between atoms: C_1  and  C_2
REMARK    2  A    between atoms: N_4  and  C_9
REMARK    3  A    between atoms: C_6  and  C_7
REMARK    4  A    between atoms: C_12  and  N_13
REMARK    5  A    between atoms: C_17  and  C_26
REMARK    6  A    between atoms: N_19  and  C_20
REMARK    7  A    between atoms: C_26  and  O_27
REMARK                            x       y       z     vdW  Elec       q    Type
REMARK                         _______ _______ _______ _____ _____    ______ ____
ROOT
ATOM      1  C   UNL     1      -7.556  -0.295 126.630  0.00  0.00    +0.000 A 
ATOM      2  C   UNL     1      -7.663   1.100 126.626  0.00  0.00    +0.000 A 
ATOM      3  F   UNL     1      -7.603   1.760 125.454  0.00  0.00    +0.000 F 
ATOM      4  C   UNL     1      -7.903   1.845 127.789  0.00  0.00    +0.000 A 
ATOM      5  C   UNL     1      -7.996   1.163 129.022  0.00  0.00    +0.000 A 
ATOM      6  C   UNL     1      -8.242   1.959 130.266  0.00  0.00    +0.000 A 
ATOM      7  O   UNL     1      -8.379   3.177 130.201  0.00  0.00    +0.000 OA
ATOM      8  C   UNL     1      -8.309   1.264 131.571  0.00  0.00    +0.000 A 
ATOM      9  C   UNL     1      -8.155  -0.064 131.506  0.00  0.00    +0.000 A 
ATOM     10  N   UNL     1      -7.992  -0.875 130.389  0.00  0.00    +0.000 N 
ATOM     11  C   UNL     1      -7.877  -0.245 129.102  0.00  0.00    +0.000 A 
ATOM     12  C   UNL     1      -7.662  -0.938 127.886  0.00  0.00    +0.000 A 
ATOM     13  F   UNL     1      -7.525  -2.276 127.896  0.00  0.00    +0.000 F 
ENDROOT
BRANCH   1  17
ATOM     14  C   UNL     1      -4.722  -3.232 123.876  0.00  0.00    +0.000 C 
ATOM     15  C   UNL     1      -6.030  -2.857 124.565  0.00  0.00    +0.000 C 
ATOM     16  C   UNL     1      -6.073  -1.328 124.889  0.00  0.00    +0.000 C 
ATOM     17  N   UNL     1      -7.385  -1.010 125.458  0.00  0.00    +0.000 N 
ATOM     18  C   UNL     1      -8.531  -1.406 124.642  0.00  0.00    +0.000 C 
ATOM     19  C   UNL     1      -8.441  -2.923 124.344  0.00  0.00    +0.000 C 
ATOM     20  C   UNL     1      -9.594  -3.338 123.440  0.00  0.00    +0.000 C 
ATOM     21  N   UNL     1      -7.157  -3.300 123.700  0.00  0.00    +0.000 NA
ATOM     22  H   UNL     1      -7.087  -2.807 122.809  0.00  0.00    +0.000 HD
ENDBRANCH   1  17
BRANCH   4  23
ATOM     23  N   UNL     1      -8.019   3.231 127.702  0.00  0.00    +0.000 N 
ATOM     24  H   UNL     1      -8.497   3.684 126.937  0.00  0.00    +0.000 HD
ATOM     25  H   UNL     1      -7.711   3.789 128.508  0.00  0.00    +0.000 HD
ENDBRANCH   4  23
BRANCH  10  26
ATOM     26  C   UNL     1      -7.668  -2.321 130.598  0.00  0.00    +0.000 C 
ATOM     27  C   UNL     1      -6.241  -2.760 130.884  0.00  0.00    +0.000 C 
ATOM     28  C   UNL     1      -7.312  -2.997 131.900  0.00  0.00    +0.000 C 
ENDBRANCH  10  26
BRANCH   8  29
ATOM     29  C   UNL     1      -8.532   2.032 132.827  0.00  0.00    +0.000 C 
ATOM     30  O   UNL     1      -7.697   2.127 133.721  0.00  0.00    +0.000 OA
BRANCH  29  31
ATOM     31  O   UNL     1      -9.715   2.666 132.972  0.00  0.00    +0.000 OA
ATOM     32  H   UNL     1     -10.330   2.405 133.672  0.00  0.00    +0.000 HD
ENDBRANCH  29  31
ENDBRANCH   8  29
TORSDOF 5
ENDMDL
MODEL 3
REMARK VINA RESULT:      -7.0      3.543      5.872
REMARK  Name = Sparfloxacin
REMARK  7 active torsions:
REMARK  status: ('A' for Active; 'I' for Inactive)
REMARK    1  A    between atoms: C_1  and  C_2
REMARK    2  A    between atoms: N_4  and  C_9
REMARK    3  A    between atoms: C_6  and  C_7
REMARK    4  A    between atoms: C_12  and  N_13
REMARK    5  A    between atoms: C_17  and  C_26
REMARK    6  A    between atoms: N_19  and  C_20
REMARK    7  A    between atoms: C_26  and  O_27
REMARK                            x       y       z     vdW  Elec       q    Type
REMARK                         _______ _______ _______ _____ _____    ______ ____
ROOT
ATOM      1  C   UNL     1      -7.555   0.390 125.469  0.00  0.00    +0.000 A 
ATOM      2  C   UNL     1      -7.553   1.688 124.947  0.00  0.00    +0.000 A 
ATOM      3  F   UNL     1      -7.401   1.862 123.620  0.00  0.00    +0.000 F 
ATOM      4  C   UNL     1      -7.774   2.824 125.738  0.00  0.00    +0.000 A 
ATOM      5  C   UNL     1      -7.962   2.655 127.127  0.00  0.00    +0.000 A 
ATOM      6  C   UNL     1      -8.188   3.867 127.974  0.00  0.00    +0.000 A 
ATOM      7  O   UNL     1      -8.228   4.981 127.458  0.00  0.00    +0.000 OA
ATOM      8  C   UNL     1      -8.353   3.711 129.437  0.00  0.00    +0.000 A 
ATOM      9  C   UNL     1      -8.301   2.447 129.874  0.00  0.00    +0.000 A 
ATOM     10  N   UNL     1      -8.163   1.272 129.144  0.00  0.00    +0.000 N 
ATOM     11  C   UNL     1      -7.956   1.372 127.726  0.00  0.00    +0.000 A 
ATOM     12  C   UNL     1      -7.754   0.266 126.865  0.00  0.00    +0.000 A 
ATOM     13  F   UNL     1      -7.721  -0.979 127.374  0.00  0.00    +0.000 F 
ENDROOT
BRANCH   1  17
ATOM     14  C   UNL     1      -4.888  -3.548 124.195  0.00  0.00    +0.000 C 
ATOM     15  C   UNL     1      -6.184  -2.854 124.600  0.00  0.00    +0.000 C 
ATOM     16  C   UNL     1      -6.099  -1.314 124.341  0.00  0.00    +0.000 C 
ATOM     17  N   UNL     1      -7.400  -0.717 124.655  0.00  0.00    +0.000 N 
ATOM     18  C   UNL     1      -8.541  -1.305 123.955  0.00  0.00    +0.000 C 
ATOM     19  C   UNL     1      -8.579  -2.827 124.238  0.00  0.00    +0.000 C 
ATOM     20  C   UNL     1      -9.725  -3.464 123.464  0.00  0.00    +0.000 C 
ATOM     21  N   UNL     1      -7.309  -3.505 123.874  0.00  0.00    +0.000 NA
ATOM     22  H   UNL     1      -7.155  -3.382 122.873  0.00  0.00    +0.000 HD
ENDBRANCH   1  17
BRANCH   4  23
ATOM     23  N   UNL     1      -7.778   4.083 125.141  0.00  0.00    +0.000 N 
ATOM     24  H   UNL     1      -7.004   4.723 125.230  0.00  0.00    +0.000 HD
ATOM     25  H   UNL     1      -8.545   4.303 124.493  0.00  0.00    +0.000 HD
ENDBRANCH   4  23
BRANCH  10  26
ATOM     26  C   UNL     1      -7.960  -0.009 129.889  0.00  0.00    +0.000 C 
ATOM     27  C   UNL     1      -6.616  -0.333 130.520  0.00  0.00    +0.000 C 
ATOM     28  C   UNL     1      -7.827  -0.186 131.383  0.00  0.00    +0.000 C 
ENDBRANCH  10  26
BRANCH   8  29
ATOM     29  C   UNL     1      -8.559   4.902 130.307  0.00  0.00    +0.000 C 
ATOM     30  O   UNL     1      -9.420   4.964 131.178  0.00  0.00    +0.000 OA
BRANCH  29  31
ATOM     31  O   UNL     1      -7.738   5.959 130.127  0.00  0.00    +0.000 OA
ATOM     32  H   UNL     1      -6.922   5.866 129.615  0.00  0.00    +0.000 HD
ENDBRANCH  29  31
ENDBRANCH   8  29
TORSDOF 5
ENDMDL
MODEL 4
REMARK VINA RESULT:      -6.9      3.674      8.015
REMARK  Name = Sparfloxacin
REMARK  7 active torsions:
REMARK  status: ('A' for Active; 'I' for Inactive)
REMARK    1  A    between atoms: C_1  and  C_2
REMARK    2  A    between atoms: N_4  and  C_9
REMARK    3  A    between atoms: C_6  and  C_7
REMARK    4  A    between atoms: C_12  and  N_13
REMARK    5  A    between atoms: C_17  and  C_26
REMARK    6  A    between atoms: N_19  and  C_20
REMARK    7  A    between atoms: C_26  and  O_27
REMARK                            x       y       z     vdW  Elec       q    Type
REMARK                         _______ _______ _______ _____ _____    ______ ____
ROOT
ATOM      1  C   UNL     1      -7.361  -1.380 128.741  0.00  0.00    +0.000 A 
ATOM      2  C   UNL     1      -7.814  -2.400 127.896  0.00  0.00    +0.000 A 
ATOM      3  F   UNL     1      -7.738  -3.678 128.311  0.00  0.00    +0.000 F 
ATOM      4  C   UNL     1      -8.412  -2.146 126.654  0.00  0.00    +0.000 A 
ATOM      5  C   UNL     1      -8.523  -0.807 126.218  0.00  0.00    +0.000 A 
ATOM      6  C   UNL     1      -9.153  -0.536 124.888  0.00  0.00    +0.000 A 
ATOM      7  O   UNL     1      -9.580  -1.464 124.207  0.00  0.00    +0.000 OA
ATOM      8  C   UNL     1      -9.247   0.859 124.400  0.00  0.00    +0.000 A 
ATOM      9  C   UNL     1      -8.757   1.779 125.239  0.00  0.00    +0.000 A 
ATOM     10  N   UNL     1      -8.221   1.610 126.511  0.00  0.00    +0.000 N 
ATOM     11  C   UNL     1      -8.069   0.272 127.012  0.00  0.00    +0.000 A 
ATOM     12  C   UNL     1      -7.498  -0.054 128.267  0.00  0.00    +0.000 A 
ATOM     13  F   UNL     1      -7.032   0.926 129.063  0.00  0.00    +0.000 F 
ENDROOT
BRANCH   1  17
ATOM     14  C   UNL     1      -8.115  -2.763 133.406  0.00  0.00    +0.000 C 
ATOM     15  C   UNL     1      -7.421  -2.861 132.052  0.00  0.00    +0.000 C 
ATOM     16  C   UNL     1      -7.601  -1.541 131.234  0.00  0.00    +0.000 C 
ATOM     17  N   UNL     1      -6.835  -1.656 129.989  0.00  0.00    +0.000 N 
ATOM     18  C   UNL     1      -5.420  -1.982 130.157  0.00  0.00    +0.000 C 
ATOM     19  C   UNL     1      -5.294  -3.290 130.975  0.00  0.00    +0.000 C 
ATOM     20  C   UNL     1      -3.824  -3.607 131.213  0.00  0.00    +0.000 C 
ATOM     21  N   UNL     1      -5.993  -3.212 132.283  0.00  0.00    +0.000 NA
ATOM     22  H   UNL     1      -5.567  -2.464 132.831  0.00  0.00    +0.000 HD
ENDBRANCH   1  17
BRANCH   4  23
ATOM     23  N   UNL     1      -8.857  -3.214 125.878  0.00  0.00    +0.000 N 
ATOM     24  H   UNL     1      -9.722  -3.179 125.360  0.00  0.00    +0.000 HD
ATOM     25  H   UNL     1      -8.217  -4.005 125.741  0.00  0.00    +0.000 HD
ENDBRANCH   4  23
BRANCH  10  26
ATOM     26  C   UNL     1      -7.582   2.787 127.177  0.00  0.00    +0.000 C 
ATOM     27  C   UNL     1      -6.184   3.236 126.781  0.00  0.00    +0.000 C 
ATOM     28  C   UNL     1      -7.345   4.156 126.584  0.00  0.00    +0.000 C 
ENDBRANCH  10  26
BRANCH   8  29
ATOM     29  C   UNL     1      -9.850   1.157 123.071  0.00  0.00    +0.000 C 
ATOM     30  O   UNL     1      -9.470   2.070 122.344  0.00  0.00    +0.000 OA
BRANCH  29  31
ATOM     31  O   UNL     1     -10.858   0.365 122.649  0.00  0.00    +0.000 OA
ATOM     32  H   UNL     1     -11.779   0.596 122.839  0.00  0.00    +0.000 HD
ENDBRANCH  29  31
ENDBRANCH   8  29
TORSDOF 5
ENDMDL
MODEL 5
REMARK VINA RESULT:      -6.8      3.671      6.858
REMARK  Name = Sparfloxacin
REMARK  7 active torsions:
REMARK  status: ('A' for Active; 'I' for Inactive)
REMARK    1  A    between atoms: C_1  and  C_2
REMARK    2  A    between atoms: N_4  and  C_9
REMARK    3  A    between atoms: C_6  and  C_7
REMARK    4  A    between atoms: C_12  and  N_13
REMARK    5  A    between atoms: C_17  and  C_26
REMARK    6  A    between atoms: N_19  and  C_20
REMARK    7  A    between atoms: C_26  and  O_27
REMARK                            x       y       z     vdW  Elec       q    Type
REMARK                         _______ _______ _______ _____ _____    ______ ____
ROOT
ATOM      1  C   UNL     1      -7.537  -0.331 129.586  0.00  0.00    +0.000 A 
ATOM      2  C   UNL     1      -7.732  -1.716 129.568  0.00  0.00    +0.000 A 
ATOM      3  F   UNL     1      -7.650  -2.405 130.722  0.00  0.00    +0.000 F 
ATOM      4  C   UNL     1      -8.081  -2.418 128.406  0.00  0.00    +0.000 A 
ATOM      5  C   UNL     1      -8.197  -1.703 127.193  0.00  0.00    +0.000 A 
ATOM      6  C   UNL     1      -8.560  -2.454 125.950  0.00  0.00    +0.000 A 
ATOM      7  O   UNL     1      -8.771  -3.662 125.999  0.00  0.00    +0.000 OA
ATOM      8  C   UNL     1      -8.652  -1.726 124.664  0.00  0.00    +0.000 A 
ATOM      9  C   UNL     1      -8.412  -0.412 124.746  0.00  0.00    +0.000 A 
ATOM     10  N   UNL     1      -8.137   0.361 125.868  0.00  0.00    +0.000 N 
ATOM     11  C   UNL     1      -7.994  -0.304 127.134  0.00  0.00    +0.000 A 
ATOM     12  C   UNL     1      -7.669   0.347 128.350  0.00  0.00    +0.000 A 
ATOM     13  F   UNL     1      -7.448   1.673 128.358  0.00  0.00    +0.000 F 
ENDROOT
BRANCH   1  17
ATOM     14  C   UNL     1      -4.430   2.470 132.184  0.00  0.00    +0.000 C 
ATOM     15  C   UNL     1      -5.797   2.140 131.593  0.00  0.00    +0.000 C 
ATOM     16  C   UNL     1      -5.897   0.622 131.229  0.00  0.00    +0.000 C 
ATOM     17  N   UNL     1      -7.258   0.345 130.759  0.00  0.00    +0.000 N 
ATOM     18  C   UNL     1      -8.326   0.737 131.677  0.00  0.00    +0.000 C 
ATOM     19  C   UNL     1      -8.181   2.242 132.010  0.00  0.00    +0.000 C 
ATOM     20  C   UNL     1      -9.249   2.651 133.016  0.00  0.00    +0.000 C 
ATOM     21  N   UNL     1      -6.842   2.577 132.559  0.00  0.00    +0.000 NA
ATOM     22  H   UNL     1      -6.711   2.056 133.426  0.00  0.00    +0.000 HD
ENDBRANCH   1  17
BRANCH   4  23
ATOM     23  N   UNL     1      -8.279  -3.796 128.473  0.00  0.00    +0.000 N 
ATOM     24  H   UNL     1      -9.143  -4.199 128.803  0.00  0.00    +0.000 HD
ATOM     25  H   UNL     1      -7.564  -4.403 128.055  0.00  0.00    +0.000 HD
ENDBRANCH   4  23
BRANCH  10  26
ATOM     26  C   UNL     1      -7.734   1.788 125.669  0.00  0.00    +0.000 C 
ATOM     27  C   UNL     1      -6.318   2.140 125.244  0.00  0.00    +0.000 C 
ATOM     28  C   UNL     1      -7.470   2.488 124.358  0.00  0.00    +0.000 C 
ENDBRANCH  10  26
BRANCH   8  29
ATOM     29  C   UNL     1      -8.992  -2.450 123.408  0.00  0.00    +0.000 C 
ATOM     30  O   UNL     1      -8.327  -2.371 122.380  0.00  0.00    +0.000 OA
BRANCH  29  31
ATOM     31  O   UNL     1     -10.083  -3.244 123.418  0.00  0.00    +0.000 OA
ATOM     32  H   UNL     1     -10.954  -2.887 123.193  0.00  0.00    +0.000 HD
ENDBRANCH  29  31
ENDBRANCH   8  29
TORSDOF 5
ENDMDL
MODEL 6
REMARK VINA RESULT:      -6.8      3.497      7.295
REMARK  Name = Sparfloxacin
REMARK  7 active torsions:
REMARK  status: ('A' for Active; 'I' for Inactive)
REMARK    1  A    between atoms: C_1  and  C_2
REMARK    2  A    between atoms: N_4  and  C_9
REMARK    3  A    between atoms: C_6  and  C_7
REMARK    4  A    between atoms: C_12  and  N_13
REMARK    5  A    between atoms: C_17  and  C_26
REMARK    6  A    between atoms: N_19  and  C_20
REMARK    7  A    between atoms: C_26  and  O_27
REMARK                            x       y       z     vdW  Elec       q    Type
REMARK                         _______ _______ _______ _____ _____    ______ ____
ROOT
ATOM      1  C   UNL     1      -7.318  -1.220 128.698  0.00  0.00    +0.000 A 
ATOM      2  C   UNL     1      -7.540   0.119 129.035  0.00  0.00    +0.000 A 
ATOM      3  F   UNL     1      -7.375   0.510 130.313  0.00  0.00    +0.000 F 
ATOM      4  C   UNL     1      -7.861   1.098 128.084  0.00  0.00    +0.000 A 
ATOM      5  C   UNL     1      -8.010   0.706 126.735  0.00  0.00    +0.000 A 
ATOM      6  C   UNL     1      -8.363   1.748 125.721  0.00  0.00    +0.000 A 
ATOM      7  O   UNL     1      -8.497   2.920 126.061  0.00  0.00    +0.000 OA
ATOM      8  C   UNL     1      -8.556   1.350 124.308  0.00  0.00    +0.000 A 
ATOM      9  C   UNL     1      -8.370   0.047 124.063  0.00  0.00    +0.000 A 
ATOM     10  N   UNL     1      -7.978  -0.962 124.936  0.00  0.00    +0.000 N 
ATOM     11  C   UNL     1      -7.820  -0.635 126.326  0.00  0.00    +0.000 A 
ATOM     12  C   UNL     1      -7.471  -1.567 127.334  0.00  0.00    +0.000 A 
ATOM     13  F   UNL     1      -7.292  -2.861 127.013  0.00  0.00    +0.000 F 
ENDROOT
BRANCH   1  17
ATOM     14  C   UNL     1      -3.694  -3.613 131.020  0.00  0.00    +0.000 C 
ATOM     15  C   UNL     1      -4.970  -2.777 130.983  0.00  0.00    +0.000 C 
ATOM     16  C   UNL     1      -5.674  -2.893 129.592  0.00  0.00    +0.000 C 
ATOM     17  N   UNL     1      -6.937  -2.152 129.647  0.00  0.00    +0.000 N 
ATOM     18  C   UNL     1      -7.842  -2.541 130.727  0.00  0.00    +0.000 C 
ATOM     19  C   UNL     1      -7.099  -2.415 132.080  0.00  0.00    +0.000 C 
ATOM     20  C   UNL     1      -8.008  -2.879 133.209  0.00  0.00    +0.000 C 
ATOM     21  N   UNL     1      -5.840  -3.203 132.112  0.00  0.00    +0.000 NA
ATOM     22  H   UNL     1      -6.074  -4.187 131.980  0.00  0.00    +0.000 HD
ENDBRANCH   1  17
BRANCH   4  23
ATOM     23  N   UNL     1      -8.047   2.416 128.495  0.00  0.00    +0.000 N 
ATOM     24  H   UNL     1      -7.891   2.709 129.447  0.00  0.00    +0.000 HD
ATOM     25  H   UNL     1      -8.228   3.122 127.771  0.00  0.00    +0.000 HD
ENDBRANCH   4  23
BRANCH  10  26
ATOM     26  C   UNL     1      -8.009  -2.376 124.449  0.00  0.00    +0.000 C 
ATOM     27  C   UNL     1      -9.293  -3.187 124.508  0.00  0.00    +0.000 C 
ATOM     28  C   UNL     1      -8.657  -2.894 123.188  0.00  0.00    +0.000 C 
ENDBRANCH  10  26
BRANCH   8  29
ATOM     29  C   UNL     1      -8.927   2.362 123.280  0.00  0.00    +0.000 C 
ATOM     30  O   UNL     1      -9.647   2.117 122.317  0.00  0.00    +0.000 OA
BRANCH  29  31
ATOM     31  O   UNL     1      -8.453   3.616 123.436  0.00  0.00    +0.000 OA
ATOM     32  H   UNL     1      -7.905   4.024 122.750  0.00  0.00    +0.000 HD
ENDBRANCH  29  31
ENDBRANCH   8  29
TORSDOF 5
ENDMDL
MODEL 7
REMARK VINA RESULT:      -6.8      3.230      5.228
REMARK  Name = Sparfloxacin
REMARK  7 active torsions:
REMARK  status: ('A' for Active; 'I' for Inactive)
REMARK    1  A    between atoms: C_1  and  C_2
REMARK    2  A    between atoms: N_4  and  C_9
REMARK    3  A    between atoms: C_6  and  C_7
REMARK    4  A    between atoms: C_12  and  N_13
REMARK    5  A    between atoms: C_17  and  C_26
REMARK    6  A    between atoms: N_19  and  C_20
REMARK    7  A    between atoms: C_26  and  O_27
REMARK                            x       y       z     vdW  Elec       q    Type
REMARK                         _______ _______ _______ _____ _____    ______ ____
ROOT
ATOM      1  C   UNL     1      -7.594   2.652 126.870  0.00  0.00    +0.000 A 
ATOM      2  C   UNL     1      -8.312   2.739 125.672  0.00  0.00    +0.000 A 
ATOM      3  F   UNL     1      -8.592   3.953 125.161  0.00  0.00    +0.000 F 
ATOM      4  C   UNL     1      -8.697   1.611 124.935  0.00  0.00    +0.000 A 
ATOM      5  C   UNL     1      -8.386   0.331 125.445  0.00  0.00    +0.000 A 
ATOM      6  C   UNL     1      -8.805  -0.874 124.664  0.00  0.00    +0.000 A 
ATOM      7  O   UNL     1      -9.389  -0.742 123.591  0.00  0.00    +0.000 OA
ATOM      8  C   UNL     1      -8.517  -2.224 125.200  0.00  0.00    +0.000 A 
ATOM      9  C   UNL     1      -7.866  -2.233 126.370  0.00  0.00    +0.000 A 
ATOM     10  N   UNL     1      -7.388  -1.163 127.117  0.00  0.00    +0.000 N 
ATOM     11  C   UNL     1      -7.680   0.168 126.661  0.00  0.00    +0.000 A 
ATOM     12  C   UNL     1      -7.298   1.351 127.341  0.00  0.00    +0.000 A 
ATOM     13  F   UNL     1      -6.638   1.265 128.510  0.00  0.00    +0.000 F 
ENDROOT
BRANCH   1  17
ATOM     14  C   UNL     1      -7.800   5.465 130.906  0.00  0.00    +0.000 C 
ATOM     15  C   UNL     1      -7.058   4.679 129.830  0.00  0.00    +0.000 C 
ATOM     16  C   UNL     1      -7.964   4.455 128.576  0.00  0.00    +0.000 C 
ATOM     17  N   UNL     1      -7.170   3.784 127.542  0.00  0.00    +0.000 N 
ATOM     18  C   UNL     1      -5.924   4.456 127.178  0.00  0.00    +0.000 C 
ATOM     19  C   UNL     1      -5.067   4.658 128.452  0.00  0.00    +0.000 C 
ATOM     20  C   UNL     1      -3.794   5.415 128.098  0.00  0.00    +0.000 C 
ATOM     21  N   UNL     1      -5.794   5.397 129.515  0.00  0.00    +0.000 NA
ATOM     22  H   UNL     1      -6.034   6.321 129.156  0.00  0.00    +0.000 HD
ENDBRANCH   1  17
BRANCH   4  23
ATOM     23  N   UNL     1      -9.392   1.779 123.739  0.00  0.00    +0.000 N 
ATOM     24  H   UNL     1     -10.390   1.652 123.674  0.00  0.00    +0.000 HD
ATOM     25  H   UNL     1      -8.877   2.163 122.937  0.00  0.00    +0.000 HD
ENDBRANCH   4  23
BRANCH  10  26
ATOM     26  C   UNL     1      -6.843  -1.434 128.483  0.00  0.00    +0.000 C 
ATOM     27  C   UNL     1      -7.779  -1.666 129.658  0.00  0.00    +0.000 C 
ATOM     28  C   UNL     1      -6.846  -2.750 129.223  0.00  0.00    +0.000 C 
ENDBRANCH  10  26
BRANCH   8  29
ATOM     29  C   UNL     1      -8.941  -3.441 124.455  0.00  0.00    +0.000 C 
ATOM     30  O   UNL     1      -8.324  -4.502 124.483  0.00  0.00    +0.000 OA
BRANCH  29  31
ATOM     31  O   UNL     1     -10.073  -3.366 123.724  0.00  0.00    +0.000 OA
ATOM     32  H   UNL     1     -10.113  -2.807 122.934  0.00  0.00    +0.000 HD
ENDBRANCH  29  31
ENDBRANCH   8  29
TORSDOF 5
ENDMDL
MODEL 8
REMARK VINA RESULT:      -6.8      3.711      7.325
REMARK  Name = Sparfloxacin
REMARK  7 active torsions:
REMARK  status: ('A' for Active; 'I' for Inactive)
REMARK    1  A    between atoms: C_1  and  C_2
REMARK    2  A    between atoms: N_4  and  C_9
REMARK    3  A    between atoms: C_6  and  C_7
REMARK    4  A    between atoms: C_12  and  N_13
REMARK    5  A    between atoms: C_17  and  C_26
REMARK    6  A    between atoms: N_19  and  C_20
REMARK    7  A    between atoms: C_26  and  O_27
REMARK                            x       y       z     vdW  Elec       q    Type
REMARK                         _______ _______ _______ _____ _____    ______ ____
ROOT
ATOM      1  C   UNL     1      -5.841  -1.263 129.007  0.00  0.00    +0.000 A 
ATOM      2  C   UNL     1      -6.750  -0.333 129.523  0.00  0.00    +0.000 A 
ATOM      3  F   UNL     1      -6.828  -0.162 130.857  0.00  0.00    +0.000 F 
ATOM      4  C   UNL     1      -7.543   0.486 128.707  0.00  0.00    +0.000 A 
ATOM      5  C   UNL     1      -7.451   0.335 127.306  0.00  0.00    +0.000 A 
ATOM      6  C   UNL     1      -8.304   1.203 126.434  0.00  0.00    +0.000 A 
ATOM      7  O   UNL     1      -9.049   2.040 126.937  0.00  0.00    +0.000 OA
ATOM      8  C   UNL     1      -8.246   1.035 124.965  0.00  0.00    +0.000 A 
ATOM      9  C   UNL     1      -7.387   0.100 124.541  0.00  0.00    +0.000 A 
ATOM     10  N   UNL     1      -6.519  -0.693 125.283  0.00  0.00    +0.000 N 
ATOM     11  C   UNL     1      -6.568  -0.599 126.716  0.00  0.00    +0.000 A 
ATOM     12  C   UNL     1      -5.777  -1.377 127.598  0.00  0.00    +0.000 A 
ATOM     13  F   UNL     1      -4.929  -2.294 127.100  0.00  0.00    +0.000 F 
ENDROOT
BRANCH   1  17
ATOM     14  C   UNL     1      -2.698  -1.408 132.795  0.00  0.00    +0.000 C 
ATOM     15  C   UNL     1      -3.940  -1.867 132.037  0.00  0.00    +0.000 C 
ATOM     16  C   UNL     1      -3.855  -1.464 130.529  0.00  0.00    +0.000 C 
ATOM     17  N   UNL     1      -5.024  -2.012 129.835  0.00  0.00    +0.000 N 
ATOM     18  C   UNL     1      -5.218  -3.453 129.984  0.00  0.00    +0.000 C 
ATOM     19  C   UNL     1      -5.290  -3.802 131.491  0.00  0.00    +0.000 C 
ATOM     20  C   UNL     1      -5.427  -5.308 131.663  0.00  0.00    +0.000 C 
ATOM     21  N   UNL     1      -4.097  -3.332 132.240  0.00  0.00    +0.000 NA
ATOM     22  H   UNL     1      -3.274  -3.797 131.856  0.00  0.00    +0.000 HD
ENDBRANCH   1  17
BRANCH   4  23
ATOM     23  N   UNL     1      -8.410   1.404 129.296  0.00  0.00    +0.000 N 
ATOM     24  H   UNL     1      -8.930   2.077 128.754  0.00  0.00    +0.000 HD
ATOM     25  H   UNL     1      -8.608   1.300 130.299  0.00  0.00    +0.000 HD
ENDBRANCH   4  23
BRANCH  10  26
ATOM     26  C   UNL     1      -5.782  -1.791 124.582  0.00  0.00    +0.000 C 
ATOM     27  C   UNL     1      -6.467  -3.114 124.283  0.00  0.00    +0.000 C 
ATOM     28  C   UNL     1      -5.977  -2.258 123.160  0.00  0.00    +0.000 C 
ENDBRANCH  10  26
BRANCH   8  29
ATOM     29  C   UNL     1      -9.098   1.871 124.073  0.00  0.00    +0.000 C 
ATOM     30  O   UNL     1      -8.666   2.481 123.101  0.00  0.00    +0.000 OA
BRANCH  29  31
ATOM     31  O   UNL     1     -10.417   1.939 124.352  0.00  0.00    +0.000 OA
ATOM     32  H   UNL     1     -11.053   2.190 123.667  0.00  0.00    +0.000 HD
ENDBRANCH  29  31
ENDBRANCH   8  29
TORSDOF 5
ENDMDL
MODEL 9
REMARK VINA RESULT:      -6.7      3.989      7.784
REMARK  Name = Sparfloxacin
REMARK  7 active torsions:
REMARK  status: ('A' for Active; 'I' for Inactive)
REMARK    1  A    between atoms: C_1  and  C_2
REMARK    2  A    between atoms: N_4  and  C_9
REMARK    3  A    between atoms: C_6  and  C_7
REMARK    4  A    between atoms: C_12  and  N_13
REMARK    5  A    between atoms: C_17  and  C_26
REMARK    6  A    between atoms: N_19  and  C_20
REMARK    7  A    between atoms: C_26  and  O_27
REMARK                            x       y       z     vdW  Elec       q    Type
REMARK                         _______ _______ _______ _____ _____    ______ ____
ROOT
ATOM      1  C   UNL     1      -6.509  -0.947 128.105  0.00  0.00    +0.000 A 
ATOM      2  C   UNL     1      -7.604  -0.974 127.235  0.00  0.00    +0.000 A 
ATOM      3  F   UNL     1      -8.236  -2.142 127.011  0.00  0.00    +0.000 F 
ATOM      4  C   UNL     1      -8.123   0.181 126.632  0.00  0.00    +0.000 A 
ATOM      5  C   UNL     1      -7.486   1.417 126.879  0.00  0.00    +0.000 A 
ATOM      6  C   UNL     1      -8.033   2.648 126.229  0.00  0.00    +0.000 A 
ATOM      7  O   UNL     1      -9.028   2.578 125.513  0.00  0.00    +0.000 OA
ATOM      8  C   UNL     1      -7.358   3.947 126.450  0.00  0.00    +0.000 A 
ATOM      9  C   UNL     1      -6.293   3.894 127.259  0.00  0.00    +0.000 A 
ATOM     10  N   UNL     1      -5.769   2.806 127.948  0.00  0.00    +0.000 N 
ATOM     11  C   UNL     1      -6.362   1.515 127.733  0.00  0.00    +0.000 A 
ATOM     12  C   UNL     1      -5.906   0.314 128.330  0.00  0.00    +0.000 A 
ATOM     13  F   UNL     1      -4.832   0.337 129.140  0.00  0.00    +0.000 F 
ENDROOT
BRANCH   1  17
ATOM     14  C   UNL     1      -2.788  -4.020 129.082  0.00  0.00    +0.000 C 
ATOM     15  C   UNL     1      -3.955  -3.123 129.483  0.00  0.00    +0.000 C 
ATOM     16  C   UNL     1      -4.912  -2.875 128.271  0.00  0.00    +0.000 C 
ATOM     17  N   UNL     1      -6.059  -2.092 128.738  0.00  0.00    +0.000 N 
ATOM     18  C   UNL     1      -6.785  -2.663 129.871  0.00  0.00    +0.000 C 
ATOM     19  C   UNL     1      -5.796  -2.895 131.040  0.00  0.00    +0.000 C 
ATOM     20  C   UNL     1      -6.525  -3.549 132.205  0.00  0.00    +0.000 C 
ATOM     21  N   UNL     1      -4.642  -3.743 130.649  0.00  0.00    +0.000 NA
ATOM     22  H   UNL     1      -4.997  -4.655 130.361  0.00  0.00    +0.000 HD
ENDBRANCH   1  17
BRANCH   4  23
ATOM     23  N   UNL     1      -9.230   0.076 125.792  0.00  0.00    +0.000 N 
ATOM     24  H   UNL     1      -9.659   0.882 125.366  0.00  0.00    +0.000 HD
ATOM     25  H   UNL     1      -9.530  -0.866 125.512  0.00  0.00    +0.000 HD
ENDBRANCH   4  23
BRANCH  10  26
ATOM     26  C   UNL     1      -4.461   2.974 128.655  0.00  0.00    +0.000 C 
ATOM     27  C   UNL     1      -3.156   2.979 127.876  0.00  0.00    +0.000 C 
ATOM     28  C   UNL     1      -3.568   4.191 128.647  0.00  0.00    +0.000 C 
ENDBRANCH  10  26
BRANCH   8  29
ATOM     29  C   UNL     1      -7.868   5.186 125.799  0.00  0.00    +0.000 C 
ATOM     30  O   UNL     1      -8.969   5.672 126.036  0.00  0.00    +0.000 OA
BRANCH  29  31
ATOM     31  O   UNL     1      -7.060   5.806 124.913  0.00  0.00    +0.000 OA
ATOM     32  H   UNL     1      -7.409   6.489 124.323  0.00  0.00    +0.000 HD
ENDBRANCH  29  31
ENDBRANCH   8  29
TORSDOF 5
ENDMDL
