MODEL 1
REMARK VINA RESULT:      -6.8      0.000      0.000
REMARK  Name = Spectinomycin
REMARK  8 active torsions:
REMARK  status: ('A' for Active; 'I' for Inactive)
REMARK    1  A    between atoms: C_4  and  C_5
REMARK    2  A    between atoms: C_9  and  O_10
REMARK    3  A    between atoms: C_14  and  N_15
REMARK    4  A    between atoms: N_15  and  C_16
REMARK    5  A    between atoms: C_17  and  O_18
REMARK    6  A    between atoms: C_19  and  N_20
REMARK    7  A    between atoms: N_20  and  C_21
REMARK    8  A    between atoms: C_22  and  O_23
REMARK                            x       y       z     vdW  Elec       q    Type
REMARK                         _______ _______ _______ _____ _____    ______ ____
ROOT
ATOM      1  C   UNL     1      -6.720  -1.340 124.953  0.00  0.00    +0.000 C 
ATOM      2  O   UNL     1      -6.932  -2.660 125.448  0.00  0.00    +0.000 OA
ATOM      3  C   UNL     1      -8.266  -3.124 125.180  0.00  0.00    +0.000 C 
ATOM      4  C   UNL     1      -9.262  -2.148 125.912  0.00  0.00    +0.000 C 
ATOM      5  C   UNL     1      -9.119  -3.312 123.940  0.00  0.00    +0.000 C 
ATOM      6  C   UNL     1      -8.937  -1.835 123.244  0.00  0.00    +0.000 C 
ATOM      7  O   UNL     1      -9.814  -1.406 122.519  0.00  0.00    +0.000 OA
ATOM      8  C   UNL     1      -7.410  -0.964 123.553  0.00  0.00    +0.000 C 
ATOM      9  O   UNL     1      -7.158   0.453 123.417  0.00  0.00    +0.000 OA
ATOM     10  C   UNL     1      -7.517   1.324 124.511  0.00  0.00    +0.000 C 
ATOM     11  C   UNL     1      -7.008   2.828 124.426  0.00  0.00    +0.000 C 
ATOM     12  C   UNL     1      -7.689   3.661 125.555  0.00  0.00    +0.000 C 
ATOM     13  C   UNL     1      -7.445   3.073 126.966  0.00  0.00    +0.000 C 
ATOM     14  C   UNL     1      -7.737   1.560 127.010  0.00  0.00    +0.000 C 
ATOM     15  C   UNL     1      -6.983   0.835 125.869  0.00  0.00    +0.000 C 
ATOM     16  O   UNL     1      -7.154  -0.544 126.044  0.00  0.00    +0.000 OA
ENDROOT
BRANCH  11  17
ATOM     17  N   UNL     1      -7.258   3.533 123.159  0.00  0.00    +0.000 NA
ATOM     18  C   UNL     1      -6.031   3.859 122.465  0.00  0.00    +0.000 C 
ATOM     19  H   UNL     1      -7.792   4.389 123.336  0.00  0.00    +0.000 HD
ENDBRANCH  11  17
BRANCH  13  20
ATOM     20  N   UNL     1      -8.233   3.752 128.014  0.00  0.00    +0.000 NA
ATOM     21  C   UNL     1      -7.390   4.419 128.994  0.00  0.00    +0.000 C 
ATOM     22  H   UNL     1      -8.863   3.081 128.460  0.00  0.00    +0.000 HD
ENDBRANCH  13  20
BRANCH   8  23
ATOM     23  O   UNL     1      -6.561  -1.469 122.482  0.00  0.00    +0.000 OA
ATOM     24  H   UNL     1      -5.863  -2.026 122.853  0.00  0.00    +0.000 HD
ENDBRANCH   8  23
BRANCH  12  25
ATOM     25  O   UNL     1      -9.091   3.826 125.295  0.00  0.00    +0.000 OA
ATOM     26  H   UNL     1      -9.573   3.035 125.579  0.00  0.00    +0.000 HD
ENDBRANCH  12  25
BRANCH  14  27
ATOM     27  O   UNL     1      -7.350   1.046 128.296  0.00  0.00    +0.000 OA
ATOM     28  H   UNL     1      -7.208   0.090 128.215  0.00  0.00    +0.000 HD
ENDBRANCH  14  27
TORSDOF 5
ENDMDL
MODEL 2
REMARK VINA RESULT:      -6.4      5.463      7.455
REMARK  Name = Spectinomycin
REMARK  8 active torsions:
REMARK  status: ('A' for Active; 'I' for Inactive)
REMARK    1  A    between atoms: C_4  and  C_5
REMARK    2  A    between atoms: C_9  and  O_10
REMARK    3  A    between atoms: C_14  and  N_15
REMARK    4  A    between atoms: N_15  and  C_16
REMARK    5  A    between atoms: C_17  and  O_18
REMARK    6  A    between atoms: C_19  and  N_20
REMARK    7  A    between atoms: N_20  and  C_21
REMARK    8  A    between atoms: C_22  and  O_23
REMARK                            x       y       z     vdW  Elec       q    Type
REMARK                         _______ _______ _______ _____ _____    ______ ____
ROOT
ATOM      1  C   UNL     1      -6.610   4.790 130.921  0.00  0.00    +0.000 C 
ATOM      2  O   UNL     1      -5.861   4.054 131.886  0.00  0.00    +0.000 OA
ATOM      3  C   UNL     1      -6.146   2.646 131.822  0.00  0.00    +0.000 C 
ATOM      4  C   UNL     1      -7.680   2.461 132.131  0.00  0.00    +0.000 C 
ATOM      5  C   UNL     1      -6.073   1.572 130.754  0.00  0.00    +0.000 C 
ATOM      6  C   UNL     1      -6.896   2.320 129.544  0.00  0.00    +0.000 C 
ATOM      7  O   UNL     1      -7.478   1.647 128.715  0.00  0.00    +0.000 OA
ATOM      8  C   UNL     1      -6.834   4.102 129.488  0.00  0.00    +0.000 C 
ATOM      9  O   UNL     1      -7.750   4.998 128.818  0.00  0.00    +0.000 OA
ATOM     10  C   UNL     1      -8.969   5.370 129.497  0.00  0.00    +0.000 C 
ATOM     11  C   UNL     1      -9.828   6.535 128.840  0.00  0.00    +0.000 C 
ATOM     12  C   UNL     1     -11.204   6.626 129.568  0.00  0.00    +0.000 C 
ATOM     13  C   UNL     1     -11.064   6.836 131.095  0.00  0.00    +0.000 C 
ATOM     14  C   UNL     1     -10.066   5.839 131.716  0.00  0.00    +0.000 C 
ATOM     15  C   UNL     1      -8.729   5.861 130.936  0.00  0.00    +0.000 C 
ATOM     16  O   UNL     1      -7.810   5.061 131.627  0.00  0.00    +0.000 OA
ENDROOT
BRANCH  11  17
ATOM     17  N   UNL     1     -10.109   6.411 127.401  0.00  0.00    +0.000 NA
ATOM     18  C   UNL     1     -10.753   7.591 126.867  0.00  0.00    +0.000 C 
ATOM     19  H   UNL     1     -10.697   5.591 127.230  0.00  0.00    +0.000 HD
ENDBRANCH  11  17
BRANCH  13  20
ATOM     20  N   UNL     1     -12.354   6.743 131.807  0.00  0.00    +0.000 NA
ATOM     21  C   UNL     1     -13.194   7.909 131.583  0.00  0.00    +0.000 C 
ATOM     22  H   UNL     1     -12.185   6.591 132.804  0.00  0.00    +0.000 HD
ENDBRANCH  13  20
BRANCH   8  23
ATOM     23  O   UNL     1      -5.638   4.330 128.687  0.00  0.00    +0.000 OA
ATOM     24  H   UNL     1      -5.819   4.116 127.762  0.00  0.00    +0.000 HD
ENDBRANCH   8  23
BRANCH  12  25
ATOM     25  O   UNL     1     -12.017   5.481 129.272  0.00  0.00    +0.000 OA
ATOM     26  H   UNL     1     -12.897   5.594 129.659  0.00  0.00    +0.000 HD
ENDBRANCH  12  25
BRANCH  14  27
ATOM     27  O   UNL     1      -9.864   6.179 133.100  0.00  0.00    +0.000 OA
ATOM     28  H   UNL     1      -8.910   6.225 133.269  0.00  0.00    +0.000 HD
ENDBRANCH  14  27
TORSDOF 5
ENDMDL
MODEL 3
REMARK VINA RESULT:      -6.3      3.116      4.902
REMARK  Name = Spectinomycin
REMARK  8 active torsions:
REMARK  status: ('A' for Active; 'I' for Inactive)
REMARK    1  A    between atoms: C_4  and  C_5
REMARK    2  A    between atoms: C_9  and  O_10
REMARK    3  A    between atoms: C_14  and  N_15
REMARK    4  A    between atoms: N_15  and  C_16
REMARK    5  A    between atoms: C_17  and  O_18
REMARK    6  A    between atoms: C_19  and  N_20
REMARK    7  A    between atoms: N_20  and  C_21
REMARK    8  A    between atoms: C_22  and  O_23
REMARK                            x       y       z     vdW  Elec       q    Type
REMARK                         _______ _______ _______ _____ _____    ______ ____
ROOT
ATOM      1  C   UNL     1      -9.145  -0.686 125.610  0.00  0.00    +0.000 C 
ATOM      2  O   UNL     1      -9.500  -0.172 124.329  0.00  0.00    +0.000 OA
ATOM      3  C   UNL     1      -8.785  -0.834 123.271  0.00  0.00    +0.000 C 
ATOM      4  C   UNL     1      -7.249  -0.577 123.506  0.00  0.00    +0.000 C 
ATOM      5  C   UNL     1      -8.631  -2.267 122.798  0.00  0.00    +0.000 C 
ATOM      6  C   UNL     1      -8.239  -2.993 124.219  0.00  0.00    +0.000 C 
ATOM      7  O   UNL     1      -7.571  -4.009 124.204  0.00  0.00    +0.000 OA
ATOM      8  C   UNL     1      -8.879  -2.266 125.717  0.00  0.00    +0.000 C 
ATOM      9  O   UNL     1      -8.384  -2.438 127.065  0.00  0.00    +0.000 OA
ATOM     10  C   UNL     1      -7.281  -1.618 127.504  0.00  0.00    +0.000 C 
ATOM     11  C   UNL     1      -6.925  -1.664 129.052  0.00  0.00    +0.000 C 
ATOM     12  C   UNL     1      -5.577  -0.915 129.288  0.00  0.00    +0.000 C 
ATOM     13  C   UNL     1      -5.600   0.542 128.769  0.00  0.00    +0.000 C 
ATOM     14  C   UNL     1      -6.144   0.625 127.329  0.00  0.00    +0.000 C 
ATOM     15  C   UNL     1      -7.497  -0.119 127.224  0.00  0.00    +0.000 C 
ATOM     16  O   UNL     1      -8.023   0.114 125.946  0.00  0.00    +0.000 OA
ENDROOT
BRANCH  11  17
ATOM     17  N   UNL     1      -6.787  -2.999 129.653  0.00  0.00    +0.000 NA
ATOM     18  C   UNL     1      -7.116  -3.000 131.063  0.00  0.00    +0.000 C 
ATOM     19  H   UNL     1      -5.832  -3.344 129.523  0.00  0.00    +0.000 HD
ENDBRANCH  11  17
BRANCH  13  20
ATOM     20  N   UNL     1      -4.276   1.193 128.827  0.00  0.00    +0.000 NA
ATOM     21  C   UNL     1      -4.199   2.197 129.876  0.00  0.00    +0.000 C 
ATOM     22  H   UNL     1      -4.048   1.591 127.913  0.00  0.00    +0.000 HD
ENDBRANCH  13  20
BRANCH   8  23
ATOM     23  O   UNL     1     -10.169  -2.933 125.841  0.00  0.00    +0.000 OA
ATOM     24  H   UNL     1     -10.035  -3.885 125.938  0.00  0.00    +0.000 HD
ENDBRANCH   8  23
BRANCH  12  25
ATOM     25  O   UNL     1      -4.479  -1.650 128.728  0.00  0.00    +0.000 OA
ATOM     26  H   UNL     1      -3.658  -1.410 129.183  0.00  0.00    +0.000 HD
ENDBRANCH  12  25
BRANCH  14  27
ATOM     27  O   UNL     1      -6.283   2.008 126.959  0.00  0.00    +0.000 OA
ATOM     28  H   UNL     1      -5.565   2.511 127.375  0.00  0.00    +0.000 HD
ENDBRANCH  14  27
TORSDOF 5
ENDMDL
MODEL 4
REMARK VINA RESULT:      -6.2      2.803      6.886
REMARK  Name = Spectinomycin
REMARK  8 active torsions:
REMARK  status: ('A' for Active; 'I' for Inactive)
REMARK    1  A    between atoms: C_4  and  C_5
REMARK    2  A    between atoms: C_9  and  O_10
REMARK    3  A    between atoms: C_14  and  N_15
REMARK    4  A    between atoms: N_15  and  C_16
REMARK    5  A    between atoms: C_17  and  O_18
REMARK    6  A    between atoms: C_19  and  N_20
REMARK    7  A    between atoms: N_20  and  C_21
REMARK    8  A    between atoms: C_22  and  O_23
REMARK                            x       y       z     vdW  Elec       q    Type
REMARK                         _______ _______ _______ _____ _____    ______ ____
ROOT
ATOM      1  C   UNL     1      -7.683   4.528 129.369  0.00  0.00    +0.000 C 
ATOM      2  O   UNL     1      -7.738   5.792 130.027  0.00  0.00    +0.000 OA
ATOM      3  C   UNL     1      -9.093   6.207 130.274  0.00  0.00    +0.000 C 
ATOM      4  C   UNL     1      -9.809   6.337 128.877  0.00  0.00    +0.000 C 
ATOM      5  C   UNL     1     -10.288   5.627 131.006  0.00  0.00    +0.000 C 
ATOM      6  C   UNL     1     -10.321   4.123 130.346  0.00  0.00    +0.000 C 
ATOM      7  O   UNL     1     -11.377   3.522 130.286  0.00  0.00    +0.000 OA
ATOM      8  C   UNL     1      -8.769   3.429 129.803  0.00  0.00    +0.000 C 
ATOM      9  O   UNL     1      -8.564   2.354 128.859  0.00  0.00    +0.000 OA
ATOM     10  C   UNL     1      -8.564   2.666 127.449  0.00  0.00    +0.000 C 
ATOM     11  C   UNL     1      -8.098   1.512 126.460  0.00  0.00    +0.000 C 
ATOM     12  C   UNL     1      -8.393   1.950 124.992  0.00  0.00    +0.000 C 
ATOM     13  C   UNL     1      -7.729   3.297 124.622  0.00  0.00    +0.000 C 
ATOM     14  C   UNL     1      -8.001   4.377 125.688  0.00  0.00    +0.000 C 
ATOM     15  C   UNL     1      -7.639   3.845 127.095  0.00  0.00    +0.000 C 
ATOM     16  O   UNL     1      -7.754   4.905 128.003  0.00  0.00    +0.000 OA
ENDROOT
BRANCH  11  17
ATOM     17  N   UNL     1      -8.723   0.194 126.650  0.00  0.00    +0.000 NA
ATOM     18  C   UNL     1      -7.800  -0.890 126.395  0.00  0.00    +0.000 C 
ATOM     19  H   UNL     1      -9.539   0.102 126.039  0.00  0.00    +0.000 HD
ENDBRANCH  11  17
BRANCH  13  20
ATOM     20  N   UNL     1      -8.151   3.801 123.300  0.00  0.00    +0.000 NA
ATOM     21  C   UNL     1      -7.473   3.120 122.207  0.00  0.00    +0.000 C 
ATOM     22  H   UNL     1      -8.007   4.812 123.255  0.00  0.00    +0.000 HD
ENDBRANCH  13  20
BRANCH   8  23
ATOM     23  O   UNL     1      -8.294   2.781 131.020  0.00  0.00    +0.000 OA
ATOM     24  H   UNL     1      -7.646   3.348 131.459  0.00  0.00    +0.000 HD
ENDBRANCH   8  23
BRANCH  12  25
ATOM     25  O   UNL     1      -9.806   1.979 124.741  0.00  0.00    +0.000 OA
ATOM     26  H   UNL     1     -10.063   1.202 124.223  0.00  0.00    +0.000 HD
ENDBRANCH  12  25
BRANCH  14  27
ATOM     27  O   UNL     1      -7.238   5.554 125.367  0.00  0.00    +0.000 OA
ATOM     28  H   UNL     1      -6.983   5.509 124.432  0.00  0.00    +0.000 HD
ENDBRANCH  14  27
TORSDOF 5
ENDMDL
MODEL 5
REMARK VINA RESULT:      -6.2      3.858      5.750
REMARK  Name = Spectinomycin
REMARK  8 active torsions:
REMARK  status: ('A' for Active; 'I' for Inactive)
REMARK    1  A    between atoms: C_4  and  C_5
REMARK    2  A    between atoms: C_9  and  O_10
REMARK    3  A    between atoms: C_14  and  N_15
REMARK    4  A    between atoms: N_15  and  C_16
REMARK    5  A    between atoms: C_17  and  O_18
REMARK    6  A    between atoms: C_19  and  N_20
REMARK    7  A    between atoms: N_20  and  C_21
REMARK    8  A    between atoms: C_22  and  O_23
REMARK                            x       y       z     vdW  Elec       q    Type
REMARK                         _______ _______ _______ _____ _____    ______ ____
ROOT
ATOM      1  C   UNL     1      -6.420   4.140 127.301  0.00  0.00    +0.000 C 
ATOM      2  O   UNL     1      -5.442   3.234 126.796  0.00  0.00    +0.000 OA
ATOM      3  C   UNL     1      -6.039   2.183 126.017  0.00  0.00    +0.000 C 
ATOM      4  C   UNL     1      -7.015   1.389 126.965  0.00  0.00    +0.000 C 
ATOM      5  C   UNL     1      -6.926   2.113 124.789  0.00  0.00    +0.000 C 
ATOM      6  C   UNL     1      -8.111   3.160 125.237  0.00  0.00    +0.000 C 
ATOM      7  O   UNL     1      -9.229   3.026 124.777  0.00  0.00    +0.000 OA
ATOM      8  C   UNL     1      -7.661   4.486 126.343  0.00  0.00    +0.000 C 
ATOM      9  O   UNL     1      -8.536   5.269 127.186  0.00  0.00    +0.000 OA
ATOM     10  C   UNL     1      -8.909   4.735 128.474  0.00  0.00    +0.000 C 
ATOM     11  C   UNL     1      -9.668   5.720 129.465  0.00  0.00    +0.000 C 
ATOM     12  C   UNL     1     -10.195   4.906 130.687  0.00  0.00    +0.000 C 
ATOM     13  C   UNL     1      -9.074   4.135 131.424  0.00  0.00    +0.000 C 
ATOM     14  C   UNL     1      -8.195   3.335 130.443  0.00  0.00    +0.000 C 
ATOM     15  C   UNL     1      -7.702   4.249 129.297  0.00  0.00    +0.000 C 
ATOM     16  O   UNL     1      -6.787   3.522 128.524  0.00  0.00    +0.000 OA
ENDROOT
BRANCH  11  17
ATOM     17  N   UNL     1     -10.815   6.453 128.909  0.00  0.00    +0.000 NA
ATOM     18  C   UNL     1     -10.519   7.855 128.706  0.00  0.00    +0.000 C 
ATOM     19  H   UNL     1     -11.624   6.359 129.529  0.00  0.00    +0.000 HD
ENDBRANCH  11  17
BRANCH  13  20
ATOM     20  N   UNL     1      -9.593   3.226 132.466  0.00  0.00    +0.000 NA
ATOM     21  C   UNL     1      -9.239   3.662 133.807  0.00  0.00    +0.000 C 
ATOM     22  H   UNL     1      -9.266   2.274 132.286  0.00  0.00    +0.000 HD
ENDBRANCH  13  20
BRANCH   8  23
ATOM     23  O   UNL     1      -7.234   5.518 125.407  0.00  0.00    +0.000 OA
ATOM     24  H   UNL     1      -7.892   6.225 125.377  0.00  0.00    +0.000 HD
ENDBRANCH   8  23
BRANCH  12  25
ATOM     25  O   UNL     1     -11.262   4.028 130.296  0.00  0.00    +0.000 OA
ATOM     26  H   UNL     1     -11.481   4.174 129.364  0.00  0.00    +0.000 HD
ENDBRANCH  12  25
BRANCH  14  27
ATOM     27  O   UNL     1      -7.088   2.765 131.165  0.00  0.00    +0.000 OA
ATOM     28  H   UNL     1      -7.366   1.912 131.532  0.00  0.00    +0.000 HD
ENDBRANCH  14  27
TORSDOF 5
ENDMDL
MODEL 6
REMARK VINA RESULT:      -6.2      3.747      7.438
REMARK  Name = Spectinomycin
REMARK  8 active torsions:
REMARK  status: ('A' for Active; 'I' for Inactive)
REMARK    1  A    between atoms: C_4  and  C_5
REMARK    2  A    between atoms: C_9  and  O_10
REMARK    3  A    between atoms: C_14  and  N_15
REMARK    4  A    between atoms: N_15  and  C_16
REMARK    5  A    between atoms: C_17  and  O_18
REMARK    6  A    between atoms: C_19  and  N_20
REMARK    7  A    between atoms: N_20  and  C_21
REMARK    8  A    between atoms: C_22  and  O_23
REMARK                            x       y       z     vdW  Elec       q    Type
REMARK                         _______ _______ _______ _____ _____    ______ ____
ROOT
ATOM      1  C   UNL     1      -8.707   3.982 131.453  0.00  0.00    +0.000 C 
ATOM      2  O   UNL     1      -8.783   4.894 132.547  0.00  0.00    +0.000 OA
ATOM      3  C   UNL     1      -9.577   6.049 132.225  0.00  0.00    +0.000 C 
ATOM      4  C   UNL     1      -8.883   6.776 131.013  0.00  0.00    +0.000 C 
ATOM      5  C   UNL     1     -10.999   6.291 131.756  0.00  0.00    +0.000 C 
ATOM      6  C   UNL     1     -11.056   5.254 130.483  0.00  0.00    +0.000 C 
ATOM      7  O   UNL     1     -11.814   5.486 129.560  0.00  0.00    +0.000 OA
ATOM      8  C   UNL     1     -10.029   3.797 130.562  0.00  0.00    +0.000 C 
ATOM      9  O   UNL     1      -9.588   2.966 129.464  0.00  0.00    +0.000 OA
ATOM     10  C   UNL     1      -8.419   3.373 128.720  0.00  0.00    +0.000 C 
ATOM     11  C   UNL     1      -7.827   2.320 127.685  0.00  0.00    +0.000 C 
ATOM     12  C   UNL     1      -6.735   3.018 126.818  0.00  0.00    +0.000 C 
ATOM     13  C   UNL     1      -5.609   3.655 127.666  0.00  0.00    +0.000 C 
ATOM     14  C   UNL     1      -6.177   4.517 128.810  0.00  0.00    +0.000 C 
ATOM     15  C   UNL     1      -7.219   3.712 129.622  0.00  0.00    +0.000 C 
ATOM     16  O   UNL     1      -7.589   4.478 130.735  0.00  0.00    +0.000 OA
ENDROOT
BRANCH  11  17
ATOM     17  N   UNL     1      -8.786   1.703 126.757  0.00  0.00    +0.000 NA
ATOM     18  C   UNL     1      -8.339   0.407 126.293  0.00  0.00    +0.000 C 
ATOM     19  H   UNL     1      -8.943   2.320 125.956  0.00  0.00    +0.000 HD
ENDBRANCH  11  17
BRANCH  13  20
ATOM     20  N   UNL     1      -4.674   4.467 126.862  0.00  0.00    +0.000 NA
ATOM     21  C   UNL     1      -3.607   3.667 126.280  0.00  0.00    +0.000 C 
ATOM     22  H   UNL     1      -4.300   5.228 127.433  0.00  0.00    +0.000 HD
ENDBRANCH  13  20
BRANCH   8  23
ATOM     23  O   UNL     1     -10.906   2.855 131.246  0.00  0.00    +0.000 OA
ATOM     24  H   UNL     1     -11.569   2.518 130.627  0.00  0.00    +0.000 HD
ENDBRANCH   8  23
BRANCH  12  25
ATOM     25  O   UNL     1      -7.325   3.979 125.929  0.00  0.00    +0.000 OA
ATOM     26  H   UNL     1      -6.682   4.674 125.725  0.00  0.00    +0.000 HD
ENDBRANCH  12  25
BRANCH  14  27
ATOM     27  O   UNL     1      -5.093   4.955 129.649  0.00  0.00    +0.000 OA
ATOM     28  H   UNL     1      -4.562   5.599 129.154  0.00  0.00    +0.000 HD
ENDBRANCH  14  27
TORSDOF 5
ENDMDL
MODEL 7
REMARK VINA RESULT:      -6.1      7.204      8.869
REMARK  Name = Spectinomycin
REMARK  8 active torsions:
REMARK  status: ('A' for Active; 'I' for Inactive)
REMARK    1  A    between atoms: C_4  and  C_5
REMARK    2  A    between atoms: C_9  and  O_10
REMARK    3  A    between atoms: C_14  and  N_15
REMARK    4  A    between atoms: N_15  and  C_16
REMARK    5  A    between atoms: C_17  and  O_18
REMARK    6  A    between atoms: C_19  and  N_20
REMARK    7  A    between atoms: N_20  and  C_21
REMARK    8  A    between atoms: C_22  and  O_23
REMARK                            x       y       z     vdW  Elec       q    Type
REMARK                         _______ _______ _______ _____ _____    ______ ____
ROOT
ATOM      1  C   UNL     1     -10.266   4.718 130.018  0.00  0.00    +0.000 C 
ATOM      2  O   UNL     1     -11.681   4.879 129.944  0.00  0.00    +0.000 OA
ATOM      3  C   UNL     1     -12.066   6.263 130.020  0.00  0.00    +0.000 C 
ATOM      4  C   UNL     1     -11.569   6.816 131.409  0.00  0.00    +0.000 C 
ATOM      5  C   UNL     1     -11.751   7.521 129.233  0.00  0.00    +0.000 C 
ATOM      6  C   UNL     1     -10.110   7.441 129.218  0.00  0.00    +0.000 C 
ATOM      7  O   UNL     1      -9.465   8.468 129.126  0.00  0.00    +0.000 OA
ATOM      8  C   UNL     1      -9.365   5.821 129.277  0.00  0.00    +0.000 C 
ATOM      9  O   UNL     1      -8.016   5.482 129.673  0.00  0.00    +0.000 OA
ATOM     10  C   UNL     1      -7.731   5.326 131.079  0.00  0.00    +0.000 C 
ATOM     11  C   UNL     1      -6.310   4.722 131.459  0.00  0.00    +0.000 C 
ATOM     12  C   UNL     1      -6.095   4.856 132.998  0.00  0.00    +0.000 C 
ATOM     13  C   UNL     1      -7.219   4.186 133.823  0.00  0.00    +0.000 C 
ATOM     14  C   UNL     1      -8.617   4.605 133.325  0.00  0.00    +0.000 C 
ATOM     15  C   UNL     1      -8.726   4.396 131.796  0.00  0.00    +0.000 C 
ATOM     16  O   UNL     1     -10.052   4.641 131.418  0.00  0.00    +0.000 OA
ENDROOT
BRANCH  11  17
ATOM     17  N   UNL     1      -5.142   5.333 130.806  0.00  0.00    +0.000 NA
ATOM     18  C   UNL     1      -4.339   4.357 130.101  0.00  0.00    +0.000 C 
ATOM     19  H   UNL     1      -4.566   5.816 131.500  0.00  0.00    +0.000 HD
ENDBRANCH  11  17
BRANCH  13  20
ATOM     20  N   UNL     1      -7.114   4.465 135.269  0.00  0.00    +0.000 NA
ATOM     21  C   UNL     1      -5.849   4.012 135.828  0.00  0.00    +0.000 C 
ATOM     22  H   UNL     1      -7.908   4.046 135.759  0.00  0.00    +0.000 HD
ENDBRANCH  13  20
BRANCH   8  23
ATOM     23  O   UNL     1      -9.300   5.474 127.863  0.00  0.00    +0.000 OA
ATOM     24  H   UNL     1      -9.858   6.077 127.353  0.00  0.00    +0.000 HD
ENDBRANCH   8  23
BRANCH  12  25
ATOM     25  O   UNL     1      -5.921   6.231 133.373  0.00  0.00    +0.000 OA
ATOM     26  H   UNL     1      -6.309   6.383 134.248  0.00  0.00    +0.000 HD
ENDBRANCH  12  25
BRANCH  14  27
ATOM     27  O   UNL     1      -9.613   3.839 134.026  0.00  0.00    +0.000 OA
ATOM     28  H   UNL     1      -9.255   2.953 134.195  0.00  0.00    +0.000 HD
ENDBRANCH  14  27
TORSDOF 5
ENDMDL
MODEL 8
REMARK VINA RESULT:      -6.0      7.290      9.193
REMARK  Name = Spectinomycin
REMARK  8 active torsions:
REMARK  status: ('A' for Active; 'I' for Inactive)
REMARK    1  A    between atoms: C_4  and  C_5
REMARK    2  A    between atoms: C_9  and  O_10
REMARK    3  A    between atoms: C_14  and  N_15
REMARK    4  A    between atoms: N_15  and  C_16
REMARK    5  A    between atoms: C_17  and  O_18
REMARK    6  A    between atoms: C_19  and  N_20
REMARK    7  A    between atoms: N_20  and  C_21
REMARK    8  A    between atoms: C_22  and  O_23
REMARK                            x       y       z     vdW  Elec       q    Type
REMARK                         _______ _______ _______ _____ _____    ______ ____
ROOT
ATOM      1  C   UNL     1      -5.421   5.012 129.559  0.00  0.00    +0.000 C 
ATOM      2  O   UNL     1      -4.614   5.956 128.859  0.00  0.00    +0.000 OA
ATOM      3  C   UNL     1      -3.684   6.618 129.735  0.00  0.00    +0.000 C 
ATOM      4  C   UNL     1      -4.525   7.386 130.823  0.00  0.00    +0.000 C 
ATOM      5  C   UNL     1      -2.580   6.177 130.676  0.00  0.00    +0.000 C 
ATOM      6  C   UNL     1      -3.387   5.039 131.545  0.00  0.00    +0.000 C 
ATOM      7  O   UNL     1      -3.036   4.800 132.684  0.00  0.00    +0.000 OA
ATOM      8  C   UNL     1      -4.712   4.168 130.727  0.00  0.00    +0.000 C 
ATOM      9  O   UNL     1      -5.806   3.448 131.339  0.00  0.00    +0.000 OA
ATOM     10  C   UNL     1      -6.969   4.191 131.762  0.00  0.00    +0.000 C 
ATOM     11  C   UNL     1      -8.239   3.343 132.205  0.00  0.00    +0.000 C 
ATOM     12  C   UNL     1      -9.291   4.299 132.849  0.00  0.00    +0.000 C 
ATOM     13  C   UNL     1      -9.700   5.461 131.912  0.00  0.00    +0.000 C 
ATOM     14  C   UNL     1      -8.469   6.164 131.307  0.00  0.00    +0.000 C 
ATOM     15  C   UNL     1      -7.517   5.125 130.668  0.00  0.00    +0.000 C 
ATOM     16  O   UNL     1      -6.500   5.819 130.000  0.00  0.00    +0.000 OA
ENDROOT
BRANCH  11  17
ATOM     17  N   UNL     1      -7.999   2.257 133.167  0.00  0.00    +0.000 NA
ATOM     18  C   UNL     1      -7.969   0.959 132.527  0.00  0.00    +0.000 C 
ATOM     19  H   UNL     1      -8.721   2.266 133.893  0.00  0.00    +0.000 HD
ENDBRANCH  11  17
BRANCH  13  20
ATOM     20  N   UNL     1     -10.554   6.463 132.581  0.00  0.00    +0.000 NA
ATOM     21  C   UNL     1     -11.830   6.640 131.906  0.00  0.00    +0.000 C 
ATOM     22  H   UNL     1     -10.048   7.348 132.659  0.00  0.00    +0.000 HD
ENDBRANCH  13  20
BRANCH   8  23
ATOM     23  O   UNL     1      -3.999   3.056 130.112  0.00  0.00    +0.000 OA
ATOM     24  H   UNL     1      -4.516   2.245 130.206  0.00  0.00    +0.000 HD
ENDBRANCH   8  23
BRANCH  12  25
ATOM     25  O   UNL     1      -8.828   4.790 134.116  0.00  0.00    +0.000 OA
ATOM     26  H   UNL     1      -8.086   4.250 134.426  0.00  0.00    +0.000 HD
ENDBRANCH  12  25
BRANCH  14  27
ATOM     27  O   UNL     1      -8.911   7.129 130.335  0.00  0.00    +0.000 OA
ATOM     28  H   UNL     1      -8.715   8.017 130.672  0.00  0.00    +0.000 HD
ENDBRANCH  14  27
TORSDOF 5
ENDMDL
MODEL 9
REMARK VINA RESULT:      -5.9      4.451      8.107
REMARK  Name = Spectinomycin
REMARK  8 active torsions:
REMARK  status: ('A' for Active; 'I' for Inactive)
REMARK    1  A    between atoms: C_4  and  C_5
REMARK    2  A    between atoms: C_9  and  O_10
REMARK    3  A    between atoms: C_14  and  N_15
REMARK    4  A    between atoms: N_15  and  C_16
REMARK    5  A    between atoms: C_17  and  O_18
REMARK    6  A    between atoms: C_19  and  N_20
REMARK    7  A    between atoms: N_20  and  C_21
REMARK    8  A    between atoms: C_22  and  O_23
REMARK                            x       y       z     vdW  Elec       q    Type
REMARK                         _______ _______ _______ _____ _____    ______ ____
ROOT
ATOM      1  C   UNL     1      -9.409   5.819 128.994  0.00  0.00    +0.000 C 
ATOM      2  O   UNL     1     -10.823   5.986 128.912  0.00  0.00    +0.000 OA
ATOM      3  C   UNL     1     -11.461   5.779 130.184  0.00  0.00    +0.000 C 
ATOM      4  C   UNL     1     -11.156   4.300 130.630  0.00  0.00    +0.000 C 
ATOM      5  C   UNL     1     -11.339   6.385 131.569  0.00  0.00    +0.000 C 
ATOM      6  C   UNL     1      -9.714   6.278 131.783  0.00  0.00    +0.000 C 
ATOM      7  O   UNL     1      -9.266   6.195 132.911  0.00  0.00    +0.000 OA
ATOM      8  C   UNL     1      -8.686   6.350 130.326  0.00  0.00    +0.000 C 
ATOM      9  O   UNL     1      -7.324   5.889 130.182  0.00  0.00    +0.000 OA
ATOM     10  C   UNL     1      -7.095   4.493 129.897  0.00  0.00    +0.000 C 
ATOM     11  C   UNL     1      -5.612   4.074 129.508  0.00  0.00    +0.000 C 
ATOM     12  C   UNL     1      -5.514   2.518 129.476  0.00  0.00    +0.000 C 
ATOM     13  C   UNL     1      -6.541   1.871 128.516  0.00  0.00    +0.000 C 
ATOM     14  C   UNL     1      -7.961   2.426 128.743  0.00  0.00    +0.000 C 
ATOM     15  C   UNL     1      -7.941   3.973 128.720  0.00  0.00    +0.000 C 
ATOM     16  O   UNL     1      -9.266   4.425 128.774  0.00  0.00    +0.000 OA
ENDROOT
BRANCH  11  17
ATOM     17  N   UNL     1      -4.542   4.555 130.396  0.00  0.00    +0.000 NA
ATOM     18  C   UNL     1      -3.257   4.592 129.731  0.00  0.00    +0.000 C 
ATOM     19  H   UNL     1      -4.482   3.959 131.226  0.00  0.00    +0.000 HD
ENDBRANCH  11  17
BRANCH  13  20
ATOM     20  N   UNL     1      -6.572   0.398 128.618  0.00  0.00    +0.000 NA
ATOM     21  C   UNL     1      -5.646  -0.240 127.695  0.00  0.00    +0.000 C 
ATOM     22  H   UNL     1      -7.528   0.063 128.476  0.00  0.00    +0.000 HD
ENDBRANCH  13  20
BRANCH   8  23
ATOM     23  O   UNL     1      -8.477   7.785 130.184  0.00  0.00    +0.000 OA
ATOM     24  H   UNL     1      -7.546   7.962 129.993  0.00  0.00    +0.000 HD
ENDBRANCH   8  23
BRANCH  12  25
ATOM     25  O   UNL     1      -5.620   1.970 130.799  0.00  0.00    +0.000 OA
ATOM     26  H   UNL     1      -5.959   2.644 131.406  0.00  0.00    +0.000 HD
ENDBRANCH  12  25
BRANCH  14  27
ATOM     27  O   UNL     1      -8.836   1.903 127.729  0.00  0.00    +0.000 OA
ATOM     28  H   UNL     1      -8.657   2.371 126.898  0.00  0.00    +0.000 HD
ENDBRANCH  14  27
TORSDOF 5
ENDMDL
