MODEL 1
REMARK VINA RESULT:      -8.5      0.000      0.000
REMARK  Name = Spironolactone
REMARK  5 active torsions:
REMARK  status: ('A' for Active; 'I' for Inactive)
REMARK    1  A    between atoms: C_11  and  C_12
REMARK    2  A    between atoms: C_19  and  S_30
REMARK    3  A    between atoms: C_28  and  C_29
REMARK    4  A    between atoms: S_30  and  C_31
REMARK    5  A    between atoms: C_31  and  C_32
REMARK                            x       y       z     vdW  Elec       q    Type
REMARK                         _______ _______ _______ _____ _____    ______ ____
ROOT
ATOM      1  C   UNL     1      -7.026  -0.959 127.094  0.00  0.00    +0.000 C 
ATOM      2  C   UNL     1      -8.003  -2.094 127.402  0.00  0.00    +0.000 C 
ATOM      3  C   UNL     1      -7.417  -2.780 128.655  0.00  0.00    +0.000 C 
ATOM      4  C   UNL     1      -6.152  -1.960 129.039  0.00  0.00    +0.000 C 
ATOM      5  C   UNL     1      -4.892  -2.636 128.498  0.00  0.00    +0.000 C 
ATOM      6  C   UNL     1      -4.511  -3.580 129.612  0.00  0.00    +0.000 C 
ATOM      7  C   UNL     1      -5.035  -2.869 130.820  0.00  0.00    +0.000 C 
ATOM      8  O   UNL     1      -4.717  -3.101 131.971  0.00  0.00    +0.000 OA
ATOM      9  O   UNL     1      -5.961  -1.935 130.453  0.00  0.00    +0.000 OA
ATOM     10  C   UNL     1      -6.495  -0.552 128.480  0.00  0.00    +0.000 C 
ATOM     11  C   UNL     1      -7.566   0.119 129.390  0.00  0.00    +0.000 C 
ATOM     12  C   UNL     1      -5.334   0.435 128.297  0.00  0.00    +0.000 C 
ATOM     13  C   UNL     1      -5.778   1.665 127.498  0.00  0.00    +0.000 C 
ATOM     14  C   UNL     1      -6.370   1.287 126.118  0.00  0.00    +0.000 C 
ATOM     15  C   UNL     1      -7.510   0.212 126.220  0.00  0.00    +0.000 C 
ATOM     16  C   UNL     1      -7.996  -0.235 124.795  0.00  0.00    +0.000 C 
ATOM     17  C   UNL     1      -8.412   1.016 124.007  0.00  0.00    +0.000 C 
ATOM     18  C   UNL     1      -7.337   2.061 123.932  0.00  0.00    +0.000 C 
ATOM     19  C   UNL     1      -6.924   2.494 122.728  0.00  0.00    +0.000 C 
ATOM     20  C   UNL     1      -5.968   3.610 122.606  0.00  0.00    +0.000 C 
ATOM     21  O   UNL     1      -5.562   3.941 121.497  0.00  0.00    +0.000 OA
ATOM     22  C   UNL     1      -5.629   4.369 123.860  0.00  0.00    +0.000 C 
ATOM     23  C   UNL     1      -5.510   3.406 125.030  0.00  0.00    +0.000 C 
ATOM     24  C   UNL     1      -6.780   2.543 125.266  0.00  0.00    +0.000 C 
ATOM     25  C   UNL     1      -7.863   3.391 125.967  0.00  0.00    +0.000 C 
ENDROOT
BRANCH  16  26
ATOM     26  S   UNL     1      -6.708  -1.203 123.920  0.00  0.00    +0.000 S 
BRANCH  26  27
ATOM     27  C   UNL     1      -7.136  -2.898 123.967  0.00  0.00    +0.000 C 
ATOM     28  C   UNL     1      -8.558  -3.359 123.895  0.00  0.00    +0.000 C 
ATOM     29  O   UNL     1      -6.229  -3.723 124.056  0.00  0.00    +0.000 OA
ENDBRANCH  26  27
ENDBRANCH  16  26
TORSDOF 2
ENDMDL
MODEL 2
REMARK VINA RESULT:      -8.3      2.298      4.709
REMARK  Name = Spironolactone
REMARK  5 active torsions:
REMARK  status: ('A' for Active; 'I' for Inactive)
REMARK    1  A    between atoms: C_11  and  C_12
REMARK    2  A    between atoms: C_19  and  S_30
REMARK    3  A    between atoms: C_28  and  C_29
REMARK    4  A    between atoms: S_30  and  C_31
REMARK    5  A    between atoms: C_31  and  C_32
REMARK                            x       y       z     vdW  Elec       q    Type
REMARK                         _______ _______ _______ _____ _____    ______ ____
ROOT
ATOM      1  C   UNL     1      -6.523  -1.133 128.819  0.00  0.00    +0.000 C 
ATOM      2  C   UNL     1      -5.366  -0.460 129.558  0.00  0.00    +0.000 C 
ATOM      3  C   UNL     1      -5.468  -0.992 131.005  0.00  0.00    +0.000 C 
ATOM      4  C   UNL     1      -6.654  -1.998 131.008  0.00  0.00    +0.000 C 
ATOM      5  C   UNL     1      -7.924  -1.325 131.528  0.00  0.00    +0.000 C 
ATOM      6  C   UNL     1      -7.840  -1.554 133.018  0.00  0.00    +0.000 C 
ATOM      7  C   UNL     1      -7.076  -2.838 133.096  0.00  0.00    +0.000 C 
ATOM      8  O   UNL     1      -7.009  -3.564 134.070  0.00  0.00    +0.000 OA
ATOM      9  O   UNL     1      -6.422  -3.070 131.920  0.00  0.00    +0.000 OA
ATOM     10  C   UNL     1      -6.668  -2.489 129.534  0.00  0.00    +0.000 C 
ATOM     11  C   UNL     1      -5.468  -3.453 129.298  0.00  0.00    +0.000 C 
ATOM     12  C   UNL     1      -7.944  -3.180 129.034  0.00  0.00    +0.000 C 
ATOM     13  C   UNL     1      -7.910  -3.362 127.513  0.00  0.00    +0.000 C 
ATOM     14  C   UNL     1      -7.710  -2.023 126.764  0.00  0.00    +0.000 C 
ATOM     15  C   UNL     1      -6.466  -1.216 127.284  0.00  0.00    +0.000 C 
ATOM     16  C   UNL     1      -6.370   0.189 126.588  0.00  0.00    +0.000 C 
ATOM     17  C   UNL     1      -6.363  -0.020 125.067  0.00  0.00    +0.000 C 
ATOM     18  C   UNL     1      -7.533  -0.817 124.566  0.00  0.00    +0.000 C 
ATOM     19  C   UNL     1      -8.333  -0.289 123.623  0.00  0.00    +0.000 C 
ATOM     20  C   UNL     1      -9.413  -1.083 123.007  0.00  0.00    +0.000 C 
ATOM     21  O   UNL     1     -10.165  -0.554 122.195  0.00  0.00    +0.000 OA
ATOM     22  C   UNL     1      -9.457  -2.552 123.327  0.00  0.00    +0.000 C 
ATOM     23  C   UNL     1      -9.107  -2.773 124.789  0.00  0.00    +0.000 C 
ATOM     24  C   UNL     1      -7.728  -2.189 125.201  0.00  0.00    +0.000 C 
ATOM     25  C   UNL     1      -6.599  -3.118 124.703  0.00  0.00    +0.000 C 
ENDROOT
BRANCH  16  26
ATOM     26  S   UNL     1      -7.730   1.296 127.124  0.00  0.00    +0.000 S 
BRANCH  26  27
ATOM     27  C   UNL     1      -7.856   2.631 126.001  0.00  0.00    +0.000 C 
ATOM     28  C   UNL     1      -6.720   3.576 125.760  0.00  0.00    +0.000 C 
ATOM     29  O   UNL     1      -8.915   2.781 125.395  0.00  0.00    +0.000 OA
ENDBRANCH  26  27
ENDBRANCH  16  26
TORSDOF 2
ENDMDL
MODEL 3
REMARK VINA RESULT:      -8.1      2.821      5.611
REMARK  Name = Spironolactone
REMARK  5 active torsions:
REMARK  status: ('A' for Active; 'I' for Inactive)
REMARK    1  A    between atoms: C_11  and  C_12
REMARK    2  A    between atoms: C_19  and  S_30
REMARK    3  A    between atoms: C_28  and  C_29
REMARK    4  A    between atoms: S_30  and  C_31
REMARK    5  A    between atoms: C_31  and  C_32
REMARK                            x       y       z     vdW  Elec       q    Type
REMARK                         _______ _______ _______ _____ _____    ______ ____
ROOT
ATOM      1  C   UNL     1      -7.265   2.113 127.564  0.00  0.00    +0.000 C 
ATOM      2  C   UNL     1      -6.557   3.456 127.384  0.00  0.00    +0.000 C 
ATOM      3  C   UNL     1      -6.692   4.152 128.756  0.00  0.00    +0.000 C 
ATOM      4  C   UNL     1      -7.427   3.139 129.679  0.00  0.00    +0.000 C 
ATOM      5  C   UNL     1      -8.919   3.465 129.750  0.00  0.00    +0.000 C 
ATOM      6  C   UNL     1      -8.997   4.438 130.901  0.00  0.00    +0.000 C 
ATOM      7  C   UNL     1      -7.848   4.005 131.757  0.00  0.00    +0.000 C 
ATOM      8  O   UNL     1      -7.683   4.304 132.925  0.00  0.00    +0.000 OA
ATOM      9  O   UNL     1      -6.977   3.248 131.029  0.00  0.00    +0.000 OA
ATOM     10  C   UNL     1      -7.030   1.777 129.048  0.00  0.00    +0.000 C 
ATOM     11  C   UNL     1      -5.545   1.460 129.391  0.00  0.00    +0.000 C 
ATOM     12  C   UNL     1      -7.879   0.554 129.420  0.00  0.00    +0.000 C 
ATOM     13  C   UNL     1      -7.541  -0.644 128.526  0.00  0.00    +0.000 C 
ATOM     14  C   UNL     1      -7.714  -0.322 127.022  0.00  0.00    +0.000 C 
ATOM     15  C   UNL     1      -6.939   0.972 126.585  0.00  0.00    +0.000 C 
ATOM     16  C   UNL     1      -7.240   1.333 125.086  0.00  0.00    +0.000 C 
ATOM     17  C   UNL     1      -6.916   0.111 124.216  0.00  0.00    +0.000 C 
ATOM     18  C   UNL     1      -7.630  -1.137 124.647  0.00  0.00    +0.000 C 
ATOM     19  C   UNL     1      -8.405  -1.791 123.763  0.00  0.00    +0.000 C 
ATOM     20  C   UNL     1      -9.018  -3.089 124.100  0.00  0.00    +0.000 C 
ATOM     21  O   UNL     1      -9.770  -3.631 123.296  0.00  0.00    +0.000 OA
ATOM     22  C   UNL     1      -8.588  -3.743 125.385  0.00  0.00    +0.000 C 
ATOM     23  C   UNL     1      -8.419  -2.691 126.469  0.00  0.00    +0.000 C 
ATOM     24  C   UNL     1      -7.422  -1.559 126.096  0.00  0.00    +0.000 C 
ATOM     25  C   UNL     1      -5.973  -2.070 126.251  0.00  0.00    +0.000 C 
ENDROOT
BRANCH  16  26
ATOM     26  S   UNL     1      -8.971   1.896 124.867  0.00  0.00    +0.000 S 
BRANCH  26  27
ATOM     27  C   UNL     1      -9.354   1.914 123.161  0.00  0.00    +0.000 C 
ATOM     28  C   UNL     1     -10.253   0.891 122.538  0.00  0.00    +0.000 C 
ATOM     29  O   UNL     1      -8.867   2.804 122.466  0.00  0.00    +0.000 OA
ENDBRANCH  26  27
ENDBRANCH  16  26
TORSDOF 2
ENDMDL
MODEL 4
REMARK VINA RESULT:      -8.1      5.014      8.230
REMARK  Name = Spironolactone
REMARK  5 active torsions:
REMARK  status: ('A' for Active; 'I' for Inactive)
REMARK    1  A    between atoms: C_11  and  C_12
REMARK    2  A    between atoms: C_19  and  S_30
REMARK    3  A    between atoms: C_28  and  C_29
REMARK    4  A    between atoms: S_30  and  C_31
REMARK    5  A    between atoms: C_31  and  C_32
REMARK                            x       y       z     vdW  Elec       q    Type
REMARK                         _______ _______ _______ _____ _____    ______ ____
ROOT
ATOM      1  C   UNL     1      -8.152   4.669 130.502  0.00  0.00    +0.000 C 
ATOM      2  C   UNL     1      -7.671   6.069 130.885  0.00  0.00    +0.000 C 
ATOM      3  C   UNL     1      -8.969   6.865 131.149  0.00  0.00    +0.000 C 
ATOM      4  C   UNL     1     -10.136   5.855 130.958  0.00  0.00    +0.000 C 
ATOM      5  C   UNL     1     -10.740   5.994 129.561  0.00  0.00    +0.000 C 
ATOM      6  C   UNL     1     -11.800   7.050 129.755  0.00  0.00    +0.000 C 
ATOM      7  C   UNL     1     -12.188   6.847 131.186  0.00  0.00    +0.000 C 
ATOM      8  O   UNL     1     -13.200   7.270 131.713  0.00  0.00    +0.000 OA
ATOM      9  O   UNL     1     -11.219   6.143 131.842  0.00  0.00    +0.000 OA
ATOM     10  C   UNL     1      -9.456   4.502 131.304  0.00  0.00    +0.000 C 
ATOM     11  C   UNL     1      -9.238   4.410 132.842  0.00  0.00    +0.000 C 
ATOM     12  C   UNL     1     -10.162   3.221 130.841  0.00  0.00    +0.000 C 
ATOM     13  C   UNL     1      -9.253   1.999 131.013  0.00  0.00    +0.000 C 
ATOM     14  C   UNL     1      -7.908   2.157 130.264  0.00  0.00    +0.000 C 
ATOM     15  C   UNL     1      -7.166   3.494 130.624  0.00  0.00    +0.000 C 
ATOM     16  C   UNL     1      -5.871   3.675 129.753  0.00  0.00    +0.000 C 
ATOM     17  C   UNL     1      -4.991   2.429 129.923  0.00  0.00    +0.000 C 
ATOM     18  C   UNL     1      -5.703   1.145 129.610  0.00  0.00    +0.000 C 
ATOM     19  C   UNL     1      -5.193   0.321 128.678  0.00  0.00    +0.000 C 
ATOM     20  C   UNL     1      -5.783  -1.009 128.432  0.00  0.00    +0.000 C 
ATOM     21  O   UNL     1      -5.334  -1.713 127.533  0.00  0.00    +0.000 OA
ATOM     22  C   UNL     1      -6.842  -1.482 129.390  0.00  0.00    +0.000 C 
ATOM     23  C   UNL     1      -7.745  -0.323 129.775  0.00  0.00    +0.000 C 
ATOM     24  C   UNL     1      -6.988   0.888 130.387  0.00  0.00    +0.000 C 
ATOM     25  C   UNL     1      -6.616   0.582 131.854  0.00  0.00    +0.000 C 
ENDROOT
BRANCH  16  26
ATOM     26  S   UNL     1      -6.286   3.991 127.994  0.00  0.00    +0.000 S 
BRANCH  26  27
ATOM     27  C   UNL     1      -4.876   4.632 127.182  0.00  0.00    +0.000 C 
ATOM     28  C   UNL     1      -4.013   3.783 126.300  0.00  0.00    +0.000 C 
ATOM     29  O   UNL     1      -4.601   5.819 127.346  0.00  0.00    +0.000 OA
ENDBRANCH  26  27
ENDBRANCH  16  26
TORSDOF 2
ENDMDL
MODEL 5
REMARK VINA RESULT:      -7.8      2.891      6.562
REMARK  Name = Spironolactone
REMARK  5 active torsions:
REMARK  status: ('A' for Active; 'I' for Inactive)
REMARK    1  A    between atoms: C_11  and  C_12
REMARK    2  A    between atoms: C_19  and  S_30
REMARK    3  A    between atoms: C_28  and  C_29
REMARK    4  A    between atoms: S_30  and  C_31
REMARK    5  A    between atoms: C_31  and  C_32
REMARK                            x       y       z     vdW  Elec       q    Type
REMARK                         _______ _______ _______ _____ _____    ______ ____
ROOT
ATOM      1  C   UNL     1      -7.073  -0.852 127.673  0.00  0.00    +0.000 C 
ATOM      2  C   UNL     1      -5.985  -1.875 127.342  0.00  0.00    +0.000 C 
ATOM      3  C   UNL     1      -6.365  -2.405 125.942  0.00  0.00    +0.000 C 
ATOM      4  C   UNL     1      -7.631  -1.611 125.513  0.00  0.00    +0.000 C 
ATOM      5  C   UNL     1      -8.894  -2.426 125.791  0.00  0.00    +0.000 C 
ATOM      6  C   UNL     1      -9.068  -3.221 124.519  0.00  0.00    +0.000 C 
ATOM      7  C   UNL     1      -8.457  -2.315 123.496  0.00  0.00    +0.000 C 
ATOM      8  O   UNL     1      -8.616  -2.397 122.293  0.00  0.00    +0.000 OA
ATOM      9  O   UNL     1      -7.653  -1.394 124.103  0.00  0.00    +0.000 OA
ATOM     10  C   UNL     1      -7.462  -0.281 126.297  0.00  0.00    +0.000 C 
ATOM     11  C   UNL     1      -6.342   0.573 125.633  0.00  0.00    +0.000 C 
ATOM     12  C   UNL     1      -8.706   0.604 126.461  0.00  0.00    +0.000 C 
ATOM     13  C   UNL     1      -8.451   1.729 127.470  0.00  0.00    +0.000 C 
ATOM     14  C   UNL     1      -8.004   1.190 128.850  0.00  0.00    +0.000 C 
ATOM     15  C   UNL     1      -6.784   0.206 128.752  0.00  0.00    +0.000 C 
ATOM     16  C   UNL     1      -6.441  -0.413 130.154  0.00  0.00    +0.000 C 
ATOM     17  C   UNL     1      -6.216   0.733 131.151  0.00  0.00    +0.000 C 
ATOM     18  C   UNL     1      -7.365   1.695 131.228  0.00  0.00    +0.000 C 
ATOM     19  C   UNL     1      -7.951   1.927 132.416  0.00  0.00    +0.000 C 
ATOM     20  C   UNL     1      -8.993   2.959 132.563  0.00  0.00    +0.000 C 
ATOM     21  O   UNL     1      -9.552   3.105 133.646  0.00  0.00    +0.000 OA
ATOM     22  C   UNL     1      -9.234   3.870 131.390  0.00  0.00    +0.000 C 
ATOM     23  C   UNL     1      -9.141   3.080 130.096  0.00  0.00    +0.000 C 
ATOM     24  C   UNL     1      -7.792   2.331 129.911  0.00  0.00    +0.000 C 
ATOM     25  C   UNL     1      -6.698   3.331 129.477  0.00  0.00    +0.000 C 
ENDROOT
BRANCH  16  26
ATOM     26  S   UNL     1      -7.751  -1.567 130.716  0.00  0.00    +0.000 S 
BRANCH  26  27
ATOM     27  C   UNL     1      -7.009  -3.059 131.247  0.00  0.00    +0.000 C 
ATOM     28  C   UNL     1      -6.362  -4.009 130.288  0.00  0.00    +0.000 C 
ATOM     29  O   UNL     1      -7.024  -3.318 132.449  0.00  0.00    +0.000 OA
ENDBRANCH  26  27
ENDBRANCH  16  26
TORSDOF 2
ENDMDL
MODEL 6
REMARK VINA RESULT:      -7.7      2.678      7.916
REMARK  Name = Spironolactone
REMARK  5 active torsions:
REMARK  status: ('A' for Active; 'I' for Inactive)
REMARK    1  A    between atoms: C_11  and  C_12
REMARK    2  A    between atoms: C_19  and  S_30
REMARK    3  A    between atoms: C_28  and  C_29
REMARK    4  A    between atoms: S_30  and  C_31
REMARK    5  A    between atoms: C_31  and  C_32
REMARK                            x       y       z     vdW  Elec       q    Type
REMARK                         _______ _______ _______ _____ _____    ______ ____
ROOT
ATOM      1  C   UNL     1      -7.225   1.310 128.303  0.00  0.00    +0.000 C 
ATOM      2  C   UNL     1      -8.171   2.512 128.275  0.00  0.00    +0.000 C 
ATOM      3  C   UNL     1      -7.676   3.365 127.086  0.00  0.00    +0.000 C 
ATOM      4  C   UNL     1      -6.497   2.574 126.452  0.00  0.00    +0.000 C 
ATOM      5  C   UNL     1      -5.158   3.113 126.956  0.00  0.00    +0.000 C 
ATOM      6  C   UNL     1      -4.842   4.207 125.965  0.00  0.00    +0.000 C 
ATOM      7  C   UNL     1      -5.516   3.712 124.724  0.00  0.00    +0.000 C 
ATOM      8  O   UNL     1      -5.301   4.110 123.595  0.00  0.00    +0.000 OA
ATOM      9  O   UNL     1      -6.446   2.764 125.039  0.00  0.00    +0.000 OA
ATOM     10  C   UNL     1      -6.853   1.108 126.823  0.00  0.00    +0.000 C 
ATOM     11  C   UNL     1      -8.039   0.624 125.939  0.00  0.00    +0.000 C 
ATOM     12  C   UNL     1      -5.730   0.066 126.732  0.00  0.00    +0.000 C 
ATOM     13  C   UNL     1      -6.154  -1.258 127.377  0.00  0.00    +0.000 C 
ATOM     14  C   UNL     1      -6.588  -1.081 128.852  0.00  0.00    +0.000 C 
ATOM     15  C   UNL     1      -7.679   0.035 129.034  0.00  0.00    +0.000 C 
ATOM     16  C   UNL     1      -8.001   0.269 130.554  0.00  0.00    +0.000 C 
ATOM     17  C   UNL     1      -8.399  -1.075 131.181  0.00  0.00    +0.000 C 
ATOM     18  C   UNL     1      -7.375  -2.154 130.983  0.00  0.00    +0.000 C 
ATOM     19  C   UNL     1      -6.867  -2.784 132.058  0.00  0.00    +0.000 C 
ATOM     20  C   UNL     1      -5.961  -3.938 131.908  0.00  0.00    +0.000 C 
ATOM     21  O   UNL     1      -5.466  -4.451 132.906  0.00  0.00    +0.000 OA
ATOM     22  C   UNL     1      -5.784  -4.501 130.525  0.00  0.00    +0.000 C 
ATOM     23  C   UNL     1      -5.732  -3.372 129.509  0.00  0.00    +0.000 C 
ATOM     24  C   UNL     1      -6.975  -2.440 129.541  0.00  0.00    +0.000 C 
ATOM     25  C   UNL     1      -8.162  -3.131 128.836  0.00  0.00    +0.000 C 
ENDROOT
BRANCH  16  26
ATOM     26  S   UNL     1      -6.586   1.044 131.426  0.00  0.00    +0.000 S 
BRANCH  26  27
ATOM     27  C   UNL     1      -7.058   1.405 133.071  0.00  0.00    +0.000 C 
ATOM     28  C   UNL     1      -7.810   2.649 133.427  0.00  0.00    +0.000 C 
ATOM     29  O   UNL     1      -6.760   0.599 133.950  0.00  0.00    +0.000 OA
ENDBRANCH  26  27
ENDBRANCH  16  26
TORSDOF 2
ENDMDL
MODEL 7
REMARK VINA RESULT:      -7.7      5.562      9.460
REMARK  Name = Spironolactone
REMARK  5 active torsions:
REMARK  status: ('A' for Active; 'I' for Inactive)
REMARK    1  A    between atoms: C_11  and  C_12
REMARK    2  A    between atoms: C_19  and  S_30
REMARK    3  A    between atoms: C_28  and  C_29
REMARK    4  A    between atoms: S_30  and  C_31
REMARK    5  A    between atoms: C_31  and  C_32
REMARK                            x       y       z     vdW  Elec       q    Type
REMARK                         _______ _______ _______ _____ _____    ______ ____
ROOT
ATOM      1  C   UNL     1      -8.906   5.765 130.211  0.00  0.00    +0.000 C 
ATOM      2  C   UNL     1      -8.426   7.212 130.339  0.00  0.00    +0.000 C 
ATOM      3  C   UNL     1      -9.584   8.056 129.762  0.00  0.00    +0.000 C 
ATOM      4  C   UNL     1     -10.703   7.045 129.382  0.00  0.00    +0.000 C 
ATOM      5  C   UNL     1     -10.647   6.722 127.889  0.00  0.00    +0.000 C 
ATOM      6  C   UNL     1     -11.525   7.789 127.281  0.00  0.00    +0.000 C 
ATOM      7  C   UNL     1     -12.495   8.066 128.387  0.00  0.00    +0.000 C 
ATOM      8  O   UNL     1     -13.559   8.643 128.267  0.00  0.00    +0.000 OA
ATOM      9  O   UNL     1     -11.999   7.611 129.574  0.00  0.00    +0.000 OA
ATOM     10  C   UNL     1     -10.433   5.876 130.369  0.00  0.00    +0.000 C 
ATOM     11  C   UNL     1     -10.887   6.291 131.799  0.00  0.00    +0.000 C 
ATOM     12  C   UNL     1     -11.066   4.517 130.039  0.00  0.00    +0.000 C 
ATOM     13  C   UNL     1     -10.500   3.414 130.941  0.00  0.00    +0.000 C 
ATOM     14  C   UNL     1      -8.958   3.313 130.848  0.00  0.00    +0.000 C 
ATOM     15  C   UNL     1      -8.243   4.690 131.089  0.00  0.00    +0.000 C 
ATOM     16  C   UNL     1      -6.693   4.571 130.864  0.00  0.00    +0.000 C 
ATOM     17  C   UNL     1      -6.156   3.445 131.758  0.00  0.00    +0.000 C 
ATOM     18  C   UNL     1      -6.855   2.133 131.555  0.00  0.00    +0.000 C 
ATOM     19  C   UNL     1      -6.134   1.046 131.227  0.00  0.00    +0.000 C 
ATOM     20  C   UNL     1      -6.758  -0.288 131.147  0.00  0.00    +0.000 C 
ATOM     21  O   UNL     1      -6.086  -1.249 130.785  0.00  0.00    +0.000 OA
ATOM     22  C   UNL     1      -8.175  -0.417 131.634  0.00  0.00    +0.000 C 
ATOM     23  C   UNL     1      -8.975   0.808 131.227  0.00  0.00    +0.000 C 
ATOM     24  C   UNL     1      -8.370   2.149 131.726  0.00  0.00    +0.000 C 
ATOM     25  C   UNL     1      -8.687   2.337 133.226  0.00  0.00    +0.000 C 
ENDROOT
BRANCH  16  26
ATOM     26  S   UNL     1      -6.292   4.297 129.096  0.00  0.00    +0.000 S 
BRANCH  26  27
ATOM     27  C   UNL     1      -4.712   4.964 128.758  0.00  0.00    +0.000 C 
ATOM     28  C   UNL     1      -3.476   4.462 129.437  0.00  0.00    +0.000 C 
ATOM     29  O   UNL     1      -4.629   5.871 127.932  0.00  0.00    +0.000 OA
ENDBRANCH  26  27
ENDBRANCH  16  26
TORSDOF 2
ENDMDL
MODEL 8
REMARK VINA RESULT:      -7.5      2.747      5.687
REMARK  Name = Spironolactone
REMARK  5 active torsions:
REMARK  status: ('A' for Active; 'I' for Inactive)
REMARK    1  A    between atoms: C_11  and  C_12
REMARK    2  A    between atoms: C_19  and  S_30
REMARK    3  A    between atoms: C_28  and  C_29
REMARK    4  A    between atoms: S_30  and  C_31
REMARK    5  A    between atoms: C_31  and  C_32
REMARK                            x       y       z     vdW  Elec       q    Type
REMARK                         _______ _______ _______ _____ _____    ______ ____
ROOT
ATOM      1  C   UNL     1      -6.052   1.838 127.764  0.00  0.00    +0.000 C 
ATOM      2  C   UNL     1      -5.784   1.988 129.262  0.00  0.00    +0.000 C 
ATOM      3  C   UNL     1      -4.933   3.272 129.376  0.00  0.00    +0.000 C 
ATOM      4  C   UNL     1      -4.804   3.830 127.930  0.00  0.00    +0.000 C 
ATOM      5  C   UNL     1      -3.471   3.409 127.311  0.00  0.00    +0.000 C 
ATOM      6  C   UNL     1      -2.540   4.522 127.730  0.00  0.00    +0.000 C 
ATOM      7  C   UNL     1      -3.471   5.690 127.831  0.00  0.00    +0.000 C 
ATOM      8  O   UNL     1      -3.139   6.859 127.860  0.00  0.00    +0.000 OA
ATOM      9  O   UNL     1      -4.762   5.256 127.927  0.00  0.00    +0.000 OA
ATOM     10  C   UNL     1      -6.096   3.291 127.257  0.00  0.00    +0.000 C 
ATOM     11  C   UNL     1      -7.324   4.098 127.773  0.00  0.00    +0.000 C 
ATOM     12  C   UNL     1      -6.140   3.280 125.723  0.00  0.00    +0.000 C 
ATOM     13  C   UNL     1      -7.346   2.485 125.212  0.00  0.00    +0.000 C 
ATOM     14  C   UNL     1      -7.362   1.033 125.749  0.00  0.00    +0.000 C 
ATOM     15  C   UNL     1      -7.233   0.961 127.313  0.00  0.00    +0.000 C 
ATOM     16  C   UNL     1      -7.128  -0.527 127.805  0.00  0.00    +0.000 C 
ATOM     17  C   UNL     1      -8.333  -1.307 127.260  0.00  0.00    +0.000 C 
ATOM     18  C   UNL     1      -8.480  -1.218 125.769  0.00  0.00    +0.000 C 
ATOM     19  C   UNL     1      -8.513  -2.349 125.043  0.00  0.00    +0.000 C 
ATOM     20  C   UNL     1      -8.788  -2.317 123.594  0.00  0.00    +0.000 C 
ATOM     21  O   UNL     1      -8.750  -3.359 122.948  0.00  0.00    +0.000 OA
ATOM     22  C   UNL     1      -9.222  -1.003 123.003  0.00  0.00    +0.000 C 
ATOM     23  C   UNL     1      -8.442   0.134 123.641  0.00  0.00    +0.000 C 
ATOM     24  C   UNL     1      -8.565   0.189 125.189  0.00  0.00    +0.000 C 
ATOM     25  C   UNL     1      -9.930   0.795 125.581  0.00  0.00    +0.000 C 
ENDROOT
BRANCH  16  26
ATOM     26  S   UNL     1      -5.535  -1.286 127.308  0.00  0.00    +0.000 S 
BRANCH  26  27
ATOM     27  C   UNL     1      -4.823  -2.079 128.694  0.00  0.00    +0.000 C 
ATOM     28  C   UNL     1      -4.870  -1.477 130.064  0.00  0.00    +0.000 C 
ATOM     29  O   UNL     1      -4.275  -3.166 128.523  0.00  0.00    +0.000 OA
ENDBRANCH  26  27
ENDBRANCH  16  26
TORSDOF 2
ENDMDL
MODEL 9
REMARK VINA RESULT:      -7.5      2.460      5.270
REMARK  Name = Spironolactone
REMARK  5 active torsions:
REMARK  status: ('A' for Active; 'I' for Inactive)
REMARK    1  A    between atoms: C_11  and  C_12
REMARK    2  A    between atoms: C_19  and  S_30
REMARK    3  A    between atoms: C_28  and  C_29
REMARK    4  A    between atoms: S_30  and  C_31
REMARK    5  A    between atoms: C_31  and  C_32
REMARK                            x       y       z     vdW  Elec       q    Type
REMARK                         _______ _______ _______ _____ _____    ______ ____
ROOT
ATOM      1  C   UNL     1      -6.480   0.705 128.769  0.00  0.00    +0.000 C 
ATOM      2  C   UNL     1      -5.615   1.938 129.033  0.00  0.00    +0.000 C 
ATOM      3  C   UNL     1      -5.594   2.074 130.572  0.00  0.00    +0.000 C 
ATOM      4  C   UNL     1      -6.408   0.868 131.119  0.00  0.00    +0.000 C 
ATOM      5  C   UNL     1      -7.842   1.292 131.441  0.00  0.00    +0.000 C 
ATOM      6  C   UNL     1      -7.740   1.760 132.873  0.00  0.00    +0.000 C 
ATOM      7  C   UNL     1      -6.617   0.922 133.399  0.00  0.00    +0.000 C 
ATOM      8  O   UNL     1      -6.360   0.741 134.574  0.00  0.00    +0.000 OA
ATOM      9  O   UNL     1      -5.885   0.412 132.366  0.00  0.00    +0.000 OA
ATOM     10  C   UNL     1      -6.220  -0.188 129.995  0.00  0.00    +0.000 C 
ATOM     11  C   UNL     1      -4.773  -0.759 130.059  0.00  0.00    +0.000 C 
ATOM     12  C   UNL     1      -7.201  -1.369 129.967  0.00  0.00    +0.000 C 
ATOM     13  C   UNL     1      -7.061  -2.168 128.667  0.00  0.00    +0.000 C 
ATOM     14  C   UNL     1      -7.262  -1.286 127.410  0.00  0.00    +0.000 C 
ATOM     15  C   UNL     1      -6.349  -0.008 127.412  0.00  0.00    +0.000 C 
ATOM     16  C   UNL     1      -6.672   0.920 126.187  0.00  0.00    +0.000 C 
ATOM     17  C   UNL     1      -6.550   0.091 124.901  0.00  0.00    +0.000 C 
ATOM     18  C   UNL     1      -7.396  -1.148 124.905  0.00  0.00    +0.000 C 
ATOM     19  C   UNL     1      -8.289  -1.338 123.917  0.00  0.00    +0.000 C 
ATOM     20  C   UNL     1      -9.047  -2.598 123.806  0.00  0.00    +0.000 C 
ATOM     21  O   UNL     1      -9.899  -2.717 122.931  0.00  0.00    +0.000 OA
ATOM     22  C   UNL     1      -8.644  -3.728 124.713  0.00  0.00    +0.000 C 
ATOM     23  C   UNL     1      -8.291  -3.187 126.088  0.00  0.00    +0.000 C 
ATOM     24  C   UNL     1      -7.176  -2.104 126.071  0.00  0.00    +0.000 C 
ATOM     25  C   UNL     1      -5.799  -2.779 125.892  0.00  0.00    +0.000 C 
ENDROOT
BRANCH  16  26
ATOM     26  S   UNL     1      -8.326   1.696 126.352  0.00  0.00    +0.000 S 
BRANCH  26  27
ATOM     27  C   UNL     1      -8.195   3.402 125.990  0.00  0.00    +0.000 C 
ATOM     28  C   UNL     1      -7.361   4.328 126.821  0.00  0.00    +0.000 C 
ATOM     29  O   UNL     1      -8.808   3.838 125.018  0.00  0.00    +0.000 OA
ENDBRANCH  26  27
ENDBRANCH  16  26
TORSDOF 2
ENDMDL
