MODEL 1
REMARK VINA RESULT:      -7.1      0.000      0.000
REMARK  Name = Spirapril
REMARK  13 active torsions:
REMARK  status: ('A' for Active; 'I' for Inactive)
REMARK    1  A    between atoms: C_1  and  C_2
REMARK    2  A    between atoms: C_2  and  O_3
REMARK    3  A    between atoms: O_3  and  C_4
REMARK    4  A    between atoms: C_4  and  C_6
REMARK    5  A    between atoms: C_6  and  C_7
REMARK    6  A    between atoms: C_6  and  N_15
REMARK    7  A    between atoms: C_7  and  C_8
REMARK    8  A    between atoms: C_8  and  C_9
REMARK    9  A    between atoms: N_15  and  CA_16
REMARK   10  A    between atoms: CA_16  and  CB_17
REMARK   11  A    between atoms: CA_16  and  C_18
REMARK   12  A    between atoms: C_24  and  C_25
REMARK   13  A    between atoms: C_25  and  O_26
REMARK                            x       y       z     vdW  Elec       q    Type
REMARK                         _______ _______ _______ _____ _____    ______ ____
ROOT
ATOM      1  CA  ALA A   1      -7.314   4.016 125.636  0.00  0.00    +0.000 C 
ATOM      2  CB  ALA A   1      -6.723   5.226 125.107  0.00  0.00    +0.000 C 
ENDROOT
BRANCH   1   3
ATOM      3  C   ALA A   1      -7.376   4.135 127.145  0.00  0.00    +0.000 C 
ATOM      4  O   ALA A   1      -8.270   4.743 127.735  0.00  0.00    +0.000 OA
ATOM      5  N   UNK A   2      -6.552   3.200 127.775  0.00  0.00    +0.000 N 
ATOM      6  C   UNK A   2      -7.108   2.530 128.919  0.00  0.00    +0.000 C 
ATOM      7  C   UNK A   2      -6.115   1.399 129.182  0.00  0.00    +0.000 C 
ATOM      8  C   UNK A   2      -4.907   1.627 128.310  0.00  0.00    +0.000 C 
ATOM      9  C   UNK A   2      -5.081   3.076 127.868  0.00  0.00    +0.000 C 
ATOM     10  S   UNK A   2      -6.903  -0.142 128.675  0.00  0.00    +0.000 S 
ATOM     11  C   UNK A   2      -6.625  -0.998 130.210  0.00  0.00    +0.000 C 
ATOM     12  C   UNK A   2      -6.447  -0.027 131.364  0.00  0.00    +0.000 C 
ATOM     13  S   UNK A   2      -5.483   1.385 130.860  0.00  0.00    +0.000 S 
BRANCH   9  14
ATOM     14  C   UNK A   2      -4.073   3.084 126.762  0.00  0.00    +0.000 C 
ATOM     15  O   UNK A   2      -3.570   4.110 126.280  0.00  0.00    +0.000 OA
BRANCH  14  16
ATOM     16  O   UNK A   2      -3.633   1.833 126.479  0.00  0.00    +0.000 OA
ATOM     17  H   UNK A   2      -2.924   1.497 127.071  0.00  0.00    +0.000 HD
ENDBRANCH  14  16
ENDBRANCH   9  14
ENDBRANCH   1   3
BRANCH   1  18
ATOM     18  N   ALA A   1      -8.562   4.014 124.862  0.00  0.00    +0.000 NA
ATOM     19  H   ALA A   1      -9.276   4.434 125.460  0.00  0.00    +0.000 HD
BRANCH  18  20
ATOM     20  C   UNK A   0      -9.042   2.634 124.353  0.00  0.00    +0.000 C 
BRANCH  20  21
ATOM     21  C   UNK A   0      -8.922   1.304 125.330  0.00  0.00    +0.000 C 
ATOM     22  O   UNK A   0      -9.442   1.223 126.450  0.00  0.00    +0.000 OA
BRANCH  21  23
ATOM     23  O   UNK A   0      -8.173   0.246 124.830  0.00  0.00    +0.000 OA
BRANCH  23  25
ATOM     24  C   UNK A   0      -8.533  -2.146 125.608  0.00  0.00    +0.000 C 
ATOM     25  C   UNK A   0      -8.843  -1.036 124.587  0.00  0.00    +0.000 C 
ENDBRANCH  23  25
ENDBRANCH  21  23
ENDBRANCH  20  21
BRANCH  20  26
ATOM     26  C   UNK A   0      -8.201   2.330 123.095  0.00  0.00    +0.000 C 
BRANCH  26  27
ATOM     27  C   UNK A   0      -8.698   3.021 121.817  0.00  0.00    +0.000 C 
BRANCH  27  28
ATOM     28  C   UNK A   0      -7.556   3.660 121.092  0.00  0.00    +0.000 A 
ATOM     29  C   UNK A   0      -6.305   3.745 121.709  0.00  0.00    +0.000 A 
ATOM     30  C   UNK A   0      -5.263   4.399 121.067  0.00  0.00    +0.000 A 
ATOM     31  C   UNK A   0      -5.446   4.893 119.776  0.00  0.00    +0.000 A 
ATOM     32  C   UNK A   0      -6.683   4.777 119.142  0.00  0.00    +0.000 A 
ATOM     33  C   UNK A   0      -7.742   4.168 119.802  0.00  0.00    +0.000 A 
ENDBRANCH  27  28
ENDBRANCH  26  27
ENDBRANCH  20  26
ENDBRANCH  18  20
ENDBRANCH   1  18
TORSDOF 11
ENDMDL
MODEL 2
REMARK VINA RESULT:      -7.0      4.186      7.539
REMARK  Name = Spirapril
REMARK  13 active torsions:
REMARK  status: ('A' for Active; 'I' for Inactive)
REMARK    1  A    between atoms: C_1  and  C_2
REMARK    2  A    between atoms: C_2  and  O_3
REMARK    3  A    between atoms: O_3  and  C_4
REMARK    4  A    between atoms: C_4  and  C_6
REMARK    5  A    between atoms: C_6  and  C_7
REMARK    6  A    between atoms: C_6  and  N_15
REMARK    7  A    between atoms: C_7  and  C_8
REMARK    8  A    between atoms: C_8  and  C_9
REMARK    9  A    between atoms: N_15  and  CA_16
REMARK   10  A    between atoms: CA_16  and  CB_17
REMARK   11  A    between atoms: CA_16  and  C_18
REMARK   12  A    between atoms: C_24  and  C_25
REMARK   13  A    between atoms: C_25  and  O_26
REMARK                            x       y       z     vdW  Elec       q    Type
REMARK                         _______ _______ _______ _____ _____    ______ ____
ROOT
ATOM      1  CA  ALA A   1      -8.303   4.005 128.762  0.00  0.00    +0.000 C 
ATOM      2  CB  ALA A   1      -7.511   4.645 129.789  0.00  0.00    +0.000 C 
ENDROOT
BRANCH   1   3
ATOM      3  C   ALA A   1      -7.538   2.803 128.247  0.00  0.00    +0.000 C 
ATOM      4  O   ALA A   1      -7.200   1.862 128.967  0.00  0.00    +0.000 OA
ATOM      5  N   UNK A   2      -7.588   2.711 126.854  0.00  0.00    +0.000 N 
ATOM      6  C   UNK A   2      -7.816   1.401 126.311  0.00  0.00    +0.000 C 
ATOM      7  C   UNK A   2      -8.111   1.677 124.837  0.00  0.00    +0.000 C 
ATOM      8  C   UNK A   2      -7.801   3.126 124.563  0.00  0.00    +0.000 C 
ATOM      9  C   UNK A   2      -6.980   3.530 125.783  0.00  0.00    +0.000 C 
ATOM     10  S   UNK A   2      -9.875   1.411 124.579  0.00  0.00    +0.000 S 
ATOM     11  C   UNK A   2      -9.689   0.287 123.212  0.00  0.00    +0.000 C 
ATOM     12  C   UNK A   2      -8.331  -0.392 123.233  0.00  0.00    +0.000 C 
ATOM     13  S   UNK A   2      -7.057   0.755 123.717  0.00  0.00    +0.000 S 
BRANCH   9  14
ATOM     14  C   UNK A   2      -7.037   5.013 125.597  0.00  0.00    +0.000 C 
ATOM     15  O   UNK A   2      -6.048   5.732 125.386  0.00  0.00    +0.000 OA
BRANCH  14  16
ATOM     16  O   UNK A   2      -8.315   5.455 125.497  0.00  0.00    +0.000 OA
ATOM     17  H   UNK A   2      -8.453   6.393 125.755  0.00  0.00    +0.000 HD
ENDBRANCH  14  16
ENDBRANCH   9  14
ENDBRANCH   1   3
BRANCH   1  18
ATOM     18  N   ALA A   1      -9.541   3.797 129.524  0.00  0.00    +0.000 NA
ATOM     19  H   ALA A   1     -10.225   4.460 129.155  0.00  0.00    +0.000 HD
BRANCH  18  20
ATOM     20  C   UNK A   0      -9.427   3.950 131.058  0.00  0.00    +0.000 C 
BRANCH  20  21
ATOM     21  C   UNK A   0      -9.541   2.618 132.034  0.00  0.00    +0.000 C 
ATOM     22  O   UNK A   0      -9.849   1.491 131.627  0.00  0.00    +0.000 OA
BRANCH  21  23
ATOM     23  O   UNK A   0      -9.283   2.827 133.383  0.00  0.00    +0.000 OA
BRANCH  23  25
ATOM     24  C   UNK A   0      -8.066   4.610 134.723  0.00  0.00    +0.000 C 
ATOM     25  C   UNK A   0      -7.990   3.404 133.769  0.00  0.00    +0.000 C 
ENDBRANCH  23  25
ENDBRANCH  21  23
ENDBRANCH  20  21
BRANCH  20  26
ATOM     26  C   UNK A   0     -10.570   4.898 131.477  0.00  0.00    +0.000 C 
BRANCH  26  27
ATOM     27  C   UNK A   0     -10.171   6.379 131.555  0.00  0.00    +0.000 C 
BRANCH  27  28
ATOM     28  C   UNK A   0     -10.815   7.152 130.449  0.00  0.00    +0.000 A 
ATOM     29  C   UNK A   0     -10.039   7.611 129.382  0.00  0.00    +0.000 A 
ATOM     30  C   UNK A   0     -10.622   8.388 128.390  0.00  0.00    +0.000 A 
ATOM     31  C   UNK A   0     -11.994   8.635 128.420  0.00  0.00    +0.000 A 
ATOM     32  C   UNK A   0     -12.778   8.147 129.464  0.00  0.00    +0.000 A 
ATOM     33  C   UNK A   0     -12.189   7.411 130.485  0.00  0.00    +0.000 A 
ENDBRANCH  27  28
ENDBRANCH  26  27
ENDBRANCH  20  26
ENDBRANCH  18  20
ENDBRANCH   1  18
TORSDOF 11
ENDMDL
MODEL 3
REMARK VINA RESULT:      -7.0      1.622      2.109
REMARK  Name = Spirapril
REMARK  13 active torsions:
REMARK  status: ('A' for Active; 'I' for Inactive)
REMARK    1  A    between atoms: C_1  and  C_2
REMARK    2  A    between atoms: C_2  and  O_3
REMARK    3  A    between atoms: O_3  and  C_4
REMARK    4  A    between atoms: C_4  and  C_6
REMARK    5  A    between atoms: C_6  and  C_7
REMARK    6  A    between atoms: C_6  and  N_15
REMARK    7  A    between atoms: C_7  and  C_8
REMARK    8  A    between atoms: C_8  and  C_9
REMARK    9  A    between atoms: N_15  and  CA_16
REMARK   10  A    between atoms: CA_16  and  CB_17
REMARK   11  A    between atoms: CA_16  and  C_18
REMARK   12  A    between atoms: C_24  and  C_25
REMARK   13  A    between atoms: C_25  and  O_26
REMARK                            x       y       z     vdW  Elec       q    Type
REMARK                         _______ _______ _______ _____ _____    ______ ____
ROOT
ATOM      1  CA  ALA A   1      -8.023   2.279 126.324  0.00  0.00    +0.000 C 
ATOM      2  CB  ALA A   1      -7.725   3.680 126.119  0.00  0.00    +0.000 C 
ENDROOT
BRANCH   1   3
ATOM      3  C   ALA A   1      -8.160   2.033 127.813  0.00  0.00    +0.000 C 
ATOM      4  O   ALA A   1      -9.133   2.408 128.469  0.00  0.00    +0.000 OA
ATOM      5  N   UNK A   2      -7.278   1.048 128.261  0.00  0.00    +0.000 N 
ATOM      6  C   UNK A   2      -7.815   0.083 129.181  0.00  0.00    +0.000 C 
ATOM      7  C   UNK A   2      -6.728  -0.991 129.238  0.00  0.00    +0.000 C 
ATOM      8  C   UNK A   2      -5.512  -0.463 128.522  0.00  0.00    +0.000 C 
ATOM      9  C   UNK A   2      -5.806   1.029 128.416  0.00  0.00    +0.000 C 
ATOM     10  S   UNK A   2      -7.342  -2.429 128.340  0.00  0.00    +0.000 S 
ATOM     11  C   UNK A   2      -7.048  -3.597 129.650  0.00  0.00    +0.000 C 
ATOM     12  C   UNK A   2      -7.013  -2.914 131.006  0.00  0.00    +0.000 C 
ATOM     13  S   UNK A   2      -6.170  -1.348 130.904  0.00  0.00    +0.000 S 
BRANCH   9  14
ATOM     14  C   UNK A   2      -4.758   1.383 127.409  0.00  0.00    +0.000 C 
ATOM     15  O   UNK A   2      -4.857   1.173 126.190  0.00  0.00    +0.000 OA
BRANCH  14  16
ATOM     16  O   UNK A   2      -3.771   2.133 127.959  0.00  0.00    +0.000 OA
ATOM     17  H   UNK A   2      -4.076   2.843 128.565  0.00  0.00    +0.000 HD
ENDBRANCH  14  16
ENDBRANCH   9  14
ENDBRANCH   1   3
BRANCH   1  18
ATOM     18  N   ALA A   1      -9.208   2.170 125.465  0.00  0.00    +0.000 NA
ATOM     19  H   ALA A   1     -10.021   2.232 126.080  0.00  0.00    +0.000 HD
BRANCH  18  20
ATOM     20  C   UNK A   0      -9.298   0.895 124.593  0.00  0.00    +0.000 C 
BRANCH  20  21
ATOM     21  C   UNK A   0      -8.601  -0.514 125.112  0.00  0.00    +0.000 C 
ATOM     22  O   UNK A   0      -7.380  -0.705 125.146  0.00  0.00    +0.000 OA
BRANCH  21  23
ATOM     23  O   UNK A   0      -9.477  -1.516 125.509  0.00  0.00    +0.000 OA
BRANCH  23  25
ATOM     24  C   UNK A   0      -9.376  -3.045 123.482  0.00  0.00    +0.000 C 
ATOM     25  C   UNK A   0      -9.259  -2.878 125.008  0.00  0.00    +0.000 C 
ENDBRANCH  23  25
ENDBRANCH  21  23
ENDBRANCH  20  21
BRANCH  20  26
ATOM     26  C   UNK A   0      -8.623   1.248 123.252  0.00  0.00    +0.000 C 
BRANCH  26  27
ATOM     27  C   UNK A   0      -9.002   2.628 122.694  0.00  0.00    +0.000 C 
BRANCH  27  28
ATOM     28  C   UNK A   0      -7.872   3.197 121.897  0.00  0.00    +0.000 A 
ATOM     29  C   UNK A   0      -6.582   3.207 122.434  0.00  0.00    +0.000 A 
ATOM     30  C   UNK A   0      -5.544   3.797 121.725  0.00  0.00    +0.000 A 
ATOM     31  C   UNK A   0      -5.778   4.301 120.446  0.00  0.00    +0.000 A 
ATOM     32  C   UNK A   0      -7.057   4.259 119.891  0.00  0.00    +0.000 A 
ATOM     33  C   UNK A   0      -8.107   3.715 120.619  0.00  0.00    +0.000 A 
ENDBRANCH  27  28
ENDBRANCH  26  27
ENDBRANCH  20  26
ENDBRANCH  18  20
ENDBRANCH   1  18
TORSDOF 11
ENDMDL
MODEL 4
REMARK VINA RESULT:      -6.8      4.314      7.086
REMARK  Name = Spirapril
REMARK  13 active torsions:
REMARK  status: ('A' for Active; 'I' for Inactive)
REMARK    1  A    between atoms: C_1  and  C_2
REMARK    2  A    between atoms: C_2  and  O_3
REMARK    3  A    between atoms: O_3  and  C_4
REMARK    4  A    between atoms: C_4  and  C_6
REMARK    5  A    between atoms: C_6  and  C_7
REMARK    6  A    between atoms: C_6  and  N_15
REMARK    7  A    between atoms: C_7  and  C_8
REMARK    8  A    between atoms: C_8  and  C_9
REMARK    9  A    between atoms: N_15  and  CA_16
REMARK   10  A    between atoms: CA_16  and  CB_17
REMARK   11  A    between atoms: CA_16  and  C_18
REMARK   12  A    between atoms: C_24  and  C_25
REMARK   13  A    between atoms: C_25  and  O_26
REMARK                            x       y       z     vdW  Elec       q    Type
REMARK                         _______ _______ _______ _____ _____    ______ ____
ROOT
ATOM      1  CA  ALA A   1      -6.897   4.687 130.057  0.00  0.00    +0.000 C 
ATOM      2  CB  ALA A   1      -5.687   4.308 130.754  0.00  0.00    +0.000 C 
ENDROOT
BRANCH   1   3
ATOM      3  C   ALA A   1      -7.634   5.708 130.900  0.00  0.00    +0.000 C 
ATOM      4  O   ALA A   1      -7.061   6.598 131.531  0.00  0.00    +0.000 OA
ATOM      5  N   UNK A   2      -8.994   5.755 130.589  0.00  0.00    +0.000 N 
ATOM      6  C   UNK A   2      -9.578   7.064 130.486  0.00  0.00    +0.000 C 
ATOM      7  C   UNK A   2     -10.946   6.791 129.860  0.00  0.00    +0.000 C 
ATOM      8  C   UNK A   2     -11.167   5.300 129.854  0.00  0.00    +0.000 C 
ATOM      9  C   UNK A   2     -10.099   4.799 130.821  0.00  0.00    +0.000 C 
ATOM     10  S   UNK A   2     -10.883   7.366 128.152  0.00  0.00    +0.000 S 
ATOM     11  C   UNK A   2     -12.338   8.385 128.253  0.00  0.00    +0.000 C 
ATOM     12  C   UNK A   2     -12.625   8.804 129.683  0.00  0.00    +0.000 C 
ATOM     13  S   UNK A   2     -12.309   7.462 130.812  0.00  0.00    +0.000 S 
BRANCH   9  14
ATOM     14  C   UNK A   2     -10.162   3.346 130.474  0.00  0.00    +0.000 C 
ATOM     15  O   UNK A   2      -9.731   2.857 129.418  0.00  0.00    +0.000 OA
BRANCH  14  16
ATOM     16  O   UNK A   2     -10.572   2.598 131.529  0.00  0.00    +0.000 OA
ATOM     17  H   UNK A   2      -9.890   1.998 131.903  0.00  0.00    +0.000 HD
ENDBRANCH  14  16
ENDBRANCH   9  14
ENDBRANCH   1   3
BRANCH   1  18
ATOM     18  N   ALA A   1      -6.304   5.102 128.780  0.00  0.00    +0.000 NA
ATOM     19  H   ALA A   1      -6.927   4.762 128.045  0.00  0.00    +0.000 HD
BRANCH  18  20
ATOM     20  C   UNK A   0      -4.859   4.619 128.514  0.00  0.00    +0.000 C 
BRANCH  20  21
ATOM     21  C   UNK A   0      -3.654   5.721 128.245  0.00  0.00    +0.000 C 
ATOM     22  O   UNK A   0      -2.453   5.429 128.188  0.00  0.00    +0.000 OA
BRANCH  21  23
ATOM     23  O   UNK A   0      -4.059   7.041 128.094  0.00  0.00    +0.000 OA
BRANCH  23  25
ATOM     24  C   UNK A   0      -3.954   7.721 130.540  0.00  0.00    +0.000 C 
ATOM     25  C   UNK A   0      -3.601   8.033 129.074  0.00  0.00    +0.000 C 
ENDBRANCH  23  25
ENDBRANCH  21  23
ENDBRANCH  20  21
BRANCH  20  26
ATOM     26  C   UNK A   0      -4.931   3.733 127.253  0.00  0.00    +0.000 C 
BRANCH  26  27
ATOM     27  C   UNK A   0      -5.002   4.514 125.932  0.00  0.00    +0.000 C 
BRANCH  27  28
ATOM     28  C   UNK A   0      -5.688   3.701 124.881  0.00  0.00    +0.000 A 
ATOM     29  C   UNK A   0      -6.287   2.486 125.228  0.00  0.00    +0.000 A 
ATOM     30  C   UNK A   0      -6.864   1.697 124.242  0.00  0.00    +0.000 A 
ATOM     31  C   UNK A   0      -6.917   2.158 122.927  0.00  0.00    +0.000 A 
ATOM     32  C   UNK A   0      -6.353   3.387 122.585  0.00  0.00    +0.000 A 
ATOM     33  C   UNK A   0      -5.731   4.156 123.560  0.00  0.00    +0.000 A 
ENDBRANCH  27  28
ENDBRANCH  26  27
ENDBRANCH  20  26
ENDBRANCH  18  20
ENDBRANCH   1  18
TORSDOF 11
ENDMDL
MODEL 5
REMARK VINA RESULT:      -6.7      2.779      6.429
REMARK  Name = Spirapril
REMARK  13 active torsions:
REMARK  status: ('A' for Active; 'I' for Inactive)
REMARK    1  A    between atoms: C_1  and  C_2
REMARK    2  A    between atoms: C_2  and  O_3
REMARK    3  A    between atoms: O_3  and  C_4
REMARK    4  A    between atoms: C_4  and  C_6
REMARK    5  A    between atoms: C_6  and  C_7
REMARK    6  A    between atoms: C_6  and  N_15
REMARK    7  A    between atoms: C_7  and  C_8
REMARK    8  A    between atoms: C_8  and  C_9
REMARK    9  A    between atoms: N_15  and  CA_16
REMARK   10  A    between atoms: CA_16  and  CB_17
REMARK   11  A    between atoms: CA_16  and  C_18
REMARK   12  A    between atoms: C_24  and  C_25
REMARK   13  A    between atoms: C_25  and  O_26
REMARK                            x       y       z     vdW  Elec       q    Type
REMARK                         _______ _______ _______ _____ _____    ______ ____
ROOT
ATOM      1  CA  ALA A   1      -6.679   1.922 128.095  0.00  0.00    +0.000 C 
ATOM      2  CB  ALA A   1      -6.962   3.310 128.385  0.00  0.00    +0.000 C 
ENDROOT
BRANCH   1   3
ATOM      3  C   ALA A   1      -7.982   1.232 127.746  0.00  0.00    +0.000 C 
ATOM      4  O   ALA A   1      -9.071   1.808 127.755  0.00  0.00    +0.000 OA
ATOM      5  N   UNK A   2      -7.768   0.025 127.076  0.00  0.00    +0.000 N 
ATOM      6  C   UNK A   2      -8.617  -0.234 125.946  0.00  0.00    +0.000 C 
ATOM      7  C   UNK A   2      -7.954  -1.438 125.277  0.00  0.00    +0.000 C 
ATOM      8  C   UNK A   2      -6.883  -1.954 126.202  0.00  0.00    +0.000 C 
ATOM      9  C   UNK A   2      -7.225  -1.276 127.524  0.00  0.00    +0.000 C 
ATOM     10  S   UNK A   2      -7.168  -0.852 123.764  0.00  0.00    +0.000 S 
ATOM     11  C   UNK A   2      -7.935  -2.046 122.690  0.00  0.00    +0.000 C 
ATOM     12  C   UNK A   2      -9.230  -2.574 123.281  0.00  0.00    +0.000 C 
ATOM     13  S   UNK A   2      -9.070  -2.821 125.038  0.00  0.00    +0.000 S 
BRANCH   9  14
ATOM     14  C   UNK A   2      -5.944  -1.553 128.245  0.00  0.00    +0.000 C 
ATOM     15  O   UNK A   2      -5.817  -2.386 129.155  0.00  0.00    +0.000 OA
BRANCH  14  16
ATOM     16  O   UNK A   2      -4.896  -0.924 127.658  0.00  0.00    +0.000 OA
ATOM     17  H   UNK A   2      -4.132  -0.746 128.250  0.00  0.00    +0.000 HD
ENDBRANCH  14  16
ENDBRANCH   9  14
ENDBRANCH   1   3
BRANCH   1  18
ATOM     18  N   ALA A   1      -5.661   2.108 127.054  0.00  0.00    +0.000 NA
ATOM     19  H   ALA A   1      -4.753   2.043 127.518  0.00  0.00    +0.000 HD
BRANCH  18  20
ATOM     20  C   UNK A   0      -5.750   3.424 126.246  0.00  0.00    +0.000 C 
BRANCH  20  21
ATOM     21  C   UNK A   0      -6.507   3.443 124.774  0.00  0.00    +0.000 C 
ATOM     22  O   UNK A   0      -7.722   3.267 124.623  0.00  0.00    +0.000 OA
BRANCH  21  23
ATOM     23  O   UNK A   0      -5.690   3.657 123.672  0.00  0.00    +0.000 OA
BRANCH  23  25
ATOM     24  C   UNK A   0      -5.295   3.763 121.164  0.00  0.00    +0.000 C 
ATOM     25  C   UNK A   0      -6.281   3.574 122.332  0.00  0.00    +0.000 C 
ENDBRANCH  23  25
ENDBRANCH  21  23
ENDBRANCH  20  21
BRANCH  20  26
ATOM     26  C   UNK A   0      -4.294   3.868 125.995  0.00  0.00    +0.000 C 
BRANCH  26  27
ATOM     27  C   UNK A   0      -3.270   3.272 126.972  0.00  0.00    +0.000 C 
BRANCH  27  28
ATOM     28  C   UNK A   0      -3.026   4.211 128.110  0.00  0.00    +0.000 A 
ATOM     29  C   UNK A   0      -3.379   3.832 129.407  0.00  0.00    +0.000 A 
ATOM     30  C   UNK A   0      -3.218   4.729 130.455  0.00  0.00    +0.000 A 
ATOM     31  C   UNK A   0      -2.626   5.970 130.220  0.00  0.00    +0.000 A 
ATOM     32  C   UNK A   0      -2.238   6.336 128.932  0.00  0.00    +0.000 A 
ATOM     33  C   UNK A   0      -2.445   5.461 127.873  0.00  0.00    +0.000 A 
ENDBRANCH  27  28
ENDBRANCH  26  27
ENDBRANCH  20  26
ENDBRANCH  18  20
ENDBRANCH   1  18
TORSDOF 11
ENDMDL
MODEL 6
REMARK VINA RESULT:      -6.7      3.209      5.174
REMARK  Name = Spirapril
REMARK  13 active torsions:
REMARK  status: ('A' for Active; 'I' for Inactive)
REMARK    1  A    between atoms: C_1  and  C_2
REMARK    2  A    between atoms: C_2  and  O_3
REMARK    3  A    between atoms: O_3  and  C_4
REMARK    4  A    between atoms: C_4  and  C_6
REMARK    5  A    between atoms: C_6  and  C_7
REMARK    6  A    between atoms: C_6  and  N_15
REMARK    7  A    between atoms: C_7  and  C_8
REMARK    8  A    between atoms: C_8  and  C_9
REMARK    9  A    between atoms: N_15  and  CA_16
REMARK   10  A    between atoms: CA_16  and  CB_17
REMARK   11  A    between atoms: CA_16  and  C_18
REMARK   12  A    between atoms: C_24  and  C_25
REMARK   13  A    between atoms: C_25  and  O_26
REMARK                            x       y       z     vdW  Elec       q    Type
REMARK                         _______ _______ _______ _____ _____    ______ ____
ROOT
ATOM      1  CA  ALA A   1      -7.731   1.426 125.880  0.00  0.00    +0.000 C 
ATOM      2  CB  ALA A   1      -8.552   0.240 125.775  0.00  0.00    +0.000 C 
ENDROOT
BRANCH   1   3
ATOM      3  C   ALA A   1      -8.160   2.197 127.111  0.00  0.00    +0.000 C 
ATOM      4  O   ALA A   1      -9.122   1.869 127.808  0.00  0.00    +0.000 OA
ATOM      5  N   UNK A   2      -7.160   3.062 127.560  0.00  0.00    +0.000 N 
ATOM      6  C   UNK A   2      -6.939   3.098 128.979  0.00  0.00    +0.000 C 
ATOM      7  C   UNK A   2      -5.630   3.876 129.112  0.00  0.00    +0.000 C 
ATOM      8  C   UNK A   2      -5.291   4.453 127.762  0.00  0.00    +0.000 C 
ATOM      9  C   UNK A   2      -6.603   4.312 126.998  0.00  0.00    +0.000 C 
ATOM     10  S   UNK A   2      -4.344   2.698 129.570  0.00  0.00    +0.000 S 
ATOM     11  C   UNK A   2      -3.768   3.604 130.988  0.00  0.00    +0.000 C 
ATOM     12  C   UNK A   2      -4.844   4.527 131.533  0.00  0.00    +0.000 C 
ATOM     13  S   UNK A   2      -5.754   5.291 130.206  0.00  0.00    +0.000 S 
BRANCH   9  14
ATOM     14  C   UNK A   2      -6.077   4.562 125.620  0.00  0.00    +0.000 C 
ATOM     15  O   UNK A   2      -5.362   3.769 124.988  0.00  0.00    +0.000 OA
BRANCH  14  16
ATOM     16  O   UNK A   2      -6.628   5.672 125.069  0.00  0.00    +0.000 OA
ATOM     17  H   UNK A   2      -7.534   5.551 124.709  0.00  0.00    +0.000 HD
ENDBRANCH  14  16
ENDBRANCH   9  14
ENDBRANCH   1   3
BRANCH   1  18
ATOM     18  N   ALA A   1      -6.407   0.791 125.855  0.00  0.00    +0.000 NA
ATOM     19  H   ALA A   1      -6.033   0.934 124.915  0.00  0.00    +0.000 HD
BRANCH  18  20
ATOM     20  C   UNK A   0      -6.369  -0.712 126.218  0.00  0.00    +0.000 C 
BRANCH  20  21
ATOM     21  C   UNK A   0      -6.081  -1.180 127.779  0.00  0.00    +0.000 C 
ATOM     22  O   UNK A   0      -4.985  -1.581 128.186  0.00  0.00    +0.000 OA
BRANCH  21  23
ATOM     23  O   UNK A   0      -7.166  -1.116 128.644  0.00  0.00    +0.000 OA
BRANCH  23  25
ATOM     24  C   UNK A   0      -8.379  -3.345 128.507  0.00  0.00    +0.000 C 
ATOM     25  C   UNK A   0      -7.576  -2.336 129.348  0.00  0.00    +0.000 C 
ENDBRANCH  23  25
ENDBRANCH  21  23
ENDBRANCH  20  21
BRANCH  20  26
ATOM     26  C   UNK A   0      -5.242  -1.328 125.362  0.00  0.00    +0.000 C 
BRANCH  26  27
ATOM     27  C   UNK A   0      -5.544  -2.738 124.834  0.00  0.00    +0.000 C 
BRANCH  27  28
ATOM     28  C   UNK A   0      -6.910  -2.787 124.228  0.00  0.00    +0.000 A 
ATOM     29  C   UNK A   0      -7.177  -2.061 123.064  0.00  0.00    +0.000 A 
ATOM     30  C   UNK A   0      -8.463  -2.049 122.540  0.00  0.00    +0.000 A 
ATOM     31  C   UNK A   0      -9.458  -2.829 123.127  0.00  0.00    +0.000 A 
ATOM     32  C   UNK A   0      -9.185  -3.584 124.267  0.00  0.00    +0.000 A 
ATOM     33  C   UNK A   0      -7.913  -3.558 124.824  0.00  0.00    +0.000 A 
ENDBRANCH  27  28
ENDBRANCH  26  27
ENDBRANCH  20  26
ENDBRANCH  18  20
ENDBRANCH   1  18
TORSDOF 11
ENDMDL
MODEL 7
REMARK VINA RESULT:      -6.7      4.111      6.407
REMARK  Name = Spirapril
REMARK  13 active torsions:
REMARK  status: ('A' for Active; 'I' for Inactive)
REMARK    1  A    between atoms: C_1  and  C_2
REMARK    2  A    between atoms: C_2  and  O_3
REMARK    3  A    between atoms: O_3  and  C_4
REMARK    4  A    between atoms: C_4  and  C_6
REMARK    5  A    between atoms: C_6  and  C_7
REMARK    6  A    between atoms: C_6  and  N_15
REMARK    7  A    between atoms: C_7  and  C_8
REMARK    8  A    between atoms: C_8  and  C_9
REMARK    9  A    between atoms: N_15  and  CA_16
REMARK   10  A    between atoms: CA_16  and  CB_17
REMARK   11  A    between atoms: CA_16  and  C_18
REMARK   12  A    between atoms: C_24  and  C_25
REMARK   13  A    between atoms: C_25  and  O_26
REMARK                            x       y       z     vdW  Elec       q    Type
REMARK                         _______ _______ _______ _____ _____    ______ ____
ROOT
ATOM      1  CA  ALA A   1      -6.527   5.378 130.334  0.00  0.00    +0.000 C 
ATOM      2  CB  ALA A   1      -6.611   5.964 131.653  0.00  0.00    +0.000 C 
ENDROOT
BRANCH   1   3
ATOM      3  C   ALA A   1      -6.059   3.944 130.477  0.00  0.00    +0.000 C 
ATOM      4  O   ALA A   1      -6.036   3.349 131.556  0.00  0.00    +0.000 OA
ATOM      5  N   UNK A   2      -6.019   3.284 129.247  0.00  0.00    +0.000 N 
ATOM      6  C   UNK A   2      -6.534   1.943 129.227  0.00  0.00    +0.000 C 
ATOM      7  C   UNK A   2      -6.626   1.624 127.734  0.00  0.00    +0.000 C 
ATOM      8  C   UNK A   2      -5.931   2.726 126.978  0.00  0.00    +0.000 C 
ATOM      9  C   UNK A   2      -5.135   3.432 128.070  0.00  0.00    +0.000 C 
ATOM     10  S   UNK A   2      -8.373   1.636 127.286  0.00  0.00    +0.000 S 
ATOM     11  C   UNK A   2      -8.374   0.028 126.525  0.00  0.00    +0.000 C 
ATOM     12  C   UNK A   2      -7.244  -0.838 127.055  0.00  0.00    +0.000 C 
ATOM     13  S   UNK A   2      -5.760   0.123 127.275  0.00  0.00    +0.000 S 
BRANCH   9  14
ATOM     14  C   UNK A   2      -4.790   4.675 127.313  0.00  0.00    +0.000 C 
ATOM     15  O   UNK A   2      -3.646   5.147 127.222  0.00  0.00    +0.000 OA
BRANCH  14  16
ATOM     16  O   UNK A   2      -5.840   5.120 126.579  0.00  0.00    +0.000 OA
ATOM     17  H   UNK A   2      -5.625   5.371 125.654  0.00  0.00    +0.000 HD
ENDBRANCH  14  16
ENDBRANCH   9  14
ENDBRANCH   1   3
BRANCH   1  18
ATOM     18  N   ALA A   1      -7.896   5.646 129.877  0.00  0.00    +0.000 NA
ATOM     19  H   ALA A   1      -7.945   6.647 129.675  0.00  0.00    +0.000 HD
BRANCH  18  20
ATOM     20  C   UNK A   0      -9.027   5.245 130.852  0.00  0.00    +0.000 C 
BRANCH  20  21
ATOM     21  C   UNK A   0      -9.963   3.918 130.533  0.00  0.00    +0.000 C 
ATOM     22  O   UNK A   0     -11.126   3.980 130.117  0.00  0.00    +0.000 OA
BRANCH  21  23
ATOM     23  O   UNK A   0      -9.373   2.684 130.775  0.00  0.00    +0.000 OA
BRANCH  23  25
ATOM     24  C   UNK A   0      -9.308   2.913 133.305  0.00  0.00    +0.000 C 
ATOM     25  C   UNK A   0      -9.602   2.038 132.073  0.00  0.00    +0.000 C 
ENDBRANCH  23  25
ENDBRANCH  21  23
ENDBRANCH  20  21
BRANCH  20  26
ATOM     26  C   UNK A   0      -9.986   6.452 130.910  0.00  0.00    +0.000 C 
BRANCH  26  27
ATOM     27  C   UNK A   0      -9.794   7.472 129.777  0.00  0.00    +0.000 C 
BRANCH  27  28
ATOM     28  C   UNK A   0     -10.902   7.358 128.779  0.00  0.00    +0.000 A 
ATOM     29  C   UNK A   0     -12.212   7.154 129.220  0.00  0.00    +0.000 A 
ATOM     30  C   UNK A   0     -13.231   6.978 128.294  0.00  0.00    +0.000 A 
ATOM     31  C   UNK A   0     -12.957   7.092 126.931  0.00  0.00    +0.000 A 
ATOM     32  C   UNK A   0     -11.656   7.333 126.489  0.00  0.00    +0.000 A 
ATOM     33  C   UNK A   0     -10.625   7.459 127.412  0.00  0.00    +0.000 A 
ENDBRANCH  27  28
ENDBRANCH  26  27
ENDBRANCH  20  26
ENDBRANCH  18  20
ENDBRANCH   1  18
TORSDOF 11
ENDMDL
MODEL 8
REMARK VINA RESULT:      -6.6      3.793      6.946
REMARK  Name = Spirapril
REMARK  13 active torsions:
REMARK  status: ('A' for Active; 'I' for Inactive)
REMARK    1  A    between atoms: C_1  and  C_2
REMARK    2  A    between atoms: C_2  and  O_3
REMARK    3  A    between atoms: O_3  and  C_4
REMARK    4  A    between atoms: C_4  and  C_6
REMARK    5  A    between atoms: C_6  and  C_7
REMARK    6  A    between atoms: C_6  and  N_15
REMARK    7  A    between atoms: C_7  and  C_8
REMARK    8  A    between atoms: C_8  and  C_9
REMARK    9  A    between atoms: N_15  and  CA_16
REMARK   10  A    between atoms: CA_16  and  CB_17
REMARK   11  A    between atoms: CA_16  and  C_18
REMARK   12  A    between atoms: C_24  and  C_25
REMARK   13  A    between atoms: C_25  and  O_26
REMARK                            x       y       z     vdW  Elec       q    Type
REMARK                         _______ _______ _______ _____ _____    ______ ____
ROOT
ATOM      1  CA  ALA A   1      -7.530   4.380 128.973  0.00  0.00    +0.000 C 
ATOM      2  CB  ALA A   1      -7.087   4.642 130.324  0.00  0.00    +0.000 C 
ENDROOT
BRANCH   1   3
ATOM      3  C   ALA A   1      -6.615   3.340 128.361  0.00  0.00    +0.000 C 
ATOM      4  O   ALA A   1      -5.814   2.677 129.024  0.00  0.00    +0.000 OA
ATOM      5  N   UNK A   2      -7.030   2.967 127.081  0.00  0.00    +0.000 N 
ATOM      6  C   UNK A   2      -6.991   1.562 126.783  0.00  0.00    +0.000 C 
ATOM      7  C   UNK A   2      -7.765   1.460 125.468  0.00  0.00    +0.000 C 
ATOM      8  C   UNK A   2      -8.005   2.858 124.959  0.00  0.00    +0.000 C 
ATOM      9  C   UNK A   2      -7.035   3.690 125.790  0.00  0.00    +0.000 C 
ATOM     10  S   UNK A   2      -9.360   0.704 125.837  0.00  0.00    +0.000 S 
ATOM     11  C   UNK A   2      -9.236  -0.579 124.610  0.00  0.00    +0.000 C 
ATOM     12  C   UNK A   2      -7.790  -0.868 124.251  0.00  0.00    +0.000 C 
ATOM     13  S   UNK A   2      -6.845   0.640 124.166  0.00  0.00    +0.000 S 
BRANCH   9  14
ATOM     14  C   UNK A   2      -7.593   5.042 125.481  0.00  0.00    +0.000 C 
ATOM     15  O   UNK A   2      -8.723   5.429 125.819  0.00  0.00    +0.000 OA
BRANCH  14  16
ATOM     16  O   UNK A   2      -6.651   5.863 124.954  0.00  0.00    +0.000 OA
ATOM     17  H   UNK A   2      -5.887   5.406 124.537  0.00  0.00    +0.000 HD
ENDBRANCH  14  16
ENDBRANCH   9  14
ENDBRANCH   1   3
BRANCH   1  18
ATOM     18  N   ALA A   1      -8.929   4.031 129.255  0.00  0.00    +0.000 NA
ATOM     19  H   ALA A   1      -9.499   4.795 128.887  0.00  0.00    +0.000 HD
BRANCH  18  20
ATOM     20  C   UNK A   0      -9.278   3.775 130.739  0.00  0.00    +0.000 C 
BRANCH  20  21
ATOM     21  C   UNK A   0      -9.460   2.226 131.292  0.00  0.00    +0.000 C 
ATOM     22  O   UNK A   0     -10.108   1.927 132.302  0.00  0.00    +0.000 OA
BRANCH  21  23
ATOM     23  O   UNK A   0      -8.818   1.238 130.556  0.00  0.00    +0.000 OA
BRANCH  23  25
ATOM     24  C   UNK A   0      -7.021  -0.483 131.075  0.00  0.00    +0.000 C 
ATOM     25  C   UNK A   0      -8.486  -0.028 131.219  0.00  0.00    +0.000 C 
ENDBRANCH  23  25
ENDBRANCH  21  23
ENDBRANCH  20  21
BRANCH  20  26
ATOM     26  C   UNK A   0     -10.622   4.489 130.989  0.00  0.00    +0.000 C 
BRANCH  26  27
ATOM     27  C   UNK A   0     -10.491   5.930 131.505  0.00  0.00    +0.000 C 
BRANCH  27  28
ATOM     28  C   UNK A   0     -10.981   6.899 130.477  0.00  0.00    +0.000 A 
ATOM     29  C   UNK A   0     -10.114   7.340 129.473  0.00  0.00    +0.000 A 
ATOM     30  C   UNK A   0     -10.545   8.292 128.560  0.00  0.00    +0.000 A 
ATOM     31  C   UNK A   0     -11.865   8.741 128.597  0.00  0.00    +0.000 A 
ATOM     32  C   UNK A   0     -12.743   8.275 129.575  0.00  0.00    +0.000 A 
ATOM     33  C   UNK A   0     -12.300   7.359 130.521  0.00  0.00    +0.000 A 
ENDBRANCH  27  28
ENDBRANCH  26  27
ENDBRANCH  20  26
ENDBRANCH  18  20
ENDBRANCH   1  18
TORSDOF 11
ENDMDL
MODEL 9
REMARK VINA RESULT:      -6.6      4.545      7.228
REMARK  Name = Spirapril
REMARK  13 active torsions:
REMARK  status: ('A' for Active; 'I' for Inactive)
REMARK    1  A    between atoms: C_1  and  C_2
REMARK    2  A    between atoms: C_2  and  O_3
REMARK    3  A    between atoms: O_3  and  C_4
REMARK    4  A    between atoms: C_4  and  C_6
REMARK    5  A    between atoms: C_6  and  C_7
REMARK    6  A    between atoms: C_6  and  N_15
REMARK    7  A    between atoms: C_7  and  C_8
REMARK    8  A    between atoms: C_8  and  C_9
REMARK    9  A    between atoms: N_15  and  CA_16
REMARK   10  A    between atoms: CA_16  and  CB_17
REMARK   11  A    between atoms: CA_16  and  C_18
REMARK   12  A    between atoms: C_24  and  C_25
REMARK   13  A    between atoms: C_25  and  O_26
REMARK                            x       y       z     vdW  Elec       q    Type
REMARK                         _______ _______ _______ _____ _____    ______ ____
ROOT
ATOM      1  CA  ALA A   1      -8.128   2.512 128.758  0.00  0.00    +0.000 C 
ATOM      2  CB  ALA A   1      -8.527   1.545 127.759  0.00  0.00    +0.000 C 
ENDROOT
BRANCH   1   3
ATOM      3  C   ALA A   1      -7.389   3.638 128.064  0.00  0.00    +0.000 C 
ATOM      4  O   ALA A   1      -7.953   4.642 127.626  0.00  0.00    +0.000 OA
ATOM      5  N   UNK A   2      -6.015   3.586 128.305  0.00  0.00    +0.000 N 
ATOM      6  C   UNK A   2      -5.372   4.837 128.599  0.00  0.00    +0.000 C 
ATOM      7  C   UNK A   2      -3.989   4.414 129.096  0.00  0.00    +0.000 C 
ATOM      8  C   UNK A   2      -3.831   2.938 128.834  0.00  0.00    +0.000 C 
ATOM      9  C   UNK A   2      -4.963   2.648 127.855  0.00  0.00    +0.000 C 
ATOM     10  S   UNK A   2      -3.947   4.686 130.878  0.00  0.00    +0.000 S 
ATOM     11  C   UNK A   2      -2.457   5.658 130.875  0.00  0.00    +0.000 C 
ATOM     12  C   UNK A   2      -2.220   6.308 129.524  0.00  0.00    +0.000 C 
ATOM     13  S   UNK A   2      -2.645   5.193 128.201  0.00  0.00    +0.000 S 
BRANCH   9  14
ATOM     14  C   UNK A   2      -4.945   1.155 127.944  0.00  0.00    +0.000 C 
ATOM     15  O   UNK A   2      -5.146   0.512 128.985  0.00  0.00    +0.000 OA
BRANCH  14  16
ATOM     16  O   UNK A   2      -4.872   0.583 126.716  0.00  0.00    +0.000 OA
ATOM     17  H   UNK A   2      -4.581  -0.356 126.711  0.00  0.00    +0.000 HD
ENDBRANCH  14  16
ENDBRANCH   9  14
ENDBRANCH   1   3
BRANCH   1  18
ATOM     18  N   ALA A   1      -9.442   2.776 129.358  0.00  0.00    +0.000 NA
ATOM     19  H   ALA A   1      -9.922   3.427 128.735  0.00  0.00    +0.000 HD
BRANCH  18  20
ATOM     20  C   UNK A   0      -9.428   3.335 130.800  0.00  0.00    +0.000 C 
BRANCH  20  21
ATOM     21  C   UNK A   0      -9.699   2.324 132.083  0.00  0.00    +0.000 C 
ATOM     22  O   UNK A   0      -9.982   1.126 131.966  0.00  0.00    +0.000 OA
BRANCH  21  23
ATOM     23  O   UNK A   0      -9.608   2.901 133.343  0.00  0.00    +0.000 OA
BRANCH  23  25
ATOM     24  C   UNK A   0      -7.139   2.420 133.701  0.00  0.00    +0.000 C 
ATOM     25  C   UNK A   0      -8.308   3.417 133.787  0.00  0.00    +0.000 C 
ENDBRANCH  23  25
ENDBRANCH  21  23
ENDBRANCH  20  21
BRANCH  20  26
ATOM     26  C   UNK A   0     -10.534   4.410 130.850  0.00  0.00    +0.000 C 
BRANCH  26  27
ATOM     27  C   UNK A   0     -10.039   5.812 131.234  0.00  0.00    +0.000 C 
BRANCH  27  28
ATOM     28  C   UNK A   0     -10.734   6.853 130.415  0.00  0.00    +0.000 A 
ATOM     29  C   UNK A   0     -12.021   7.266 130.769  0.00  0.00    +0.000 A 
ATOM     30  C   UNK A   0     -12.695   8.181 129.970  0.00  0.00    +0.000 A 
ATOM     31  C   UNK A   0     -12.052   8.745 128.869  0.00  0.00    +0.000 A 
ATOM     32  C   UNK A   0     -10.753   8.362 128.535  0.00  0.00    +0.000 A 
ATOM     33  C   UNK A   0     -10.095   7.410 129.303  0.00  0.00    +0.000 A 
ENDBRANCH  27  28
ENDBRANCH  26  27
ENDBRANCH  20  26
ENDBRANCH  18  20
ENDBRANCH   1  18
TORSDOF 11
ENDMDL
