MODEL 1
REMARK VINA RESULT:      -6.3      0.000      0.000
REMARK  Name = Squalene
REMARK  23 active torsions:
REMARK  status: ('A' for Active; 'I' for Inactive)
REMARK    1  A    between atoms: C_1  and  C_2
REMARK    2  A    between atoms: C_2  and  C_3
REMARK    3  A    between atoms: C_4  and  C_5
REMARK    4  A    between atoms: C_5  and  C_6
REMARK    5  A    between atoms: C_6  and  C_7
REMARK    6  A    between atoms: C_7  and  C_8
REMARK    7  A    between atoms: C_9  and  C_10
REMARK    8  A    between atoms: C_10  and  C_11
REMARK    9  A    between atoms: C_11  and  C_12
REMARK   10  A    between atoms: C_12  and  C_13
REMARK   11  A    between atoms: C_14  and  C_15
REMARK   12  A    between atoms: C_15  and  C_16
REMARK   13  A    between atoms: C_16  and  C_17
REMARK   14  A    between atoms: C_18  and  C_19
REMARK   15  A    between atoms: C_18  and  C_20
REMARK   16  A    between atoms: C_20  and  C_21
REMARK   17  A    between atoms: C_21  and  C_22
REMARK   18  A    between atoms: C_23  and  C_24
REMARK   19  A    between atoms: C_23  and  C_25
REMARK   20  A    between atoms: C_25  and  C_26
REMARK   21  A    between atoms: C_26  and  C_27
REMARK   22  A    between atoms: C_28  and  C_29
REMARK   23  A    between atoms: C_28  and  C_30
REMARK                            x       y       z     vdW  Elec       q    Type
REMARK                         _______ _______ _______ _____ _____    ______ ____
ROOT
ATOM      1  C   UNL     1      -8.447  -3.291 128.741  0.00  0.00    +0.000 C 
ENDROOT
BRANCH   1   4
ATOM      2  C   UNL     1      -6.024  -3.114 129.248  0.00  0.00    +0.000 C 
ATOM      3  C   UNL     1      -6.205  -4.204 130.279  0.00  0.00    +0.000 C 
ATOM      4  C   UNL     1      -7.087  -2.700 128.536  0.00  0.00    +0.000 C 
BRANCH   2   5
ATOM      5  C   UNL     1      -4.677  -2.477 128.994  0.00  0.00    +0.000 C 
BRANCH   5   6
ATOM      6  C   UNL     1      -4.211  -1.633 130.166  0.00  0.00    +0.000 C 
BRANCH   6   9
ATOM      7  C   UNL     1      -5.144   0.641 130.349  0.00  0.00    +0.000 C 
ATOM      8  C   UNL     1      -6.318   0.063 131.114  0.00  0.00    +0.000 C 
ATOM      9  C   UNL     1      -4.160  -0.167 129.908  0.00  0.00    +0.000 C 
BRANCH   7  10
ATOM     10  C   UNL     1      -5.047   2.119 130.062  0.00  0.00    +0.000 C 
BRANCH  10  11
ATOM     11  C   UNL     1      -3.862   2.473 129.178  0.00  0.00    +0.000 C 
BRANCH  11  15
ATOM     12  C   UNL     1      -2.421   5.912 128.222  0.00  0.00    +0.000 C 
ATOM     13  C   UNL     1      -2.777   4.461 128.183  0.00  0.00    +0.000 C 
ATOM     14  C   UNL     1      -2.319   3.641 127.006  0.00  0.00    +0.000 C 
ATOM     15  C   UNL     1      -3.491   3.917 129.187  0.00  0.00    +0.000 C 
ENDBRANCH  11  15
ENDBRANCH  10  11
ENDBRANCH   7  10
ENDBRANCH   6   9
ENDBRANCH   5   6
ENDBRANCH   2   5
ENDBRANCH   1   4
BRANCH   1  16
ATOM     16  C   UNL     1      -8.977  -3.888 127.459  0.00  0.00    +0.000 C 
BRANCH  16  17
ATOM     17  C   UNL     1      -9.104  -2.854 126.387  0.00  0.00    +0.000 C 
ATOM     18  C   UNL     1      -8.670  -3.073 125.133  0.00  0.00    +0.000 C 
ATOM     19  C   UNL     1      -8.027  -4.382 124.735  0.00  0.00    +0.000 C 
BRANCH  18  20
ATOM     20  C   UNL     1      -8.832  -1.980 124.099  0.00  0.00    +0.000 C 
BRANCH  20  21
ATOM     21  C   UNL     1      -7.492  -1.458 123.614  0.00  0.00    +0.000 C 
BRANCH  21  22
ATOM     22  C   UNL     1      -6.881  -0.410 124.476  0.00  0.00    +0.000 C 
ATOM     23  C   UNL     1      -5.844  -0.696 125.287  0.00  0.00    +0.000 C 
ATOM     24  C   UNL     1      -5.244  -2.085 125.367  0.00  0.00    +0.000 C 
BRANCH  23  25
ATOM     25  C   UNL     1      -5.263   0.407 126.141  0.00  0.00    +0.000 C 
BRANCH  25  26
ATOM     26  C   UNL     1      -5.849   1.770 125.800  0.00  0.00    +0.000 C 
BRANCH  26  27
ATOM     27  C   UNL     1      -6.711   2.355 126.868  0.00  0.00    +0.000 C 
ATOM     28  C   UNL     1      -6.728   3.677 127.120  0.00  0.00    +0.000 C 
ATOM     29  C   UNL     1      -5.888   4.670 126.356  0.00  0.00    +0.000 C 
ATOM     30  C   UNL     1      -7.604   4.238 128.199  0.00  0.00    +0.000 C 
ENDBRANCH  26  27
ENDBRANCH  25  26
ENDBRANCH  23  25
ENDBRANCH  21  22
ENDBRANCH  20  21
ENDBRANCH  18  20
ENDBRANCH  16  17
ENDBRANCH   1  16
TORSDOF 15
ENDMDL
MODEL 2
REMARK VINA RESULT:      -6.3      1.485      2.245
REMARK  Name = Squalene
REMARK  23 active torsions:
REMARK  status: ('A' for Active; 'I' for Inactive)
REMARK    1  A    between atoms: C_1  and  C_2
REMARK    2  A    between atoms: C_2  and  C_3
REMARK    3  A    between atoms: C_4  and  C_5
REMARK    4  A    between atoms: C_5  and  C_6
REMARK    5  A    between atoms: C_6  and  C_7
REMARK    6  A    between atoms: C_7  and  C_8
REMARK    7  A    between atoms: C_9  and  C_10
REMARK    8  A    between atoms: C_10  and  C_11
REMARK    9  A    between atoms: C_11  and  C_12
REMARK   10  A    between atoms: C_12  and  C_13
REMARK   11  A    between atoms: C_14  and  C_15
REMARK   12  A    between atoms: C_15  and  C_16
REMARK   13  A    between atoms: C_16  and  C_17
REMARK   14  A    between atoms: C_18  and  C_19
REMARK   15  A    between atoms: C_18  and  C_20
REMARK   16  A    between atoms: C_20  and  C_21
REMARK   17  A    between atoms: C_21  and  C_22
REMARK   18  A    between atoms: C_23  and  C_24
REMARK   19  A    between atoms: C_23  and  C_25
REMARK   20  A    between atoms: C_25  and  C_26
REMARK   21  A    between atoms: C_26  and  C_27
REMARK   22  A    between atoms: C_28  and  C_29
REMARK   23  A    between atoms: C_28  and  C_30
REMARK                            x       y       z     vdW  Elec       q    Type
REMARK                         _______ _______ _______ _____ _____    ______ ____
ROOT
ATOM      1  C   UNL     1      -8.227  -2.416 127.830  0.00  0.00    +0.000 C 
ENDROOT
BRANCH   1   4
ATOM      2  C   UNL     1      -5.759  -2.406 128.096  0.00  0.00    +0.000 C 
ATOM      3  C   UNL     1      -5.673  -1.541 126.860  0.00  0.00    +0.000 C 
ATOM      4  C   UNL     1      -6.965  -2.806 128.536  0.00  0.00    +0.000 C 
BRANCH   2   5
ATOM      5  C   UNL     1      -4.523  -2.834 128.853  0.00  0.00    +0.000 C 
BRANCH   5   6
ATOM      6  C   UNL     1      -4.443  -2.198 130.229  0.00  0.00    +0.000 C 
BRANCH   6   9
ATOM      7  C   UNL     1      -4.771   0.225 130.542  0.00  0.00    +0.000 C 
ATOM      8  C   UNL     1      -6.229  -0.046 130.855  0.00  0.00    +0.000 C 
ATOM      9  C   UNL     1      -3.941  -0.795 130.249  0.00  0.00    +0.000 C 
BRANCH   7  10
ATOM     10  C   UNL     1      -4.215   1.628 130.550  0.00  0.00    +0.000 C 
BRANCH  10  11
ATOM     11  C   UNL     1      -4.628   2.433 129.329  0.00  0.00    +0.000 C 
BRANCH  11  15
ATOM     12  C   UNL     1      -2.194   3.500 126.544  0.00  0.00    +0.000 C 
ATOM     13  C   UNL     1      -3.339   2.862 127.261  0.00  0.00    +0.000 C 
ATOM     14  C   UNL     1      -4.296   2.008 126.470  0.00  0.00    +0.000 C 
ATOM     15  C   UNL     1      -3.496   3.055 128.585  0.00  0.00    +0.000 C 
ENDBRANCH  11  15
ENDBRANCH  10  11
ENDBRANCH   7  10
ENDBRANCH   6   9
ENDBRANCH   5   6
ENDBRANCH   2   5
ENDBRANCH   1   4
BRANCH   1  16
ATOM     16  C   UNL     1      -8.819  -3.592 127.091  0.00  0.00    +0.000 C 
BRANCH  16  17
ATOM     17  C   UNL     1      -9.384  -3.179 125.770  0.00  0.00    +0.000 C 
ATOM     18  C   UNL     1      -8.725  -3.391 124.617  0.00  0.00    +0.000 C 
ATOM     19  C   UNL     1      -7.370  -4.061 124.592  0.00  0.00    +0.000 C 
BRANCH  18  20
ATOM     20  C   UNL     1      -9.359  -2.947 123.317  0.00  0.00    +0.000 C 
BRANCH  20  21
ATOM     21  C   UNL     1      -8.641  -1.750 122.719  0.00  0.00    +0.000 C 
BRANCH  21  22
ATOM     22  C   UNL     1      -8.399  -0.629 123.667  0.00  0.00    +0.000 C 
ATOM     23  C   UNL     1      -9.140   0.494 123.617  0.00  0.00    +0.000 C 
ATOM     24  C   UNL     1     -10.252   0.680 122.605  0.00  0.00    +0.000 C 
BRANCH  23  25
ATOM     25  C   UNL     1      -8.851   1.601 124.604  0.00  0.00    +0.000 C 
BRANCH  25  26
ATOM     26  C   UNL     1      -7.777   1.211 125.610  0.00  0.00    +0.000 C 
BRANCH  26  27
ATOM     27  C   UNL     1      -8.244   1.172 127.026  0.00  0.00    +0.000 C 
ATOM     28  C   UNL     1      -8.167   2.251 127.827  0.00  0.00    +0.000 C 
ATOM     29  C   UNL     1      -7.609   3.575 127.370  0.00  0.00    +0.000 C 
ATOM     30  C   UNL     1      -8.644   2.184 129.247  0.00  0.00    +0.000 C 
ENDBRANCH  26  27
ENDBRANCH  25  26
ENDBRANCH  23  25
ENDBRANCH  21  22
ENDBRANCH  20  21
ENDBRANCH  18  20
ENDBRANCH  16  17
ENDBRANCH   1  16
TORSDOF 15
ENDMDL
MODEL 3
REMARK VINA RESULT:      -6.3      2.883      5.977
REMARK  Name = Squalene
REMARK  23 active torsions:
REMARK  status: ('A' for Active; 'I' for Inactive)
REMARK    1  A    between atoms: C_1  and  C_2
REMARK    2  A    between atoms: C_2  and  C_3
REMARK    3  A    between atoms: C_4  and  C_5
REMARK    4  A    between atoms: C_5  and  C_6
REMARK    5  A    between atoms: C_6  and  C_7
REMARK    6  A    between atoms: C_7  and  C_8
REMARK    7  A    between atoms: C_9  and  C_10
REMARK    8  A    between atoms: C_10  and  C_11
REMARK    9  A    between atoms: C_11  and  C_12
REMARK   10  A    between atoms: C_12  and  C_13
REMARK   11  A    between atoms: C_14  and  C_15
REMARK   12  A    between atoms: C_15  and  C_16
REMARK   13  A    between atoms: C_16  and  C_17
REMARK   14  A    between atoms: C_18  and  C_19
REMARK   15  A    between atoms: C_18  and  C_20
REMARK   16  A    between atoms: C_20  and  C_21
REMARK   17  A    between atoms: C_21  and  C_22
REMARK   18  A    between atoms: C_23  and  C_24
REMARK   19  A    between atoms: C_23  and  C_25
REMARK   20  A    between atoms: C_25  and  C_26
REMARK   21  A    between atoms: C_26  and  C_27
REMARK   22  A    between atoms: C_28  and  C_29
REMARK   23  A    between atoms: C_28  and  C_30
REMARK                            x       y       z     vdW  Elec       q    Type
REMARK                         _______ _______ _______ _____ _____    ______ ____
ROOT
ATOM      1  C   UNL     1      -9.489  -3.292 126.459  0.00  0.00    +0.000 C 
ENDROOT
BRANCH   1   4
ATOM      2  C   UNL     1      -8.881  -2.210 124.310  0.00  0.00    +0.000 C 
ATOM      3  C   UNL     1      -9.536  -3.367 123.593  0.00  0.00    +0.000 C 
ATOM      4  C   UNL     1      -8.869  -2.192 125.654  0.00  0.00    +0.000 C 
BRANCH   2   5
ATOM      5  C   UNL     1      -8.237  -1.070 123.555  0.00  0.00    +0.000 C 
BRANCH   5   6
ATOM      6  C   UNL     1      -7.454  -0.146 124.469  0.00  0.00    +0.000 C 
BRANCH   6   9
ATOM      7  C   UNL     1      -7.519   2.186 123.673  0.00  0.00    +0.000 C 
ATOM      8  C   UNL     1      -8.930   2.298 124.217  0.00  0.00    +0.000 C 
ATOM      9  C   UNL     1      -6.836   1.032 123.797  0.00  0.00    +0.000 C 
BRANCH   7  10
ATOM     10  C   UNL     1      -6.851   3.351 122.986  0.00  0.00    +0.000 C 
BRANCH  10  11
ATOM     11  C   UNL     1      -6.054   2.936 121.760  0.00  0.00    +0.000 C 
BRANCH  11  15
ATOM     12  C   UNL     1      -5.502   5.762 119.206  0.00  0.00    +0.000 C 
ATOM     13  C   UNL     1      -6.121   4.628 119.957  0.00  0.00    +0.000 C 
ATOM     14  C   UNL     1      -7.479   4.139 119.527  0.00  0.00    +0.000 C 
ATOM     15  C   UNL     1      -5.464   4.068 120.991  0.00  0.00    +0.000 C 
ENDBRANCH  11  15
ENDBRANCH  10  11
ENDBRANCH   7  10
ENDBRANCH   6   9
ENDBRANCH   5   6
ENDBRANCH   2   5
ENDBRANCH   1   4
BRANCH   1  16
ATOM     16  C   UNL     1      -8.724  -3.521 127.741  0.00  0.00    +0.000 C 
BRANCH  16  17
ATOM     17  C   UNL     1      -7.726  -2.435 127.983  0.00  0.00    +0.000 C 
ATOM     18  C   UNL     1      -6.833  -2.501 128.987  0.00  0.00    +0.000 C 
ATOM     19  C   UNL     1      -6.789  -3.680 129.931  0.00  0.00    +0.000 C 
BRANCH  18  20
ATOM     20  C   UNL     1      -5.852  -1.364 129.171  0.00  0.00    +0.000 C 
BRANCH  20  21
ATOM     21  C   UNL     1      -6.554  -0.058 129.497  0.00  0.00    +0.000 C 
BRANCH  21  22
ATOM     22  C   UNL     1      -6.143   1.099 128.656  0.00  0.00    +0.000 C 
ATOM     23  C   UNL     1      -7.017   1.697 127.824  0.00  0.00    +0.000 C 
ATOM     24  C   UNL     1      -8.454   1.235 127.697  0.00  0.00    +0.000 C 
BRANCH  23  25
ATOM     25  C   UNL     1      -6.544   2.868 126.993  0.00  0.00    +0.000 C 
BRANCH  25  26
ATOM     26  C   UNL     1      -5.245   3.461 127.518  0.00  0.00    +0.000 C 
BRANCH  26  27
ATOM     27  C   UNL     1      -4.019   2.969 126.826  0.00  0.00    +0.000 C 
ATOM     28  C   UNL     1      -2.805   3.494 127.075  0.00  0.00    +0.000 C 
ATOM     29  C   UNL     1      -2.581   4.611 128.064  0.00  0.00    +0.000 C 
ATOM     30  C   UNL     1      -1.589   2.979 126.366  0.00  0.00    +0.000 C 
ENDBRANCH  26  27
ENDBRANCH  25  26
ENDBRANCH  23  25
ENDBRANCH  21  22
ENDBRANCH  20  21
ENDBRANCH  18  20
ENDBRANCH  16  17
ENDBRANCH   1  16
TORSDOF 15
ENDMDL
MODEL 4
REMARK VINA RESULT:      -6.3      1.544      5.303
REMARK  Name = Squalene
REMARK  23 active torsions:
REMARK  status: ('A' for Active; 'I' for Inactive)
REMARK    1  A    between atoms: C_1  and  C_2
REMARK    2  A    between atoms: C_2  and  C_3
REMARK    3  A    between atoms: C_4  and  C_5
REMARK    4  A    between atoms: C_5  and  C_6
REMARK    5  A    between atoms: C_6  and  C_7
REMARK    6  A    between atoms: C_7  and  C_8
REMARK    7  A    between atoms: C_9  and  C_10
REMARK    8  A    between atoms: C_10  and  C_11
REMARK    9  A    between atoms: C_11  and  C_12
REMARK   10  A    between atoms: C_12  and  C_13
REMARK   11  A    between atoms: C_14  and  C_15
REMARK   12  A    between atoms: C_15  and  C_16
REMARK   13  A    between atoms: C_16  and  C_17
REMARK   14  A    between atoms: C_18  and  C_19
REMARK   15  A    between atoms: C_18  and  C_20
REMARK   16  A    between atoms: C_20  and  C_21
REMARK   17  A    between atoms: C_21  and  C_22
REMARK   18  A    between atoms: C_23  and  C_24
REMARK   19  A    between atoms: C_23  and  C_25
REMARK   20  A    between atoms: C_25  and  C_26
REMARK   21  A    between atoms: C_26  and  C_27
REMARK   22  A    between atoms: C_28  and  C_29
REMARK   23  A    between atoms: C_28  and  C_30
REMARK                            x       y       z     vdW  Elec       q    Type
REMARK                         _______ _______ _______ _____ _____    ______ ____
ROOT
ATOM      1  C   UNL     1      -8.902  -2.369 123.240  0.00  0.00    +0.000 C 
ENDROOT
BRANCH   1   4
ATOM      2  C   UNL     1      -9.053  -2.785 125.683  0.00  0.00    +0.000 C 
ATOM      3  C   UNL     1      -9.336  -1.313 125.871  0.00  0.00    +0.000 C 
ATOM      4  C   UNL     1      -8.853  -3.261 124.441  0.00  0.00    +0.000 C 
BRANCH   2   5
ATOM      5  C   UNL     1      -8.990  -3.738 126.854  0.00  0.00    +0.000 C 
BRANCH   5   6
ATOM      6  C   UNL     1      -8.455  -3.071 128.108  0.00  0.00    +0.000 C 
BRANCH   6   9
ATOM      7  C   UNL     1      -6.429  -1.868 128.833  0.00  0.00    +0.000 C 
ATOM      8  C   UNL     1      -7.316  -0.892 129.581  0.00  0.00    +0.000 C 
ATOM      9  C   UNL     1      -6.977  -2.888 128.144  0.00  0.00    +0.000 C 
BRANCH   7  10
ATOM     10  C   UNL     1      -4.927  -1.725 128.841  0.00  0.00    +0.000 C 
BRANCH  10  11
ATOM     11  C   UNL     1      -4.209  -3.046 129.063  0.00  0.00    +0.000 C 
BRANCH  11  15
ATOM     12  C   UNL     1      -3.816  -4.310 132.678  0.00  0.00    +0.000 C 
ATOM     13  C   UNL     1      -4.333  -4.120 131.288  0.00  0.00    +0.000 C 
ATOM     14  C   UNL     1      -5.543  -4.908 130.858  0.00  0.00    +0.000 C 
ATOM     15  C   UNL     1      -3.719  -3.259 130.455  0.00  0.00    +0.000 C 
ENDBRANCH  11  15
ENDBRANCH  10  11
ENDBRANCH   7  10
ENDBRANCH   6   9
ENDBRANCH   5   6
ENDBRANCH   2   5
ENDBRANCH   1   4
BRANCH   1  16
ATOM     16  C   UNL     1      -7.512  -2.077 122.726  0.00  0.00    +0.000 C 
BRANCH  16  17
ATOM     17  C   UNL     1      -6.737  -1.241 123.693  0.00  0.00    +0.000 C 
ATOM     18  C   UNL     1      -5.735  -1.752 124.430  0.00  0.00    +0.000 C 
ATOM     19  C   UNL     1      -5.335  -3.205 124.322  0.00  0.00    +0.000 C 
BRANCH  18  20
ATOM     20  C   UNL     1      -4.993  -0.845 125.388  0.00  0.00    +0.000 C 
BRANCH  20  21
ATOM     21  C   UNL     1      -5.857   0.314 125.852  0.00  0.00    +0.000 C 
BRANCH  21  22
ATOM     22  C   UNL     1      -5.104   1.539 126.235  0.00  0.00    +0.000 C 
ATOM     23  C   UNL     1      -5.299   2.704 125.589  0.00  0.00    +0.000 C 
ATOM     24  C   UNL     1      -6.286   2.836 124.448  0.00  0.00    +0.000 C 
BRANCH  23  25
ATOM     25  C   UNL     1      -4.506   3.917 126.020  0.00  0.00    +0.000 C 
BRANCH  25  26
ATOM     26  C   UNL     1      -3.230   3.539 126.758  0.00  0.00    +0.000 C 
BRANCH  26  27
ATOM     27  C   UNL     1      -3.340   3.589 128.245  0.00  0.00    +0.000 C 
ATOM     28  C   UNL     1      -2.952   4.669 128.948  0.00  0.00    +0.000 C 
ATOM     29  C   UNL     1      -2.379   5.906 128.304  0.00  0.00    +0.000 C 
ATOM     30  C   UNL     1      -3.074   4.693 130.442  0.00  0.00    +0.000 C 
ENDBRANCH  26  27
ENDBRANCH  25  26
ENDBRANCH  23  25
ENDBRANCH  21  22
ENDBRANCH  20  21
ENDBRANCH  18  20
ENDBRANCH  16  17
ENDBRANCH   1  16
TORSDOF 15
ENDMDL
MODEL 5
REMARK VINA RESULT:      -6.2      2.015      4.866
REMARK  Name = Squalene
REMARK  23 active torsions:
REMARK  status: ('A' for Active; 'I' for Inactive)
REMARK    1  A    between atoms: C_1  and  C_2
REMARK    2  A    between atoms: C_2  and  C_3
REMARK    3  A    between atoms: C_4  and  C_5
REMARK    4  A    between atoms: C_5  and  C_6
REMARK    5  A    between atoms: C_6  and  C_7
REMARK    6  A    between atoms: C_7  and  C_8
REMARK    7  A    between atoms: C_9  and  C_10
REMARK    8  A    between atoms: C_10  and  C_11
REMARK    9  A    between atoms: C_11  and  C_12
REMARK   10  A    between atoms: C_12  and  C_13
REMARK   11  A    between atoms: C_14  and  C_15
REMARK   12  A    between atoms: C_15  and  C_16
REMARK   13  A    between atoms: C_16  and  C_17
REMARK   14  A    between atoms: C_18  and  C_19
REMARK   15  A    between atoms: C_18  and  C_20
REMARK   16  A    between atoms: C_20  and  C_21
REMARK   17  A    between atoms: C_21  and  C_22
REMARK   18  A    between atoms: C_23  and  C_24
REMARK   19  A    between atoms: C_23  and  C_25
REMARK   20  A    between atoms: C_25  and  C_26
REMARK   21  A    between atoms: C_26  and  C_27
REMARK   22  A    between atoms: C_28  and  C_29
REMARK   23  A    between atoms: C_28  and  C_30
REMARK                            x       y       z     vdW  Elec       q    Type
REMARK                         _______ _______ _______ _____ _____    ______ ____
ROOT
ATOM      1  C   UNL     1      -5.337   0.019 125.787  0.00  0.00    +0.000 C 
ENDROOT
BRANCH   1   4
ATOM      2  C   UNL     1      -6.158   1.109 127.861  0.00  0.00    +0.000 C 
ATOM      3  C   UNL     1      -5.017   2.092 127.743  0.00  0.00    +0.000 C 
ATOM      4  C   UNL     1      -6.292   0.144 126.934  0.00  0.00    +0.000 C 
BRANCH   2   5
ATOM      5  C   UNL     1      -7.154   1.181 128.995  0.00  0.00    +0.000 C 
BRANCH   5   6
ATOM      6  C   UNL     1      -8.031  -0.055 129.068  0.00  0.00    +0.000 C 
BRANCH   6   9
ATOM      7  C   UNL     1      -7.706  -2.333 129.951  0.00  0.00    +0.000 C 
ATOM      8  C   UNL     1      -8.060  -2.880 128.582  0.00  0.00    +0.000 C 
ATOM      9  C   UNL     1      -7.697  -1.004 130.167  0.00  0.00    +0.000 C 
BRANCH   7  10
ATOM     10  C   UNL     1      -7.359  -3.254 131.096  0.00  0.00    +0.000 C 
BRANCH  10  11
ATOM     11  C   UNL     1      -5.900  -3.156 131.510  0.00  0.00    +0.000 C 
BRANCH  11  15
ATOM     12  C   UNL     1      -3.190  -3.847 128.865  0.00  0.00    +0.000 C 
ATOM     13  C   UNL     1      -4.135  -3.133 129.778  0.00  0.00    +0.000 C 
ATOM     14  C   UNL     1      -4.150  -1.627 129.760  0.00  0.00    +0.000 C 
ATOM     15  C   UNL     1      -4.947  -3.838 130.589  0.00  0.00    +0.000 C 
ENDBRANCH  11  15
ENDBRANCH  10  11
ENDBRANCH   7  10
ENDBRANCH   6   9
ENDBRANCH   5   6
ENDBRANCH   2   5
ENDBRANCH   1   4
BRANCH   1  16
ATOM     16  C   UNL     1      -4.927  -1.420 125.579  0.00  0.00    +0.000 C 
BRANCH  16  17
ATOM     17  C   UNL     1      -6.106  -2.337 125.637  0.00  0.00    +0.000 C 
ATOM     18  C   UNL     1      -6.704  -2.798 124.524  0.00  0.00    +0.000 C 
ATOM     19  C   UNL     1      -6.216  -2.412 123.146  0.00  0.00    +0.000 C 
BRANCH  18  20
ATOM     20  C   UNL     1      -7.893  -3.724 124.659  0.00  0.00    +0.000 C 
BRANCH  20  21
ATOM     21  C   UNL     1      -9.208  -2.975 124.545  0.00  0.00    +0.000 C 
BRANCH  21  22
ATOM     22  C   UNL     1      -9.279  -1.715 125.333  0.00  0.00    +0.000 C 
ATOM     23  C   UNL     1      -9.290  -0.515 124.723  0.00  0.00    +0.000 C 
ATOM     24  C   UNL     1      -9.234  -0.377 123.215  0.00  0.00    +0.000 C 
BRANCH  23  25
ATOM     25  C   UNL     1      -9.363   0.733 125.573  0.00  0.00    +0.000 C 
BRANCH  25  26
ATOM     26  C   UNL     1      -9.260   2.004 124.742  0.00  0.00    +0.000 C 
BRANCH  26  27
ATOM     27  C   UNL     1      -8.134   2.903 125.128  0.00  0.00    +0.000 C 
ATOM     28  C   UNL     1      -7.047   3.052 124.349  0.00  0.00    +0.000 C 
ATOM     29  C   UNL     1      -6.873   2.332 123.035  0.00  0.00    +0.000 C 
ATOM     30  C   UNL     1      -5.930   3.964 124.760  0.00  0.00    +0.000 C 
ENDBRANCH  26  27
ENDBRANCH  25  26
ENDBRANCH  23  25
ENDBRANCH  21  22
ENDBRANCH  20  21
ENDBRANCH  18  20
ENDBRANCH  16  17
ENDBRANCH   1  16
TORSDOF 15
ENDMDL
MODEL 6
REMARK VINA RESULT:      -6.2      2.426      4.757
REMARK  Name = Squalene
REMARK  23 active torsions:
REMARK  status: ('A' for Active; 'I' for Inactive)
REMARK    1  A    between atoms: C_1  and  C_2
REMARK    2  A    between atoms: C_2  and  C_3
REMARK    3  A    between atoms: C_4  and  C_5
REMARK    4  A    between atoms: C_5  and  C_6
REMARK    5  A    between atoms: C_6  and  C_7
REMARK    6  A    between atoms: C_7  and  C_8
REMARK    7  A    between atoms: C_9  and  C_10
REMARK    8  A    between atoms: C_10  and  C_11
REMARK    9  A    between atoms: C_11  and  C_12
REMARK   10  A    between atoms: C_12  and  C_13
REMARK   11  A    between atoms: C_14  and  C_15
REMARK   12  A    between atoms: C_15  and  C_16
REMARK   13  A    between atoms: C_16  and  C_17
REMARK   14  A    between atoms: C_18  and  C_19
REMARK   15  A    between atoms: C_18  and  C_20
REMARK   16  A    between atoms: C_20  and  C_21
REMARK   17  A    between atoms: C_21  and  C_22
REMARK   18  A    between atoms: C_23  and  C_24
REMARK   19  A    between atoms: C_23  and  C_25
REMARK   20  A    between atoms: C_25  and  C_26
REMARK   21  A    between atoms: C_26  and  C_27
REMARK   22  A    between atoms: C_28  and  C_29
REMARK   23  A    between atoms: C_28  and  C_30
REMARK                            x       y       z     vdW  Elec       q    Type
REMARK                         _______ _______ _______ _____ _____    ______ ____
ROOT
ATOM      1  C   UNL     1      -8.692  -3.669 129.113  0.00  0.00    +0.000 C 
ENDROOT
BRANCH   1   4
ATOM      2  C   UNL     1      -7.248  -1.894 130.078  0.00  0.00    +0.000 C 
ATOM      3  C   UNL     1      -6.546  -2.964 130.881  0.00  0.00    +0.000 C 
ATOM      4  C   UNL     1      -8.251  -2.244 129.254  0.00  0.00    +0.000 C 
BRANCH   2   5
ATOM      5  C   UNL     1      -6.851  -0.439 130.175  0.00  0.00    +0.000 C 
BRANCH   5   6
ATOM      6  C   UNL     1      -7.275   0.355 128.953  0.00  0.00    +0.000 C 
BRANCH   6   9
ATOM      7  C   UNL     1      -5.691   0.796 127.117  0.00  0.00    +0.000 C 
ATOM      8  C   UNL     1      -5.358   2.124 127.767  0.00  0.00    +0.000 C 
ATOM      9  C   UNL     1      -6.595  -0.027 127.684  0.00  0.00    +0.000 C 
BRANCH   7  10
ATOM     10  C   UNL     1      -5.028   0.365 125.832  0.00  0.00    +0.000 C 
BRANCH  10  11
ATOM     11  C   UNL     1      -5.839  -0.667 125.066  0.00  0.00    +0.000 C 
BRANCH  11  15
ATOM     12  C   UNL     1      -4.512  -3.951 123.558  0.00  0.00    +0.000 C 
ATOM     13  C   UNL     1      -5.207  -2.636 123.709  0.00  0.00    +0.000 C 
ATOM     14  C   UNL     1      -5.951  -2.077 122.524  0.00  0.00    +0.000 C 
ATOM     15  C   UNL     1      -5.158  -1.980 124.884  0.00  0.00    +0.000 C 
ENDBRANCH  11  15
ENDBRANCH  10  11
ENDBRANCH   7  10
ENDBRANCH   6   9
ENDBRANCH   5   6
ENDBRANCH   2   5
ENDBRANCH   1   4
BRANCH   1  16
ATOM     16  C   UNL     1      -8.817  -4.055 127.659  0.00  0.00    +0.000 C 
BRANCH  16  17
ATOM     17  C   UNL     1      -8.981  -2.852 126.786  0.00  0.00    +0.000 C 
ATOM     18  C   UNL     1      -8.750  -2.898 125.462  0.00  0.00    +0.000 C 
ATOM     19  C   UNL     1      -8.307  -4.171 124.779  0.00  0.00    +0.000 C 
BRANCH  18  20
ATOM     20  C   UNL     1      -8.938  -1.640 124.642  0.00  0.00    +0.000 C 
BRANCH  20  21
ATOM     21  C   UNL     1      -9.534  -0.512 125.464  0.00  0.00    +0.000 C 
BRANCH  21  22
ATOM     22  C   UNL     1      -8.957   0.832 125.191  0.00  0.00    +0.000 C 
ATOM     23  C   UNL     1      -9.245   1.492 124.054  0.00  0.00    +0.000 C 
ATOM     24  C   UNL     1     -10.163   0.914 122.997  0.00  0.00    +0.000 C 
BRANCH  23  25
ATOM     25  C   UNL     1      -8.630   2.855 123.829  0.00  0.00    +0.000 C 
BRANCH  25  26
ATOM     26  C   UNL     1      -7.146   2.771 123.503  0.00  0.00    +0.000 C 
BRANCH  26  27
ATOM     27  C   UNL     1      -6.801   3.137 122.099  0.00  0.00    +0.000 C 
ATOM     28  C   UNL     1      -5.779   3.964 121.812  0.00  0.00    +0.000 C 
ATOM     29  C   UNL     1      -4.905   4.587 122.871  0.00  0.00    +0.000 C 
ATOM     30  C   UNL     1      -5.454   4.314 120.391  0.00  0.00    +0.000 C 
ENDBRANCH  26  27
ENDBRANCH  25  26
ENDBRANCH  23  25
ENDBRANCH  21  22
ENDBRANCH  20  21
ENDBRANCH  18  20
ENDBRANCH  16  17
ENDBRANCH   1  16
TORSDOF 15
ENDMDL
MODEL 7
REMARK VINA RESULT:      -6.2      3.613      7.656
REMARK  Name = Squalene
REMARK  23 active torsions:
REMARK  status: ('A' for Active; 'I' for Inactive)
REMARK    1  A    between atoms: C_1  and  C_2
REMARK    2  A    between atoms: C_2  and  C_3
REMARK    3  A    between atoms: C_4  and  C_5
REMARK    4  A    between atoms: C_5  and  C_6
REMARK    5  A    between atoms: C_6  and  C_7
REMARK    6  A    between atoms: C_7  and  C_8
REMARK    7  A    between atoms: C_9  and  C_10
REMARK    8  A    between atoms: C_10  and  C_11
REMARK    9  A    between atoms: C_11  and  C_12
REMARK   10  A    between atoms: C_12  and  C_13
REMARK   11  A    between atoms: C_14  and  C_15
REMARK   12  A    between atoms: C_15  and  C_16
REMARK   13  A    between atoms: C_16  and  C_17
REMARK   14  A    between atoms: C_18  and  C_19
REMARK   15  A    between atoms: C_18  and  C_20
REMARK   16  A    between atoms: C_20  and  C_21
REMARK   17  A    between atoms: C_21  and  C_22
REMARK   18  A    between atoms: C_23  and  C_24
REMARK   19  A    between atoms: C_23  and  C_25
REMARK   20  A    between atoms: C_25  and  C_26
REMARK   21  A    between atoms: C_26  and  C_27
REMARK   22  A    between atoms: C_28  and  C_29
REMARK   23  A    between atoms: C_28  and  C_30
REMARK                            x       y       z     vdW  Elec       q    Type
REMARK                         _______ _______ _______ _____ _____    ______ ____
ROOT
ATOM      1  C   UNL     1      -8.413   1.816 130.080  0.00  0.00    +0.000 C 
ENDROOT
BRANCH   1   4
ATOM      2  C   UNL     1      -8.141   4.281 130.186  0.00  0.00    +0.000 C 
ATOM      3  C   UNL     1      -7.136   4.174 129.063  0.00  0.00    +0.000 C 
ATOM      4  C   UNL     1      -8.729   3.165 130.649  0.00  0.00    +0.000 C 
BRANCH   2   5
ATOM      5  C   UNL     1      -8.502   5.612 130.803  0.00  0.00    +0.000 C 
BRANCH   5   6
ATOM      6  C   UNL     1      -9.535   5.472 131.906  0.00  0.00    +0.000 C 
BRANCH   6   9
ATOM      7  C   UNL     1     -11.726   6.269 131.105  0.00  0.00    +0.000 C 
ATOM      8  C   UNL     1     -11.840   5.011 130.266  0.00  0.00    +0.000 C 
ATOM      9  C   UNL     1     -10.637   6.474 131.871  0.00  0.00    +0.000 C 
BRANCH   7  10
ATOM     10  C   UNL     1     -12.815   7.313 131.103  0.00  0.00    +0.000 C 
BRANCH  10  11
ATOM     11  C   UNL     1     -12.646   8.341 129.997  0.00  0.00    +0.000 C 
BRANCH  11  15
ATOM     12  C   UNL     1     -12.209   7.242 126.333  0.00  0.00    +0.000 C 
ATOM     13  C   UNL     1     -11.920   7.768 127.703  0.00  0.00    +0.000 C 
ATOM     14  C   UNL     1     -10.520   8.229 128.014  0.00  0.00    +0.000 C 
ATOM     15  C   UNL     1     -12.901   7.822 128.623  0.00  0.00    +0.000 C 
ENDBRANCH  11  15
ENDBRANCH  10  11
ENDBRANCH   7  10
ENDBRANCH   6   9
ENDBRANCH   5   6
ENDBRANCH   2   5
ENDBRANCH   1   4
BRANCH   1  16
ATOM     16  C   UNL     1      -8.371   0.767 131.166  0.00  0.00    +0.000 C 
BRANCH  16  17
ATOM     17  C   UNL     1      -8.428  -0.613 130.594  0.00  0.00    +0.000 C 
ATOM     18  C   UNL     1      -7.578  -1.579 130.984  0.00  0.00    +0.000 C 
ATOM     19  C   UNL     1      -6.512  -1.324 132.025  0.00  0.00    +0.000 C 
BRANCH  18  20
ATOM     20  C   UNL     1      -7.694  -2.954 130.361  0.00  0.00    +0.000 C 
BRANCH  20  21
ATOM     21  C   UNL     1      -7.100  -2.994 128.965  0.00  0.00    +0.000 C 
BRANCH  21  22
ATOM     22  C   UNL     1      -8.052  -3.392 127.893  0.00  0.00    +0.000 C 
ATOM     23  C   UNL     1      -8.454  -2.510 126.959  0.00  0.00    +0.000 C 
ATOM     24  C   UNL     1      -7.966  -1.076 126.942  0.00  0.00    +0.000 C 
BRANCH  23  25
ATOM     25  C   UNL     1      -9.423  -2.969 125.893  0.00  0.00    +0.000 C 
BRANCH  25  26
ATOM     26  C   UNL     1      -8.796  -2.974 124.507  0.00  0.00    +0.000 C 
BRANCH  26  27
ATOM     27  C   UNL     1      -7.512  -3.728 124.413  0.00  0.00    +0.000 C 
ATOM     28  C   UNL     1      -6.369  -3.135 124.022  0.00  0.00    +0.000 C 
ATOM     29  C   UNL     1      -6.286  -1.677 123.648  0.00  0.00    +0.000 C 
ATOM     30  C   UNL     1      -5.092  -3.917 123.938  0.00  0.00    +0.000 C 
ENDBRANCH  26  27
ENDBRANCH  25  26
ENDBRANCH  23  25
ENDBRANCH  21  22
ENDBRANCH  20  21
ENDBRANCH  18  20
ENDBRANCH  16  17
ENDBRANCH   1  16
TORSDOF 15
ENDMDL
MODEL 8
REMARK VINA RESULT:      -6.1      2.979      7.174
REMARK  Name = Squalene
REMARK  23 active torsions:
REMARK  status: ('A' for Active; 'I' for Inactive)
REMARK    1  A    between atoms: C_1  and  C_2
REMARK    2  A    between atoms: C_2  and  C_3
REMARK    3  A    between atoms: C_4  and  C_5
REMARK    4  A    between atoms: C_5  and  C_6
REMARK    5  A    between atoms: C_6  and  C_7
REMARK    6  A    between atoms: C_7  and  C_8
REMARK    7  A    between atoms: C_9  and  C_10
REMARK    8  A    between atoms: C_10  and  C_11
REMARK    9  A    between atoms: C_11  and  C_12
REMARK   10  A    between atoms: C_12  and  C_13
REMARK   11  A    between atoms: C_14  and  C_15
REMARK   12  A    between atoms: C_15  and  C_16
REMARK   13  A    between atoms: C_16  and  C_17
REMARK   14  A    between atoms: C_18  and  C_19
REMARK   15  A    between atoms: C_18  and  C_20
REMARK   16  A    between atoms: C_20  and  C_21
REMARK   17  A    between atoms: C_21  and  C_22
REMARK   18  A    between atoms: C_23  and  C_24
REMARK   19  A    between atoms: C_23  and  C_25
REMARK   20  A    between atoms: C_25  and  C_26
REMARK   21  A    between atoms: C_26  and  C_27
REMARK   22  A    between atoms: C_28  and  C_29
REMARK   23  A    between atoms: C_28  and  C_30
REMARK                            x       y       z     vdW  Elec       q    Type
REMARK                         _______ _______ _______ _____ _____    ______ ____
ROOT
ATOM      1  C   UNL     1      -4.330  -0.745 130.410  0.00  0.00    +0.000 C 
ENDROOT
BRANCH   1   4
ATOM      2  C   UNL     1      -5.477  -2.863 129.809  0.00  0.00    +0.000 C 
ATOM      3  C   UNL     1      -4.322  -3.175 128.887  0.00  0.00    +0.000 C 
ATOM      4  C   UNL     1      -5.463  -1.718 130.516  0.00  0.00    +0.000 C 
BRANCH   2   5
ATOM      5  C   UNL     1      -6.650  -3.804 129.960  0.00  0.00    +0.000 C 
BRANCH   5   6
ATOM      6  C   UNL     1      -7.964  -3.151 129.571  0.00  0.00    +0.000 C 
BRANCH   6   9
ATOM      7  C   UNL     1      -8.473  -2.794 127.186  0.00  0.00    +0.000 C 
ATOM      8  C   UNL     1      -7.833  -1.424 127.288  0.00  0.00    +0.000 C 
ATOM      9  C   UNL     1      -8.529  -3.596 128.267  0.00  0.00    +0.000 C 
BRANCH   7  10
ATOM     10  C   UNL     1      -9.060  -3.290 125.887  0.00  0.00    +0.000 C 
BRANCH  10  11
ATOM     11  C   UNL     1      -8.259  -2.851 124.673  0.00  0.00    +0.000 C 
BRANCH  11  15
ATOM     12  C   UNL     1      -4.760  -4.217 123.828  0.00  0.00    +0.000 C 
ATOM     13  C   UNL     1      -5.872  -3.285 124.185  0.00  0.00    +0.000 C 
ATOM     14  C   UNL     1      -5.550  -1.828 124.389  0.00  0.00    +0.000 C 
ATOM     15  C   UNL     1      -7.128  -3.755 124.317  0.00  0.00    +0.000 C 
ENDBRANCH  11  15
ENDBRANCH  10  11
ENDBRANCH   7  10
ENDBRANCH   6   9
ENDBRANCH   5   6
ENDBRANCH   2   5
ENDBRANCH   1   4
BRANCH   1  16
ATOM     16  C   UNL     1      -4.820   0.607 129.947  0.00  0.00    +0.000 C 
BRANCH  16  17
ATOM     17  C   UNL     1      -6.312   0.649 129.869  0.00  0.00    +0.000 C 
ATOM     18  C   UNL     1      -7.053   1.320 130.769  0.00  0.00    +0.000 C 
ATOM     19  C   UNL     1      -6.416   2.071 131.915  0.00  0.00    +0.000 C 
BRANCH  18  20
ATOM     20  C   UNL     1      -8.559   1.319 130.626  0.00  0.00    +0.000 C 
BRANCH  20  21
ATOM     21  C   UNL     1      -9.034   2.372 129.641  0.00  0.00    +0.000 C 
BRANCH  21  22
ATOM     22  C   UNL     1      -9.886   3.439 130.231  0.00  0.00    +0.000 C 
ATOM     23  C   UNL     1      -9.378   4.652 130.522  0.00  0.00    +0.000 C 
ATOM     24  C   UNL     1      -7.925   4.998 130.268  0.00  0.00    +0.000 C 
BRANCH  23  25
ATOM     25  C   UNL     1     -10.290   5.698 131.121  0.00  0.00    +0.000 C 
BRANCH  25  26
ATOM     26  C   UNL     1     -11.636   5.762 130.415  0.00  0.00    +0.000 C 
BRANCH  26  27
ATOM     27  C   UNL     1     -12.317   7.086 130.503  0.00  0.00    +0.000 C 
ATOM     28  C   UNL     1     -12.103   8.055 129.594  0.00  0.00    +0.000 C 
ATOM     29  C   UNL     1     -11.169   7.890 128.422  0.00  0.00    +0.000 C 
ATOM     30  C   UNL     1     -12.801   9.377 129.706  0.00  0.00    +0.000 C 
ENDBRANCH  26  27
ENDBRANCH  25  26
ENDBRANCH  23  25
ENDBRANCH  21  22
ENDBRANCH  20  21
ENDBRANCH  18  20
ENDBRANCH  16  17
ENDBRANCH   1  16
TORSDOF 15
ENDMDL
MODEL 9
REMARK VINA RESULT:      -6.0      2.057      5.113
REMARK  Name = Squalene
REMARK  23 active torsions:
REMARK  status: ('A' for Active; 'I' for Inactive)
REMARK    1  A    between atoms: C_1  and  C_2
REMARK    2  A    between atoms: C_2  and  C_3
REMARK    3  A    between atoms: C_4  and  C_5
REMARK    4  A    between atoms: C_5  and  C_6
REMARK    5  A    between atoms: C_6  and  C_7
REMARK    6  A    between atoms: C_7  and  C_8
REMARK    7  A    between atoms: C_9  and  C_10
REMARK    8  A    between atoms: C_10  and  C_11
REMARK    9  A    between atoms: C_11  and  C_12
REMARK   10  A    between atoms: C_12  and  C_13
REMARK   11  A    between atoms: C_14  and  C_15
REMARK   12  A    between atoms: C_15  and  C_16
REMARK   13  A    between atoms: C_16  and  C_17
REMARK   14  A    between atoms: C_18  and  C_19
REMARK   15  A    between atoms: C_18  and  C_20
REMARK   16  A    between atoms: C_20  and  C_21
REMARK   17  A    between atoms: C_21  and  C_22
REMARK   18  A    between atoms: C_23  and  C_24
REMARK   19  A    between atoms: C_23  and  C_25
REMARK   20  A    between atoms: C_25  and  C_26
REMARK   21  A    between atoms: C_26  and  C_27
REMARK   22  A    between atoms: C_28  and  C_29
REMARK   23  A    between atoms: C_28  and  C_30
REMARK                            x       y       z     vdW  Elec       q    Type
REMARK                         _______ _______ _______ _____ _____    ______ ____
ROOT
ATOM      1  C   UNL     1      -8.600  -1.730 122.510  0.00  0.00    +0.000 C 
ENDROOT
BRANCH   1   4
ATOM      2  C   UNL     1      -8.620   0.375 123.826  0.00  0.00    +0.000 C 
ATOM      3  C   UNL     1      -7.219   0.647 123.329  0.00  0.00    +0.000 C 
ATOM      4  C   UNL     1      -9.251  -0.744 123.431  0.00  0.00    +0.000 C 
BRANCH   2   5
ATOM      5  C   UNL     1      -9.331   1.330 124.756  0.00  0.00    +0.000 C 
BRANCH   5   6
ATOM      6  C   UNL     1      -9.439   0.783 126.168  0.00  0.00    +0.000 C 
BRANCH   6   9
ATOM      7  C   UNL     1      -7.736   0.977 127.939  0.00  0.00    +0.000 C 
ATOM      8  C   UNL     1      -8.592   2.038 128.601  0.00  0.00    +0.000 C 
ATOM      9  C   UNL     1      -8.145   0.394 126.795  0.00  0.00    +0.000 C 
BRANCH   7  10
ATOM     10  C   UNL     1      -6.418   0.549 128.536  0.00  0.00    +0.000 C 
BRANCH  10  11
ATOM     11  C   UNL     1      -5.261   0.662 127.556  0.00  0.00    +0.000 C 
BRANCH  11  15
ATOM     12  C   UNL     1      -3.734   4.146 126.962  0.00  0.00    +0.000 C 
ATOM     13  C   UNL     1      -4.559   2.910 126.798  0.00  0.00    +0.000 C 
ATOM     14  C   UNL     1      -5.495   2.822 125.621  0.00  0.00    +0.000 C 
ATOM     15  C   UNL     1      -4.453   1.907 127.691  0.00  0.00    +0.000 C 
ENDBRANCH  11  15
ENDBRANCH  10  11
ENDBRANCH   7  10
ENDBRANCH   6   9
ENDBRANCH   5   6
ENDBRANCH   2   5
ENDBRANCH   1   4
BRANCH   1  16
ATOM     16  C   UNL     1      -8.140  -2.954 123.266  0.00  0.00    +0.000 C 
BRANCH  16  17
ATOM     17  C   UNL     1      -8.905  -3.128 124.539  0.00  0.00    +0.000 C 
ATOM     18  C   UNL     1      -8.314  -3.021 125.743  0.00  0.00    +0.000 C 
ATOM     19  C   UNL     1      -6.839  -2.719 125.877  0.00  0.00    +0.000 C 
BRANCH  18  20
ATOM     20  C   UNL     1      -9.150  -3.209 126.990  0.00  0.00    +0.000 C 
BRANCH  20  21
ATOM     21  C   UNL     1      -8.340  -3.797 128.130  0.00  0.00    +0.000 C 
BRANCH  21  22
ATOM     22  C   UNL     1      -8.406  -3.030 129.404  0.00  0.00    +0.000 C 
ATOM     23  C   UNL     1      -7.292  -2.760 130.110  0.00  0.00    +0.000 C 
ATOM     24  C   UNL     1      -5.921  -3.215 129.656  0.00  0.00    +0.000 C 
BRANCH  23  25
ATOM     25  C   UNL     1      -7.419  -1.977 131.397  0.00  0.00    +0.000 C 
BRANCH  25  26
ATOM     26  C   UNL     1      -8.231  -0.703 131.220  0.00  0.00    +0.000 C 
BRANCH  26  27
ATOM     27  C   UNL     1      -7.771   0.443 132.056  0.00  0.00    +0.000 C 
ATOM     28  C   UNL     1      -8.593   1.458 132.382  0.00  0.00    +0.000 C 
ATOM     29  C   UNL     1     -10.032   1.525 131.936  0.00  0.00    +0.000 C 
ATOM     30  C   UNL     1      -8.104   2.597 133.225  0.00  0.00    +0.000 C 
ENDBRANCH  26  27
ENDBRANCH  25  26
ENDBRANCH  23  25
ENDBRANCH  21  22
ENDBRANCH  20  21
ENDBRANCH  18  20
ENDBRANCH  16  17
ENDBRANCH   1  16
TORSDOF 15
ENDMDL
