MODEL 1
REMARK VINA RESULT:      -8.3      0.000      0.000
REMARK  Name = Stanozolol
REMARK  4 active torsions:
REMARK  status: ('A' for Active; 'I' for Inactive)
REMARK    1  A    between atoms: C_5  and  C_6
REMARK    2  A    between atoms: C_5  and  O_7
REMARK    3  A    between atoms: C_8  and  C_9
REMARK    4  A    between atoms: C_27  and  C_28
REMARK                            x       y       z     vdW  Elec       q    Type
REMARK                         _______ _______ _______ _____ _____    ______ ____
ROOT
ATOM      1  C   UNL     1      -8.540   2.106 132.010  0.00  0.00    +0.000 C 
ATOM      2  C   UNL     1      -9.867   1.610 131.914  0.00  0.00    +0.000 C 
ATOM      3  C   UNL     1      -9.328   2.258 130.698  0.00  0.00    +0.000 C 
ATOM      4  C   UNL     1      -7.242   2.484 130.742  0.00  0.00    +0.000 C 
ATOM      5  C   UNL     1      -6.125   1.969 131.898  0.00  0.00    +0.000 C 
ATOM      6  C   UNL     1      -8.020   1.407 130.338  0.00  0.00    +0.000 C 
ATOM      7  C   UNL     1      -7.720  -0.024 130.316  0.00  0.00    +0.000 C 
ATOM      8  C   UNL     1      -8.318   2.402 128.784  0.00  0.00    +0.000 C 
ATOM      9  C   UNL     1      -8.289   4.097 129.128  0.00  0.00    +0.000 C 
ATOM     10  C   UNL     1      -8.986   4.717 130.468  0.00  0.00    +0.000 C 
ATOM     11  C   UNL     1      -8.523   3.948 131.970  0.00  0.00    +0.000 C 
ATOM     12  C   UNL     1      -9.347   4.383 133.153  0.00  0.00    +0.000 C 
ATOM     13  C   UNL     1      -9.460   5.878 133.209  0.00  0.00    +0.000 C 
ATOM     14  C   UNL     1      -9.986   6.491 131.912  0.00  0.00    +0.000 C 
ATOM     15  C   UNL     1     -11.487   6.010 131.605  0.00  0.00    +0.000 C 
ATOM     16  C   UNL     1     -11.986   6.641 130.328  0.00  0.00    +0.000 A 
ATOM     17  N   UNL     1     -12.351   6.013 129.162  0.00  0.00    +0.000 NA
ATOM     18  N   UNL     1     -12.399   7.092 128.277  0.00  0.00    +0.000 N 
ATOM     19  C   UNL     1     -12.252   8.263 129.018  0.00  0.00    +0.000 A 
ATOM     20  C   UNL     1     -11.234   7.716 129.826  0.00  0.00    +0.000 A 
ATOM     21  C   UNL     1      -9.768   7.103 129.469  0.00  0.00    +0.000 C 
ATOM     22  C   UNL     1      -9.071   6.269 130.661  0.00  0.00    +0.000 C 
ATOM     23  C   UNL     1      -7.615   6.696 130.825  0.00  0.00    +0.000 C 
ATOM     24  H   UNL     1     -12.079   7.055 127.312  0.00  0.00    +0.000 HD
ENDROOT
BRANCH   4  25
ATOM     25  O   UNL     1      -6.275   2.404 129.616  0.00  0.00    +0.000 OA
ATOM     26  H   UNL     1      -6.094   1.498 129.308  0.00  0.00    +0.000 HD
ENDBRANCH   4  25
TORSDOF 1
ENDMDL
MODEL 2
REMARK VINA RESULT:      -8.2      6.142      8.344
REMARK  Name = Stanozolol
REMARK  4 active torsions:
REMARK  status: ('A' for Active; 'I' for Inactive)
REMARK    1  A    between atoms: C_5  and  C_6
REMARK    2  A    between atoms: C_5  and  O_7
REMARK    3  A    between atoms: C_8  and  C_9
REMARK    4  A    between atoms: C_27  and  C_28
REMARK                            x       y       z     vdW  Elec       q    Type
REMARK                         _______ _______ _______ _____ _____    ______ ____
ROOT
ATOM      1  C   UNL     1      -7.434  -2.243 123.273  0.00  0.00    +0.000 C 
ATOM      2  C   UNL     1      -6.531  -1.771 122.284  0.00  0.00    +0.000 C 
ATOM      3  C   UNL     1      -6.211  -1.404 123.681  0.00  0.00    +0.000 C 
ATOM      4  C   UNL     1      -7.260  -2.547 125.093  0.00  0.00    +0.000 C 
ATOM      5  C   UNL     1      -8.319  -3.841 124.862  0.00  0.00    +0.000 C 
ATOM      6  C   UNL     1      -6.062  -2.807 124.439  0.00  0.00    +0.000 C 
ATOM      7  C   UNL     1      -5.424  -4.077 124.098  0.00  0.00    +0.000 C 
ATOM      8  C   UNL     1      -5.316  -1.592 125.648  0.00  0.00    +0.000 C 
ATOM      9  C   UNL     1      -6.471  -0.384 126.093  0.00  0.00    +0.000 C 
ATOM     10  C   UNL     1      -7.481   0.289 125.000  0.00  0.00    +0.000 C 
ATOM     11  C   UNL     1      -8.378  -0.849 124.019  0.00  0.00    +0.000 C 
ATOM     12  C   UNL     1      -9.122  -0.209 122.876  0.00  0.00    +0.000 C 
ATOM     13  C   UNL     1      -9.898   0.986 123.340  0.00  0.00    +0.000 C 
ATOM     14  C   UNL     1      -9.042   2.009 124.086  0.00  0.00    +0.000 C 
ATOM     15  C   UNL     1      -7.918   2.638 123.128  0.00  0.00    +0.000 C 
ATOM     16  C   UNL     1      -7.097   3.655 123.885  0.00  0.00    +0.000 A 
ATOM     17  N   UNL     1      -5.754   3.612 124.171  0.00  0.00    +0.000 NA
ATOM     18  N   UNL     1      -5.650   4.615 125.135  0.00  0.00    +0.000 N 
ATOM     19  C   UNL     1      -6.873   5.282 125.195  0.00  0.00    +0.000 A 
ATOM     20  C   UNL     1      -7.617   4.087 125.115  0.00  0.00    +0.000 A 
ATOM     21  C   UNL     1      -7.664   2.765 126.065  0.00  0.00    +0.000 C 
ATOM     22  C   UNL     1      -8.401   1.486 125.415  0.00  0.00    +0.000 C 
ATOM     23  C   UNL     1      -9.373   0.868 126.417  0.00  0.00    +0.000 C 
ATOM     24  H   UNL     1      -5.060   4.556 125.962  0.00  0.00    +0.000 HD
ENDROOT
BRANCH   4  25
ATOM     25  O   UNL     1      -6.808  -3.017 126.429  0.00  0.00    +0.000 OA
ATOM     26  H   UNL     1      -7.526  -3.131 127.078  0.00  0.00    +0.000 HD
ENDBRANCH   4  25
TORSDOF 1
ENDMDL
MODEL 3
REMARK VINA RESULT:      -8.0      4.681      7.108
REMARK  Name = Stanozolol
REMARK  4 active torsions:
REMARK  status: ('A' for Active; 'I' for Inactive)
REMARK    1  A    between atoms: C_5  and  C_6
REMARK    2  A    between atoms: C_5  and  O_7
REMARK    3  A    between atoms: C_8  and  C_9
REMARK    4  A    between atoms: C_27  and  C_28
REMARK                            x       y       z     vdW  Elec       q    Type
REMARK                         _______ _______ _______ _____ _____    ______ ____
ROOT
ATOM      1  C   UNL     1      -2.359   6.084 129.419  0.00  0.00    +0.000 C 
ATOM      2  C   UNL     1      -2.485   7.139 128.477  0.00  0.00    +0.000 C 
ATOM      3  C   UNL     1      -3.747   6.649 129.072  0.00  0.00    +0.000 C 
ATOM      4  C   UNL     1      -3.448   5.488 130.795  0.00  0.00    +0.000 C 
ATOM      5  C   UNL     1      -2.018   5.122 131.614  0.00  0.00    +0.000 C 
ATOM      6  C   UNL     1      -3.557   6.866 130.647  0.00  0.00    +0.000 C 
ATOM      7  C   UNL     1      -3.012   7.952 131.460  0.00  0.00    +0.000 C 
ATOM      8  C   UNL     1      -5.392   6.548 130.482  0.00  0.00    +0.000 C 
ATOM      9  C   UNL     1      -5.683   5.004 129.759  0.00  0.00    +0.000 C 
ATOM     10  C   UNL     1      -4.790   4.455 128.507  0.00  0.00    +0.000 C 
ATOM     11  C   UNL     1      -3.058   4.518 128.746  0.00  0.00    +0.000 C 
ATOM     12  C   UNL     1      -2.263   4.225 127.501  0.00  0.00    +0.000 C 
ATOM     13  C   UNL     1      -2.769   2.989 126.818  0.00  0.00    +0.000 C 
ATOM     14  C   UNL     1      -4.268   3.037 126.521  0.00  0.00    +0.000 C 
ATOM     15  C   UNL     1      -4.620   4.213 125.486  0.00  0.00    +0.000 C 
ATOM     16  C   UNL     1      -6.102   4.227 125.199  0.00  0.00    +0.000 A 
ATOM     17  N   UNL     1      -7.006   5.225 125.472  0.00  0.00    +0.000 NA
ATOM     18  N   UNL     1      -8.215   4.552 125.291  0.00  0.00    +0.000 N 
ATOM     19  C   UNL     1      -7.934   3.299 124.749  0.00  0.00    +0.000 A 
ATOM     20  C   UNL     1      -6.828   3.094 125.600  0.00  0.00    +0.000 A 
ATOM     21  C   UNL     1      -6.695   3.034 127.222  0.00  0.00    +0.000 C 
ATOM     22  C   UNL     1      -5.186   3.123 127.785  0.00  0.00    +0.000 C 
ATOM     23  C   UNL     1      -4.952   2.050 128.845  0.00  0.00    +0.000 C 
ATOM     24  H   UNL     1      -9.036   4.681 125.878  0.00  0.00    +0.000 HD
ENDROOT
BRANCH   4  25
ATOM     25  O   UNL     1      -4.295   5.399 132.013  0.00  0.00    +0.000 OA
ATOM     26  H   UNL     1      -4.843   4.595 132.061  0.00  0.00    +0.000 HD
ENDBRANCH   4  25
TORSDOF 1
ENDMDL
MODEL 4
REMARK VINA RESULT:      -7.8      6.922      9.306
REMARK  Name = Stanozolol
REMARK  4 active torsions:
REMARK  status: ('A' for Active; 'I' for Inactive)
REMARK    1  A    between atoms: C_5  and  C_6
REMARK    2  A    between atoms: C_5  and  O_7
REMARK    3  A    between atoms: C_8  and  C_9
REMARK    4  A    between atoms: C_27  and  C_28
REMARK                            x       y       z     vdW  Elec       q    Type
REMARK                         _______ _______ _______ _____ _____    ______ ____
ROOT
ATOM      1  C   UNL     1      -6.698  -1.192 125.208  0.00  0.00    +0.000 C 
ATOM      2  C   UNL     1      -5.623  -2.079 124.939  0.00  0.00    +0.000 C 
ATOM      3  C   UNL     1      -6.728  -2.629 125.753  0.00  0.00    +0.000 C 
ATOM      4  C   UNL     1      -8.473  -1.467 125.666  0.00  0.00    +0.000 C 
ATOM      5  C   UNL     1      -8.803  -0.084 124.757  0.00  0.00    +0.000 C 
ATOM      6  C   UNL     1      -8.024  -2.477 124.825  0.00  0.00    +0.000 C 
ATOM      7  C   UNL     1      -8.284  -2.715 123.407  0.00  0.00    +0.000 C 
ATOM      8  C   UNL     1      -8.601  -3.642 126.168  0.00  0.00    +0.000 C 
ATOM      9  C   UNL     1      -8.450  -2.903 127.725  0.00  0.00    +0.000 C 
ATOM     10  C   UNL     1      -7.150  -2.001 128.130  0.00  0.00    +0.000 C 
ATOM     11  C   UNL     1      -6.741  -0.736 126.992  0.00  0.00    +0.000 C 
ATOM     12  C   UNL     1      -5.417  -0.074 127.271  0.00  0.00    +0.000 C 
ATOM     13  C   UNL     1      -5.297   0.303 128.717  0.00  0.00    +0.000 C 
ATOM     14  C   UNL     1      -5.544  -0.868 129.668  0.00  0.00    +0.000 C 
ATOM     15  C   UNL     1      -4.433  -2.013 129.483  0.00  0.00    +0.000 C 
ATOM     16  C   UNL     1      -4.691  -3.148 130.444  0.00  0.00    +0.000 A 
ATOM     17  N   UNL     1      -4.998  -4.454 130.145  0.00  0.00    +0.000 NA
ATOM     18  N   UNL     1      -5.431  -4.921 131.386  0.00  0.00    +0.000 N 
ATOM     19  C   UNL     1      -5.168  -3.934 132.334  0.00  0.00    +0.000 A 
ATOM     20  C   UNL     1      -5.599  -2.894 131.484  0.00  0.00    +0.000 A 
ATOM     21  C   UNL     1      -7.027  -2.596 130.762  0.00  0.00    +0.000 C 
ATOM     22  C   UNL     1      -6.982  -1.481 129.597  0.00  0.00    +0.000 C 
ATOM     23  C   UNL     1      -8.130  -0.490 129.767  0.00  0.00    +0.000 C 
ATOM     24  H   UNL     1      -6.215  -5.557 131.517  0.00  0.00    +0.000 HD
ENDROOT
BRANCH   4  25
ATOM     25  O   UNL     1      -9.890  -1.915 125.698  0.00  0.00    +0.000 OA
ATOM     26  H   UNL     1     -10.263  -1.999 126.594  0.00  0.00    +0.000 HD
ENDBRANCH   4  25
TORSDOF 1
ENDMDL
MODEL 5
REMARK VINA RESULT:      -7.7      5.570      8.213
REMARK  Name = Stanozolol
REMARK  4 active torsions:
REMARK  status: ('A' for Active; 'I' for Inactive)
REMARK    1  A    between atoms: C_5  and  C_6
REMARK    2  A    between atoms: C_5  and  O_7
REMARK    3  A    between atoms: C_8  and  C_9
REMARK    4  A    between atoms: C_27  and  C_28
REMARK                            x       y       z     vdW  Elec       q    Type
REMARK                         _______ _______ _______ _____ _____    ______ ____
ROOT
ATOM      1  C   UNL     1      -7.148  -2.210 123.690  0.00  0.00    +0.000 C 
ATOM      2  C   UNL     1      -5.812  -2.372 124.140  0.00  0.00    +0.000 C 
ATOM      3  C   UNL     1      -6.817  -2.087 125.187  0.00  0.00    +0.000 C 
ATOM      4  C   UNL     1      -8.790  -2.377 124.535  0.00  0.00    +0.000 C 
ATOM      5  C   UNL     1      -9.363  -2.955 123.056  0.00  0.00    +0.000 C 
ATOM      6  C   UNL     1      -7.876  -3.281 125.062  0.00  0.00    +0.000 C 
ATOM      7  C   UNL     1      -7.752  -4.725 124.870  0.00  0.00    +0.000 C 
ATOM      8  C   UNL     1      -8.299  -2.513 126.712  0.00  0.00    +0.000 C 
ATOM      9  C   UNL     1      -8.715  -0.844 126.521  0.00  0.00    +0.000 C 
ATOM     10  C   UNL     1      -7.892   0.140 125.512  0.00  0.00    +0.000 C 
ATOM     11  C   UNL     1      -7.697  -0.462 123.881  0.00  0.00    +0.000 C 
ATOM     12  C   UNL     1      -6.746   0.352 123.043  0.00  0.00    +0.000 C 
ATOM     13  C   UNL     1      -7.051   1.816 123.152  0.00  0.00    +0.000 C 
ATOM     14  C   UNL     1      -7.088   2.318 124.595  0.00  0.00    +0.000 C 
ATOM     15  C   UNL     1      -5.652   2.179 125.298  0.00  0.00    +0.000 C 
ATOM     16  C   UNL     1      -5.713   2.695 126.715  0.00  0.00    +0.000 A 
ATOM     17  N   UNL     1      -5.510   1.994 127.880  0.00  0.00    +0.000 NA
ATOM     18  N   UNL     1      -6.009   2.890 128.826  0.00  0.00    +0.000 N 
ATOM     19  C   UNL     1      -6.279   4.094 128.178  0.00  0.00    +0.000 A 
ATOM     20  C   UNL     1      -6.845   3.453 127.056  0.00  0.00    +0.000 A 
ATOM     21  C   UNL     1      -8.116   2.448 126.900  0.00  0.00    +0.000 C 
ATOM     22  C   UNL     1      -8.202   1.675 125.487  0.00  0.00    +0.000 C 
ATOM     23  C   UNL     1      -9.620   1.750 124.927  0.00  0.00    +0.000 C 
ATOM     24  H   UNL     1      -6.551   2.617 129.643  0.00  0.00    +0.000 HD
ENDROOT
BRANCH   4  25
ATOM     25  O   UNL     1      -9.959  -2.878 125.305  0.00  0.00    +0.000 OA
ATOM     26  H   UNL     1     -10.551  -2.178 125.634  0.00  0.00    +0.000 HD
ENDBRANCH   4  25
TORSDOF 1
ENDMDL
MODEL 6
REMARK VINA RESULT:      -7.6      5.769      8.187
REMARK  Name = Stanozolol
REMARK  4 active torsions:
REMARK  status: ('A' for Active; 'I' for Inactive)
REMARK    1  A    between atoms: C_5  and  C_6
REMARK    2  A    between atoms: C_5  and  O_7
REMARK    3  A    between atoms: C_8  and  C_9
REMARK    4  A    between atoms: C_27  and  C_28
REMARK                            x       y       z     vdW  Elec       q    Type
REMARK                         _______ _______ _______ _____ _____    ______ ____
ROOT
ATOM      1  C   UNL     1      -8.310  -2.435 125.619  0.00  0.00    +0.000 C 
ATOM      2  C   UNL     1      -9.326  -1.468 125.836  0.00  0.00    +0.000 C 
ATOM      3  C   UNL     1      -7.937  -0.963 125.859  0.00  0.00    +0.000 C 
ATOM      4  C   UNL     1      -6.557  -2.308 125.029  0.00  0.00    +0.000 C 
ATOM      5  C   UNL     1      -6.819  -3.801 124.287  0.00  0.00    +0.000 C 
ATOM      6  C   UNL     1      -7.348  -1.342 124.419  0.00  0.00    +0.000 C 
ATOM      7  C   UNL     1      -7.880  -1.274 123.060  0.00  0.00    +0.000 C 
ATOM      8  C   UNL     1      -6.097  -0.120 125.078  0.00  0.00    +0.000 C 
ATOM      9  C   UNL     1      -5.417  -0.683 126.566  0.00  0.00    +0.000 C 
ATOM     10  C   UNL     1      -6.330  -1.397 127.716  0.00  0.00    +0.000 C 
ATOM     11  C   UNL     1      -7.334  -2.716 127.156  0.00  0.00    +0.000 C 
ATOM     12  C   UNL     1      -8.326  -3.201 128.179  0.00  0.00    +0.000 C 
ATOM     13  C   UNL     1      -7.665  -3.421 129.508  0.00  0.00    +0.000 C 
ATOM     14  C   UNL     1      -6.903  -2.196 130.011  0.00  0.00    +0.000 C 
ATOM     15  C   UNL     1      -7.894  -0.962 130.282  0.00  0.00    +0.000 C 
ATOM     16  C   UNL     1      -7.118   0.228 130.792  0.00  0.00    +0.000 A 
ATOM     17  N   UNL     1      -6.970   1.458 130.197  0.00  0.00    +0.000 NA
ATOM     18  N   UNL     1      -5.920   1.995 130.943  0.00  0.00    +0.000 N 
ATOM     19  C   UNL     1      -5.672   1.139 132.015  0.00  0.00    +0.000 A 
ATOM     20  C   UNL     1      -5.804  -0.019 131.221  0.00  0.00    +0.000 A 
ATOM     21  C   UNL     1      -4.998  -0.538 129.905  0.00  0.00    +0.000 C 
ATOM     22  C   UNL     1      -5.705  -1.750 129.108  0.00  0.00    +0.000 C 
ATOM     23  C   UNL     1      -4.683  -2.837 128.783  0.00  0.00    +0.000 C 
ATOM     24  H   UNL     1      -5.165   2.553 130.551  0.00  0.00    +0.000 HD
ENDROOT
BRANCH   4  25
ATOM     25  O   UNL     1      -5.328  -2.014 124.246  0.00  0.00    +0.000 OA
ATOM     26  H   UNL     1      -4.814  -1.255 124.578  0.00  0.00    +0.000 HD
ENDBRANCH   4  25
TORSDOF 1
ENDMDL
MODEL 7
REMARK VINA RESULT:      -7.5      4.634      7.206
REMARK  Name = Stanozolol
REMARK  4 active torsions:
REMARK  status: ('A' for Active; 'I' for Inactive)
REMARK    1  A    between atoms: C_5  and  C_6
REMARK    2  A    between atoms: C_5  and  O_7
REMARK    3  A    between atoms: C_8  and  C_9
REMARK    4  A    between atoms: C_27  and  C_28
REMARK                            x       y       z     vdW  Elec       q    Type
REMARK                         _______ _______ _______ _____ _____    ______ ____
ROOT
ATOM      1  C   UNL     1      -7.798  -2.934 125.875  0.00  0.00    +0.000 C 
ATOM      2  C   UNL     1      -8.969  -3.020 126.674  0.00  0.00    +0.000 C 
ATOM      3  C   UNL     1      -8.804  -1.771 125.898  0.00  0.00    +0.000 C 
ATOM      4  C   UNL     1      -7.366  -1.929 124.379  0.00  0.00    +0.000 C 
ATOM      5  C   UNL     1      -6.464  -3.266 123.882  0.00  0.00    +0.000 C 
ATOM      6  C   UNL     1      -8.717  -2.254 124.374  0.00  0.00    +0.000 C 
ATOM      7  C   UNL     1      -9.452  -3.239 123.583  0.00  0.00    +0.000 C 
ATOM      8  C   UNL     1      -9.003  -0.414 124.218  0.00  0.00    +0.000 C 
ATOM      9  C   UNL     1      -7.746   0.471 125.012  0.00  0.00    +0.000 C 
ATOM     10  C   UNL     1      -7.143   0.004 126.456  0.00  0.00    +0.000 C 
ATOM     11  C   UNL     1      -6.638  -1.669 126.545  0.00  0.00    +0.000 C 
ATOM     12  C   UNL     1      -6.304  -2.129 127.940  0.00  0.00    +0.000 C 
ATOM     13  C   UNL     1      -5.398  -1.151 128.626  0.00  0.00    +0.000 C 
ATOM     14  C   UNL     1      -5.944   0.277 128.628  0.00  0.00    +0.000 C 
ATOM     15  C   UNL     1      -7.311   0.378 129.464  0.00  0.00    +0.000 C 
ATOM     16  C   UNL     1      -7.819   1.799 129.463  0.00  0.00    +0.000 A 
ATOM     17  N   UNL     1      -8.993   2.276 128.931  0.00  0.00    +0.000 NA
ATOM     18  N   UNL     1      -8.756   3.651 128.942  0.00  0.00    +0.000 N 
ATOM     19  C   UNL     1      -7.572   3.878 129.641  0.00  0.00    +0.000 A 
ATOM     20  C   UNL     1      -6.915   2.786 129.038  0.00  0.00    +0.000 A 
ATOM     21  C   UNL     1      -6.579   2.438 127.483  0.00  0.00    +0.000 C 
ATOM     22  C   UNL     1      -6.118   0.917 127.211  0.00  0.00    +0.000 C 
ATOM     23  C   UNL     1      -4.880   0.889 126.318  0.00  0.00    +0.000 C 
ATOM     24  H   UNL     1      -9.041   4.287 128.201  0.00  0.00    +0.000 HD
ENDROOT
BRANCH   4  25
ATOM     25  O   UNL     1      -7.359  -1.291 123.035  0.00  0.00    +0.000 OA
ATOM     26  H   UNL     1      -6.916  -1.817 122.345  0.00  0.00    +0.000 HD
ENDBRANCH   4  25
TORSDOF 1
ENDMDL
MODEL 8
REMARK VINA RESULT:      -7.5      3.143      4.668
REMARK  Name = Stanozolol
REMARK  4 active torsions:
REMARK  status: ('A' for Active; 'I' for Inactive)
REMARK    1  A    between atoms: C_5  and  C_6
REMARK    2  A    between atoms: C_5  and  O_7
REMARK    3  A    between atoms: C_8  and  C_9
REMARK    4  A    between atoms: C_27  and  C_28
REMARK                            x       y       z     vdW  Elec       q    Type
REMARK                         _______ _______ _______ _____ _____    ______ ____
ROOT
ATOM      1  C   UNL     1      -3.817   4.456 129.873  0.00  0.00    +0.000 C 
ATOM      2  C   UNL     1      -4.220   4.375 128.515  0.00  0.00    +0.000 C 
ATOM      3  C   UNL     1      -4.580   5.623 129.224  0.00  0.00    +0.000 C 
ATOM      4  C   UNL     1      -3.521   5.885 131.016  0.00  0.00    +0.000 C 
ATOM      5  C   UNL     1      -2.296   4.942 131.693  0.00  0.00    +0.000 C 
ATOM      6  C   UNL     1      -3.178   6.223 129.713  0.00  0.00    +0.000 C 
ATOM      7  C   UNL     1      -1.866   6.367 129.085  0.00  0.00    +0.000 C 
ATOM      8  C   UNL     1      -4.355   7.658 129.938  0.00  0.00    +0.000 C 
ATOM      9  C   UNL     1      -5.640   7.232 131.016  0.00  0.00    +0.000 C 
ATOM     10  C   UNL     1      -6.365   5.770 130.959  0.00  0.00    +0.000 C 
ATOM     11  C   UNL     1      -5.277   4.400 130.995  0.00  0.00    +0.000 C 
ATOM     12  C   UNL     1      -5.952   3.083 130.712  0.00  0.00    +0.000 C 
ATOM     13  C   UNL     1      -7.199   2.931 131.530  0.00  0.00    +0.000 C 
ATOM     14  C   UNL     1      -8.173   4.098 131.368  0.00  0.00    +0.000 C 
ATOM     15  C   UNL     1      -8.718   4.198 129.861  0.00  0.00    +0.000 C 
ATOM     16  C   UNL     1      -9.687   5.348 129.733  0.00  0.00    +0.000 A 
ATOM     17  N   UNL     1      -9.561   6.477 128.959  0.00  0.00    +0.000 NA
ATOM     18  N   UNL     1     -10.565   7.285 129.494  0.00  0.00    +0.000 N 
ATOM     19  C   UNL     1     -11.310   6.514 130.384  0.00  0.00    +0.000 A 
ATOM     20  C   UNL     1     -10.165   5.901 130.932  0.00  0.00    +0.000 A 
ATOM     21  C   UNL     1      -8.859   6.509 131.691  0.00  0.00    +0.000 C 
ATOM     22  C   UNL     1      -7.623   5.483 131.846  0.00  0.00    +0.000 C 
ATOM     23  C   UNL     1      -7.079   5.521 133.272  0.00  0.00    +0.000 C 
ATOM     24  H   UNL     1     -10.477   8.289 129.639  0.00  0.00    +0.000 HD
ENDROOT
BRANCH   4  25
ATOM     25  O   UNL     1      -3.037   7.148 131.633  0.00  0.00    +0.000 OA
ATOM     26  H   UNL     1      -3.725   7.655 132.099  0.00  0.00    +0.000 HD
ENDBRANCH   4  25
TORSDOF 1
ENDMDL
MODEL 9
REMARK VINA RESULT:      -7.4      5.774      7.920
REMARK  Name = Stanozolol
REMARK  4 active torsions:
REMARK  status: ('A' for Active; 'I' for Inactive)
REMARK    1  A    between atoms: C_5  and  C_6
REMARK    2  A    between atoms: C_5  and  O_7
REMARK    3  A    between atoms: C_8  and  C_9
REMARK    4  A    between atoms: C_27  and  C_28
REMARK                            x       y       z     vdW  Elec       q    Type
REMARK                         _______ _______ _______ _____ _____    ______ ____
ROOT
ATOM      1  C   UNL     1      -7.654  -1.448 123.708  0.00  0.00    +0.000 C 
ATOM      2  C   UNL     1      -6.560  -1.149 122.854  0.00  0.00    +0.000 C 
ATOM      3  C   UNL     1      -6.266  -1.159 124.303  0.00  0.00    +0.000 C 
ATOM      4  C   UNL     1      -7.758  -2.100 125.439  0.00  0.00    +0.000 C 
ATOM      5  C   UNL     1      -9.158  -2.896 124.933  0.00  0.00    +0.000 C 
ATOM      6  C   UNL     1      -6.658  -2.636 124.781  0.00  0.00    +0.000 C 
ATOM      7  C   UNL     1      -6.446  -3.969 124.220  0.00  0.00    +0.000 C 
ATOM      8  C   UNL     1      -5.667  -1.976 126.221  0.00  0.00    +0.000 C 
ATOM      9  C   UNL     1      -6.395  -0.541 126.859  0.00  0.00    +0.000 C 
ATOM     10  C   UNL     1      -7.022   0.612 125.888  0.00  0.00    +0.000 C 
ATOM     11  C   UNL     1      -8.150   0.035 124.681  0.00  0.00    +0.000 C 
ATOM     12  C   UNL     1      -8.533   1.076 123.662  0.00  0.00    +0.000 C 
ATOM     13  C   UNL     1      -8.912   2.366 124.327  0.00  0.00    +0.000 C 
ATOM     14  C   UNL     1      -7.838   2.891 125.279  0.00  0.00    +0.000 C 
ATOM     15  C   UNL     1      -6.487   3.255 124.492  0.00  0.00    +0.000 C 
ATOM     16  C   UNL     1      -5.450   3.784 125.453  0.00  0.00    +0.000 A 
ATOM     17  N   UNL     1      -4.228   3.237 125.763  0.00  0.00    +0.000 NA
ATOM     18  N   UNL     1      -3.889   3.964 126.905  0.00  0.00    +0.000 N 
ATOM     19  C   UNL     1      -4.823   4.987 127.058  0.00  0.00    +0.000 A 
ATOM     20  C   UNL     1      -5.909   4.149 126.729  0.00  0.00    +0.000 A 
ATOM     21  C   UNL     1      -6.476   2.781 127.405  0.00  0.00    +0.000 C 
ATOM     22  C   UNL     1      -7.530   1.961 126.500  0.00  0.00    +0.000 C 
ATOM     23  C   UNL     1      -8.739   1.549 127.337  0.00  0.00    +0.000 C 
ATOM     24  H   UNL     1      -3.429   3.566 127.721  0.00  0.00    +0.000 HD
ENDROOT
BRANCH   4  25
ATOM     25  O   UNL     1      -7.610  -2.919 126.672  0.00  0.00    +0.000 OA
ATOM     26  H   UNL     1      -7.412  -3.858 126.507  0.00  0.00    +0.000 HD
ENDBRANCH   4  25
TORSDOF 1
ENDMDL
