MODEL 1
REMARK VINA RESULT:      -6.9      0.000      0.000
REMARK  Name = Stavudine
REMARK  4 active torsions:
REMARK  status: ('A' for Active; 'I' for Inactive)
REMARK    1  A    between atoms: C_1  and  C_2
REMARK    2  A    between atoms: N_4  and  C_5
REMARK    3  A    between atoms: C_7  and  C_8
REMARK    4  A    between atoms: C_8  and  O_9
REMARK                            x       y       z     vdW  Elec       q    Type
REMARK                         _______ _______ _______ _____ _____    ______ ____
ROOT
ATOM      1  C   UNL     1      -7.165   6.601 130.990  0.00  0.00    +0.000 C 
ATOM      2  C   UNL     1      -8.636   6.495 131.222  0.00  0.00    +0.000 A 
ATOM      3  C   UNL     1      -9.578   6.742 130.298  0.00  0.00    +0.000 A 
ATOM      4  N   UNL     1     -10.925   6.817 130.620  0.00  0.00    +0.000 N 
ATOM      5  C   UNL     1     -11.377   6.420 131.875  0.00  0.00    +0.000 A 
ATOM      6  O   UNL     1     -12.547   6.465 132.246  0.00  0.00    +0.000 OA
ATOM      7  N   UNL     1     -10.419   5.955 132.738  0.00  0.00    +0.000 N 
ATOM      8  C   UNL     1      -9.079   6.119 132.583  0.00  0.00    +0.000 A 
ATOM      9  O   UNL     1      -8.287   5.959 133.513  0.00  0.00    +0.000 OA
ATOM     10  H   UNL     1     -10.742   5.676 133.651  0.00  0.00    +0.000 HD
ENDROOT
BRANCH   4  11
ATOM     11  C   UNL     1     -11.951   7.100 129.624  0.00  0.00    +0.000 C 
ATOM     12  O   UNL     1     -11.567   6.460 128.394  0.00  0.00    +0.000 OA
ATOM     13  C   UNL     1     -11.783   7.376 127.302  0.00  0.00    +0.000 C 
ATOM     14  C   UNL     1     -12.185   8.660 127.933  0.00  0.00    +0.000 C 
ATOM     15  C   UNL     1     -12.198   8.528 129.262  0.00  0.00    +0.000 C 
BRANCH  13  16
ATOM     16  C   UNL     1     -10.507   7.501 126.454  0.00  0.00    +0.000 C 
BRANCH  16  17
ATOM     17  O   UNL     1      -9.753   6.291 126.450  0.00  0.00    +0.000 OA
ATOM     18  H   UNL     1     -10.383   5.563 126.592  0.00  0.00    +0.000 HD
ENDBRANCH  16  17
ENDBRANCH  13  16
ENDBRANCH   4  11
TORSDOF 3
ENDMDL
MODEL 2
REMARK VINA RESULT:      -6.4      8.385     10.364
REMARK  Name = Stavudine
REMARK  4 active torsions:
REMARK  status: ('A' for Active; 'I' for Inactive)
REMARK    1  A    between atoms: C_1  and  C_2
REMARK    2  A    between atoms: N_4  and  C_5
REMARK    3  A    between atoms: C_7  and  C_8
REMARK    4  A    between atoms: C_8  and  O_9
REMARK                            x       y       z     vdW  Elec       q    Type
REMARK                         _______ _______ _______ _____ _____    ______ ____
ROOT
ATOM      1  C   UNL     1      -7.535   4.325 118.807  0.00  0.00    +0.000 C 
ATOM      2  C   UNL     1      -6.866   4.151 120.130  0.00  0.00    +0.000 A 
ATOM      3  C   UNL     1      -7.347   3.410 121.141  0.00  0.00    +0.000 A 
ATOM      4  N   UNL     1      -6.786   3.441 122.409  0.00  0.00    +0.000 N 
ATOM      5  C   UNL     1      -5.564   4.071 122.629  0.00  0.00    +0.000 A 
ATOM      6  O   UNL     1      -5.005   4.154 123.720  0.00  0.00    +0.000 OA
ATOM      7  N   UNL     1      -4.974   4.634 121.529  0.00  0.00    +0.000 N 
ATOM      8  C   UNL     1      -5.594   4.878 120.345  0.00  0.00    +0.000 A 
ATOM      9  O   UNL     1      -5.125   5.647 119.504  0.00  0.00    +0.000 OA
ATOM     10  H   UNL     1      -4.094   5.100 121.687  0.00  0.00    +0.000 HD
ENDROOT
BRANCH   4  11
ATOM     11  C   UNL     1      -7.313   2.650 123.515  0.00  0.00    +0.000 C 
ATOM     12  O   UNL     1      -7.715   1.370 122.996  0.00  0.00    +0.000 OA
ATOM     13  C   UNL     1      -8.998   1.020 123.553  0.00  0.00    +0.000 C 
ATOM     14  C   UNL     1      -9.432   2.209 124.329  0.00  0.00    +0.000 C 
ATOM     15  C   UNL     1      -8.511   3.173 124.238  0.00  0.00    +0.000 C 
BRANCH  13  16
ATOM     16  C   UNL     1      -9.980   0.648 122.430  0.00  0.00    +0.000 C 
BRANCH  16  17
ATOM     17  O   UNL     1     -11.333   0.680 122.877  0.00  0.00    +0.000 OA
ATOM     18  H   UNL     1     -11.314   0.601 123.847  0.00  0.00    +0.000 HD
ENDBRANCH  16  17
ENDBRANCH  13  16
ENDBRANCH   4  11
TORSDOF 3
ENDMDL
MODEL 3
REMARK VINA RESULT:      -6.3      1.601      1.693
REMARK  Name = Stavudine
REMARK  4 active torsions:
REMARK  status: ('A' for Active; 'I' for Inactive)
REMARK    1  A    between atoms: C_1  and  C_2
REMARK    2  A    between atoms: N_4  and  C_5
REMARK    3  A    between atoms: C_7  and  C_8
REMARK    4  A    between atoms: C_8  and  O_9
REMARK                            x       y       z     vdW  Elec       q    Type
REMARK                         _______ _______ _______ _____ _____    ______ ____
ROOT
ATOM      1  C   UNL     1      -6.991   6.920 131.203  0.00  0.00    +0.000 C 
ATOM      2  C   UNL     1      -8.215   6.157 130.819  0.00  0.00    +0.000 A 
ATOM      3  C   UNL     1      -9.334   6.704 130.317  0.00  0.00    +0.000 A 
ATOM      4  N   UNL     1     -10.504   5.977 130.161  0.00  0.00    +0.000 N 
ATOM      5  C   UNL     1     -10.505   4.593 130.311  0.00  0.00    +0.000 A 
ATOM      6  O   UNL     1     -11.497   3.877 130.203  0.00  0.00    +0.000 OA
ATOM      7  N   UNL     1      -9.296   4.022 130.608  0.00  0.00    +0.000 N 
ATOM      8  C   UNL     1      -8.196   4.694 131.041  0.00  0.00    +0.000 A 
ATOM      9  O   UNL     1      -7.246   4.121 131.576  0.00  0.00    +0.000 OA
ATOM     10  H   UNL     1      -9.295   3.021 130.727  0.00  0.00    +0.000 HD
ENDROOT
BRANCH   4  11
ATOM     11  C   UNL     1     -11.726   6.570 129.631  0.00  0.00    +0.000 C 
ATOM     12  O   UNL     1     -11.819   6.228 128.236  0.00  0.00    +0.000 OA
ATOM     13  C   UNL     1     -12.212   7.398 127.491  0.00  0.00    +0.000 C 
ATOM     14  C   UNL     1     -12.219   8.511 128.475  0.00  0.00    +0.000 C 
ATOM     15  C   UNL     1     -11.859   8.057 129.679  0.00  0.00    +0.000 C 
BRANCH  13  16
ATOM     16  C   UNL     1     -11.238   7.636 126.326  0.00  0.00    +0.000 C 
BRANCH  16  17
ATOM     17  O   UNL     1     -10.345   6.539 126.148  0.00  0.00    +0.000 OA
ATOM     18  H   UNL     1      -9.827   6.722 125.344  0.00  0.00    +0.000 HD
ENDBRANCH  16  17
ENDBRANCH  13  16
ENDBRANCH   4  11
TORSDOF 3
ENDMDL
MODEL 4
REMARK VINA RESULT:      -6.1      2.070      2.186
REMARK  Name = Stavudine
REMARK  4 active torsions:
REMARK  status: ('A' for Active; 'I' for Inactive)
REMARK    1  A    between atoms: C_1  and  C_2
REMARK    2  A    between atoms: N_4  and  C_5
REMARK    3  A    between atoms: C_7  and  C_8
REMARK    4  A    between atoms: C_8  and  O_9
REMARK                            x       y       z     vdW  Elec       q    Type
REMARK                         _______ _______ _______ _____ _____    ______ ____
ROOT
ATOM      1  C   UNL     1      -8.396   3.137 129.200  0.00  0.00    +0.000 C 
ATOM      2  C   UNL     1      -9.183   4.097 130.028  0.00  0.00    +0.000 A 
ATOM      3  C   UNL     1      -9.680   5.263 129.586  0.00  0.00    +0.000 A 
ATOM      4  N   UNL     1     -10.233   6.202 130.444  0.00  0.00    +0.000 N 
ATOM      5  C   UNL     1     -10.496   5.881 131.773  0.00  0.00    +0.000 A 
ATOM      6  O   UNL     1     -10.971   6.654 132.600  0.00  0.00    +0.000 OA
ATOM      7  N   UNL     1     -10.185   4.602 132.153  0.00  0.00    +0.000 N 
ATOM      8  C   UNL     1      -9.399   3.744 131.449  0.00  0.00    +0.000 A 
ATOM      9  O   UNL     1      -8.906   2.738 131.961  0.00  0.00    +0.000 OA
ATOM     10  H   UNL     1     -10.365   4.369 133.117  0.00  0.00    +0.000 HD
ENDROOT
BRANCH   4  11
ATOM     11  C   UNL     1     -10.761   7.476 129.971  0.00  0.00    +0.000 C 
ATOM     12  O   UNL     1     -12.102   7.256 129.501  0.00  0.00    +0.000 OA
ATOM     13  C   UNL     1     -12.280   7.949 128.249  0.00  0.00    +0.000 C 
ATOM     14  C   UNL     1     -10.941   8.490 127.901  0.00  0.00    +0.000 C 
ATOM     15  C   UNL     1     -10.054   8.148 128.839  0.00  0.00    +0.000 C 
BRANCH  13  16
ATOM     16  C   UNL     1     -12.832   6.988 127.184  0.00  0.00    +0.000 C 
BRANCH  16  17
ATOM     17  O   UNL     1     -11.844   6.646 126.215  0.00  0.00    +0.000 OA
ATOM     18  H   UNL     1     -10.976   6.820 126.620  0.00  0.00    +0.000 HD
ENDBRANCH  16  17
ENDBRANCH  13  16
ENDBRANCH   4  11
TORSDOF 3
ENDMDL
MODEL 5
REMARK VINA RESULT:      -6.1      8.671     10.287
REMARK  Name = Stavudine
REMARK  4 active torsions:
REMARK  status: ('A' for Active; 'I' for Inactive)
REMARK    1  A    between atoms: C_1  and  C_2
REMARK    2  A    between atoms: N_4  and  C_5
REMARK    3  A    between atoms: C_7  and  C_8
REMARK    4  A    between atoms: C_8  and  O_9
REMARK                            x       y       z     vdW  Elec       q    Type
REMARK                         _______ _______ _______ _____ _____    ______ ____
ROOT
ATOM      1  C   UNL     1      -6.384   2.339 125.350  0.00  0.00    +0.000 C 
ATOM      2  C   UNL     1      -7.579   1.723 124.700  0.00  0.00    +0.000 A 
ATOM      3  C   UNL     1      -7.725   0.412 124.449  0.00  0.00    +0.000 A 
ATOM      4  N   UNL     1      -8.763  -0.078 123.671  0.00  0.00    +0.000 N 
ATOM      5  C   UNL     1      -9.824   0.745 123.303  0.00  0.00    +0.000 A 
ATOM      6  O   UNL     1     -10.774   0.396 122.608  0.00  0.00    +0.000 OA
ATOM      7  N   UNL     1      -9.768   2.036 123.761  0.00  0.00    +0.000 N 
ATOM      8  C   UNL     1      -8.663   2.637 124.276  0.00  0.00    +0.000 A 
ATOM      9  O   UNL     1      -8.576   3.860 124.389  0.00  0.00    +0.000 OA
ATOM     10  H   UNL     1     -10.529   2.637 123.487  0.00  0.00    +0.000 HD
ENDROOT
BRANCH   4  11
ATOM     11  C   UNL     1      -8.919  -1.499 123.383  0.00  0.00    +0.000 C 
ATOM     12  O   UNL     1      -9.714  -2.082 124.430  0.00  0.00    +0.000 OA
ATOM     13  C   UNL     1      -9.119  -3.332 124.830  0.00  0.00    +0.000 C 
ATOM     14  C   UNL     1      -7.841  -3.423 124.078  0.00  0.00    +0.000 C 
ATOM     15  C   UNL     1      -7.684  -2.337 123.317  0.00  0.00    +0.000 C 
BRANCH  13  16
ATOM     16  C   UNL     1      -8.920  -3.361 126.354  0.00  0.00    +0.000 C 
BRANCH  16  17
ATOM     17  O   UNL     1      -8.164  -2.242 126.811  0.00  0.00    +0.000 OA
ATOM     18  H   UNL     1      -8.627  -1.886 127.590  0.00  0.00    +0.000 HD
ENDBRANCH  16  17
ENDBRANCH  13  16
ENDBRANCH   4  11
TORSDOF 3
ENDMDL
MODEL 6
REMARK VINA RESULT:      -6.1      1.869      4.769
REMARK  Name = Stavudine
REMARK  4 active torsions:
REMARK  status: ('A' for Active; 'I' for Inactive)
REMARK    1  A    between atoms: C_1  and  C_2
REMARK    2  A    between atoms: N_4  and  C_5
REMARK    3  A    between atoms: C_7  and  C_8
REMARK    4  A    between atoms: C_8  and  O_9
REMARK                            x       y       z     vdW  Elec       q    Type
REMARK                         _______ _______ _______ _____ _____    ______ ____
ROOT
ATOM      1  C   UNL     1     -11.257   7.608 126.667  0.00  0.00    +0.000 C 
ATOM      2  C   UNL     1     -11.614   7.534 128.114  0.00  0.00    +0.000 A 
ATOM      3  C   UNL     1     -10.972   6.786 129.026  0.00  0.00    +0.000 A 
ATOM      4  N   UNL     1     -11.465   6.604 130.309  0.00  0.00    +0.000 N 
ATOM      5  C   UNL     1     -12.530   7.370 130.775  0.00  0.00    +0.000 A 
ATOM      6  O   UNL     1     -13.034   7.265 131.890  0.00  0.00    +0.000 OA
ATOM      7  N   UNL     1     -13.034   8.293 129.897  0.00  0.00    +0.000 N 
ATOM      8  C   UNL     1     -12.785   8.322 128.561  0.00  0.00    +0.000 A 
ATOM      9  O   UNL     1     -13.484   8.966 127.778  0.00  0.00    +0.000 OA
ATOM     10  H   UNL     1     -13.812   8.841 130.228  0.00  0.00    +0.000 HD
ENDROOT
BRANCH   4  11
ATOM     11  C   UNL     1     -10.779   5.782 131.299  0.00  0.00    +0.000 C 
ATOM     12  O   UNL     1      -9.771   6.591 131.930  0.00  0.00    +0.000 OA
ATOM     13  C   UNL     1      -8.554   5.825 132.036  0.00  0.00    +0.000 C 
ATOM     14  C   UNL     1      -8.819   4.555 131.313  0.00  0.00    +0.000 C 
ATOM     15  C   UNL     1     -10.060   4.565 130.817  0.00  0.00    +0.000 C 
BRANCH  13  16
ATOM     16  C   UNL     1      -7.376   6.616 131.444  0.00  0.00    +0.000 C 
BRANCH  16  17
ATOM     17  O   UNL     1      -7.790   7.462 130.373  0.00  0.00    +0.000 OA
ATOM     18  H   UNL     1      -7.504   8.365 130.597  0.00  0.00    +0.000 HD
ENDBRANCH  16  17
ENDBRANCH  13  16
ENDBRANCH   4  11
TORSDOF 3
ENDMDL
MODEL 7
REMARK VINA RESULT:      -6.1     10.412     11.804
REMARK  Name = Stavudine
REMARK  4 active torsions:
REMARK  status: ('A' for Active; 'I' for Inactive)
REMARK    1  A    between atoms: C_1  and  C_2
REMARK    2  A    between atoms: N_4  and  C_5
REMARK    3  A    between atoms: C_7  and  C_8
REMARK    4  A    between atoms: C_8  and  O_9
REMARK                            x       y       z     vdW  Elec       q    Type
REMARK                         _______ _______ _______ _____ _____    ______ ____
ROOT
ATOM      1  C   UNL     1      -4.719  -3.661 123.758  0.00  0.00    +0.000 C 
ATOM      2  C   UNL     1      -5.941  -2.854 124.047  0.00  0.00    +0.000 A 
ATOM      3  C   UNL     1      -6.622  -2.879 125.204  0.00  0.00    +0.000 A 
ATOM      4  N   UNL     1      -7.855  -2.261 125.348  0.00  0.00    +0.000 N 
ATOM      5  C   UNL     1      -8.336  -1.400 124.366  0.00  0.00    +0.000 A 
ATOM      6  O   UNL     1      -9.419  -0.823 124.408  0.00  0.00    +0.000 OA
ATOM      7  N   UNL     1      -7.518  -1.211 123.282  0.00  0.00    +0.000 N 
ATOM      8  C   UNL     1      -6.452  -1.990 122.959  0.00  0.00    +0.000 A 
ATOM      9  O   UNL     1      -5.942  -1.970 121.838  0.00  0.00    +0.000 OA
ATOM     10  H   UNL     1      -7.868  -0.596 122.564  0.00  0.00    +0.000 HD
ENDROOT
BRANCH   4  11
ATOM     11  C   UNL     1      -8.604  -2.297 126.598  0.00  0.00    +0.000 C 
ATOM     12  O   UNL     1      -7.778  -1.732 127.630  0.00  0.00    +0.000 OA
ATOM     13  C   UNL     1      -7.867  -2.559 128.808  0.00  0.00    +0.000 C 
ATOM     14  C   UNL     1      -8.677  -3.737 128.406  0.00  0.00    +0.000 C 
ATOM     15  C   UNL     1      -9.026  -3.632 127.120  0.00  0.00    +0.000 C 
BRANCH  13  16
ATOM     16  C   UNL     1      -6.460  -2.939 129.297  0.00  0.00    +0.000 C 
BRANCH  16  17
ATOM     17  O   UNL     1      -6.460  -4.180 129.998  0.00  0.00    +0.000 OA
ATOM     18  H   UNL     1      -7.379  -4.358 130.263  0.00  0.00    +0.000 HD
ENDBRANCH  16  17
ENDBRANCH  13  16
ENDBRANCH   4  11
TORSDOF 3
ENDMDL
MODEL 8
REMARK VINA RESULT:      -5.7      7.282     10.110
REMARK  Name = Stavudine
REMARK  4 active torsions:
REMARK  status: ('A' for Active; 'I' for Inactive)
REMARK    1  A    between atoms: C_1  and  C_2
REMARK    2  A    between atoms: N_4  and  C_5
REMARK    3  A    between atoms: C_7  and  C_8
REMARK    4  A    between atoms: C_8  and  O_9
REMARK                            x       y       z     vdW  Elec       q    Type
REMARK                         _______ _______ _______ _____ _____    ______ ____
ROOT
ATOM      1  C   UNL     1      -7.328   4.491 118.506  0.00  0.00    +0.000 C 
ATOM      2  C   UNL     1      -6.814   4.256 119.887  0.00  0.00    +0.000 A 
ATOM      3  C   UNL     1      -7.428   3.507 120.817  0.00  0.00    +0.000 A 
ATOM      4  N   UNL     1      -7.008   3.481 122.139  0.00  0.00    +0.000 N 
ATOM      5  C   UNL     1      -5.797   4.059 122.510  0.00  0.00    +0.000 A 
ATOM      6  O   UNL     1      -5.358   4.092 123.656  0.00  0.00    +0.000 OA
ATOM      7  N   UNL     1      -5.071   4.630 121.498  0.00  0.00    +0.000 N 
ATOM      8  C   UNL     1      -5.550   4.929 120.261  0.00  0.00    +0.000 A 
ATOM      9  O   UNL     1      -4.965   5.702 119.501  0.00  0.00    +0.000 OA
ATOM     10  H   UNL     1      -4.198   5.059 121.765  0.00  0.00    +0.000 HD
ENDROOT
BRANCH   4  11
ATOM     11  C   UNL     1      -7.680   2.681 123.156  0.00  0.00    +0.000 C 
ATOM     12  O   UNL     1      -8.428   3.572 124.002  0.00  0.00    +0.000 OA
ATOM     13  C   UNL     1      -8.226   3.192 125.378  0.00  0.00    +0.000 C 
ATOM     14  C   UNL     1      -7.207   2.112 125.347  0.00  0.00    +0.000 C 
ATOM     15  C   UNL     1      -6.830   1.879 124.086  0.00  0.00    +0.000 C 
BRANCH  13  16
ATOM     16  C   UNL     1      -7.783   4.408 126.206  0.00  0.00    +0.000 C 
BRANCH  16  17
ATOM     17  O   UNL     1      -7.425   5.512 125.377  0.00  0.00    +0.000 OA
ATOM     18  H   UNL     1      -6.483   5.404 125.153  0.00  0.00    +0.000 HD
ENDBRANCH  16  17
ENDBRANCH  13  16
ENDBRANCH   4  11
TORSDOF 3
ENDMDL
MODEL 9
REMARK VINA RESULT:      -5.6      8.043      9.966
REMARK  Name = Stavudine
REMARK  4 active torsions:
REMARK  status: ('A' for Active; 'I' for Inactive)
REMARK    1  A    between atoms: C_1  and  C_2
REMARK    2  A    between atoms: N_4  and  C_5
REMARK    3  A    between atoms: C_7  and  C_8
REMARK    4  A    between atoms: C_8  and  O_9
REMARK                            x       y       z     vdW  Elec       q    Type
REMARK                         _______ _______ _______ _____ _____    ______ ____
ROOT
ATOM      1  C   UNL     1      -5.027   4.405 120.774  0.00  0.00    +0.000 C 
ATOM      2  C   UNL     1      -6.212   3.883 121.515  0.00  0.00    +0.000 A 
ATOM      3  C   UNL     1      -6.183   3.398 122.767  0.00  0.00    +0.000 A 
ATOM      4  N   UNL     1      -7.270   2.749 123.333  0.00  0.00    +0.000 N 
ATOM      5  C   UNL     1      -8.513   2.769 122.706  0.00  0.00    +0.000 A 
ATOM      6  O   UNL     1      -9.521   2.212 123.131  0.00  0.00    +0.000 OA
ATOM      7  N   UNL     1      -8.578   3.465 121.527  0.00  0.00    +0.000 N 
ATOM      8  C   UNL     1      -7.507   3.873 120.797  0.00  0.00    +0.000 A 
ATOM      9  O   UNL     1      -7.609   4.218 119.619  0.00  0.00    +0.000 OA
ATOM     10  H   UNL     1      -9.474   3.473 121.066  0.00  0.00    +0.000 HD
ENDROOT
BRANCH   4  11
ATOM     11  C   UNL     1      -7.238   2.207 124.686  0.00  0.00    +0.000 C 
ATOM     12  O   UNL     1      -6.525   3.137 125.521  0.00  0.00    +0.000 OA
ATOM     13  C   UNL     1      -5.615   2.405 126.366  0.00  0.00    +0.000 C 
ATOM     14  C   UNL     1      -5.699   0.993 125.912  0.00  0.00    +0.000 C 
ATOM     15  C   UNL     1      -6.560   0.893 124.896  0.00  0.00    +0.000 C 
BRANCH  13  16
ATOM     16  C   UNL     1      -4.198   2.988 126.249  0.00  0.00    +0.000 C 
BRANCH  16  17
ATOM     17  O   UNL     1      -3.263   2.277 127.058  0.00  0.00    +0.000 OA
ATOM     18  H   UNL     1      -3.670   1.420 127.276  0.00  0.00    +0.000 HD
ENDBRANCH  16  17
ENDBRANCH  13  16
ENDBRANCH   4  11
TORSDOF 3
ENDMDL
