MODEL 1
REMARK VINA RESULT:      -8.7      0.000      0.000
REMARK  Name = Steviolbioside
REMARK  17 active torsions:
REMARK  status: ('A' for Active; 'I' for Inactive)
REMARK    1  A    between atoms: C_1  and  C_2
REMARK    2  A    between atoms: C_6  and  C_7
REMARK    3  A    between atoms: C_6  and  C_43
REMARK    4  A    between atoms: C_15  and  O_20
REMARK    5  A    between atoms: O_20  and  C_21
REMARK    6  A    between atoms: C_23  and  C_24
REMARK    7  A    between atoms: C_24  and  O_25
REMARK    8  A    between atoms: C_26  and  O_27
REMARK    9  A    between atoms: C_28  and  O_29
REMARK   10  A    between atoms: C_30  and  O_31
REMARK   11  A    between atoms: O_31  and  C_32
REMARK   12  A    between atoms: C_34  and  C_35
REMARK   13  A    between atoms: C_35  and  O_36
REMARK   14  A    between atoms: C_37  and  O_38
REMARK   15  A    between atoms: C_39  and  O_40
REMARK   16  A    between atoms: C_41  and  O_42
REMARK   17  A    between atoms: C_43  and  O_44
REMARK                            x       y       z     vdW  Elec       q    Type
REMARK                         _______ _______ _______ _____ _____    ______ ____
ROOT
ATOM      1  C   UNL     1      -7.872   1.167 126.002  0.00  0.00    +0.000 C 
ATOM      2  O   UNL     1      -8.893   2.119 125.690  0.00  0.00    +0.000 OA
ATOM      3  C   UNL     1      -9.443   2.241 124.372  0.00  0.00    +0.000 C 
ATOM      4  C   UNL     1      -8.423   2.318 123.254  0.00  0.00    +0.000 C 
ATOM      5  C   UNL     1      -7.188   1.496 123.632  0.00  0.00    +0.000 C 
ATOM      6  C   UNL     1      -6.700   1.586 125.136  0.00  0.00    +0.000 C 
ENDROOT
BRANCH   4   7
ATOM      7  O   UNL     1      -8.277   3.627 122.807  0.00  0.00    +0.000 OA
ATOM      8  H   UNL     1      -9.112   4.029 123.118  0.00  0.00    +0.000 HD
ENDBRANCH   4   7
BRANCH   5   9
ATOM      9  O   UNL     1      -7.505   0.124 123.302  0.00  0.00    +0.000 OA
ATOM     10  H   UNL     1      -8.406   0.108 122.919  0.00  0.00    +0.000 HD
ENDBRANCH   5   9
BRANCH   1  11
ATOM     11  O   UNL     1      -8.277  -0.177 125.798  0.00  0.00    +0.000 OA
BRANCH  11  26
ATOM     12  C   UNL     1      -4.131  -3.398 128.953  0.00  0.00    +0.000 C 
ATOM     13  C   UNL     1      -5.279  -2.989 129.886  0.00  0.00    +0.000 C 
ATOM     14  C   UNL     1      -5.710  -4.313 130.553  0.00  0.00    +0.000 C 
ATOM     15  C   UNL     1      -6.802  -3.910 131.501  0.00  0.00    +0.000 C 
ATOM     16  C   UNL     1      -6.350  -3.460 132.836  0.00  0.00    +0.000 C 
ATOM     17  C   UNL     1      -5.582  -1.803 132.542  0.00  0.00    +0.000 C 
ATOM     18  C   UNL     1      -5.931  -0.246 132.041  0.00  0.00    +0.000 C 
ATOM     19  C   UNL     1      -4.661  -1.964 131.034  0.00  0.00    +0.000 C 
ATOM     20  C   UNL     1      -4.198  -0.695 130.119  0.00  0.00    +0.000 C 
ATOM     21  C   UNL     1      -5.375  -0.027 129.295  0.00  0.00    +0.000 C 
ATOM     22  C   UNL     1      -6.155  -0.996 128.461  0.00  0.00    +0.000 C 
ATOM     23  C   UNL     1      -5.330  -1.296 127.233  0.00  0.00    +0.000 C 
ATOM     24  C   UNL     1      -6.349  -1.645 126.250  0.00  0.00    +0.000 C 
ATOM     25  C   UNL     1      -6.103  -2.665 125.408  0.00  0.00    +0.000 C 
ATOM     26  C   UNL     1      -7.694  -1.111 126.696  0.00  0.00    +0.000 C 
ATOM     27  C   UNL     1      -7.462  -0.341 127.992  0.00  0.00    +0.000 C 
ATOM     28  C   UNL     1      -8.426  -2.381 127.102  0.00  0.00    +0.000 C 
ATOM     29  C   UNL     1      -7.520  -3.166 128.207  0.00  0.00    +0.000 C 
ATOM     30  C   UNL     1      -6.577  -2.281 129.166  0.00  0.00    +0.000 C 
BRANCH  17  31
ATOM     31  C   UNL     1      -6.297  -1.052 133.759  0.00  0.00    +0.000 C 
ATOM     32  O   UNL     1      -7.245  -0.344 133.642  0.00  0.00    +0.000 OA
BRANCH  31  33
ATOM     33  O   UNL     1      -5.543  -1.060 134.920  0.00  0.00    +0.000 OA
ATOM     34  H   UNL     1      -5.995  -0.676 135.693  0.00  0.00    +0.000 HD
ENDBRANCH  31  33
ENDBRANCH  17  31
ENDBRANCH  11  26
ENDBRANCH   1  11
BRANCH   3  35
ATOM     35  C   UNL     1     -10.294   1.100 123.844  0.00  0.00    +0.000 C 
BRANCH  35  36
ATOM     36  O   UNL     1     -11.669   1.375 123.996  0.00  0.00    +0.000 OA
ATOM     37  H   UNL     1     -11.868   1.204 124.933  0.00  0.00    +0.000 HD
ENDBRANCH  35  36
ENDBRANCH   3  35
BRANCH   6  38
ATOM     38  O   UNL     1      -6.096   2.827 125.671  0.00  0.00    +0.000 OA
BRANCH  38  39
ATOM     39  C   UNL     1      -4.758   2.785 126.174  0.00  0.00    +0.000 C 
ATOM     40  O   UNL     1      -4.786   2.611 127.584  0.00  0.00    +0.000 OA
ATOM     41  C   UNL     1      -5.508   3.611 128.418  0.00  0.00    +0.000 C 
ATOM     42  C   UNL     1      -4.655   4.833 128.361  0.00  0.00    +0.000 C 
ATOM     43  C   UNL     1      -4.503   5.165 126.859  0.00  0.00    +0.000 C 
ATOM     44  C   UNL     1      -3.875   4.035 126.020  0.00  0.00    +0.000 C 
BRANCH  42  45
ATOM     45  O   UNL     1      -3.407   4.537 129.011  0.00  0.00    +0.000 OA
ATOM     46  H   UNL     1      -2.681   4.940 128.500  0.00  0.00    +0.000 HD
ENDBRANCH  42  45
BRANCH  43  47
ATOM     47  O   UNL     1      -5.797   5.444 126.281  0.00  0.00    +0.000 OA
ATOM     48  H   UNL     1      -6.459   5.488 127.014  0.00  0.00    +0.000 HD
ENDBRANCH  43  47
BRANCH  44  49
ATOM     49  O   UNL     1      -2.548   3.703 126.471  0.00  0.00    +0.000 OA
ATOM     50  H   UNL     1      -2.641   3.213 127.311  0.00  0.00    +0.000 HD
ENDBRANCH  44  49
BRANCH  41  51
ATOM     51  C   UNL     1      -7.032   3.808 128.186  0.00  0.00    +0.000 C 
BRANCH  51  52
ATOM     52  O   UNL     1      -7.546   5.028 128.689  0.00  0.00    +0.000 OA
ATOM     53  H   UNL     1      -7.462   5.679 127.959  0.00  0.00    +0.000 HD
ENDBRANCH  51  52
ENDBRANCH  41  51
ENDBRANCH  38  39
ENDBRANCH   6  38
TORSDOF 15
ENDMDL
MODEL 2
REMARK VINA RESULT:      -8.5      2.176      5.510
REMARK  Name = Steviolbioside
REMARK  17 active torsions:
REMARK  status: ('A' for Active; 'I' for Inactive)
REMARK    1  A    between atoms: C_1  and  C_2
REMARK    2  A    between atoms: C_6  and  C_7
REMARK    3  A    between atoms: C_6  and  C_43
REMARK    4  A    between atoms: C_15  and  O_20
REMARK    5  A    between atoms: O_20  and  C_21
REMARK    6  A    between atoms: C_23  and  C_24
REMARK    7  A    between atoms: C_24  and  O_25
REMARK    8  A    between atoms: C_26  and  O_27
REMARK    9  A    between atoms: C_28  and  O_29
REMARK   10  A    between atoms: C_30  and  O_31
REMARK   11  A    between atoms: O_31  and  C_32
REMARK   12  A    between atoms: C_34  and  C_35
REMARK   13  A    between atoms: C_35  and  O_36
REMARK   14  A    between atoms: C_37  and  O_38
REMARK   15  A    between atoms: C_39  and  O_40
REMARK   16  A    between atoms: C_41  and  O_42
REMARK   17  A    between atoms: C_43  and  O_44
REMARK                            x       y       z     vdW  Elec       q    Type
REMARK                         _______ _______ _______ _____ _____    ______ ____
ROOT
ATOM      1  C   UNL     1      -6.441   1.935 126.457  0.00  0.00    +0.000 C 
ATOM      2  O   UNL     1      -5.652   2.348 125.338  0.00  0.00    +0.000 OA
ATOM      3  C   UNL     1      -5.913   3.568 124.632  0.00  0.00    +0.000 C 
ATOM      4  C   UNL     1      -7.362   3.790 124.247  0.00  0.00    +0.000 C 
ATOM      5  C   UNL     1      -8.274   3.157 125.301  0.00  0.00    +0.000 C 
ATOM      6  C   UNL     1      -7.831   1.752 125.882  0.00  0.00    +0.000 C 
ENDROOT
BRANCH   4   7
ATOM      7  O   UNL     1      -7.563   3.513 122.898  0.00  0.00    +0.000 OA
ATOM      8  H   UNL     1      -8.536   3.429 122.863  0.00  0.00    +0.000 HD
ENDBRANCH   4   7
BRANCH   5   9
ATOM      9  O   UNL     1      -8.370   4.121 126.375  0.00  0.00    +0.000 OA
ATOM     10  H   UNL     1      -7.854   3.780 127.133  0.00  0.00    +0.000 HD
ENDBRANCH   5   9
BRANCH   1  11
ATOM     11  O   UNL     1      -6.391   2.844 127.545  0.00  0.00    +0.000 OA
BRANCH  11  26
ATOM     12  C   UNL     1      -8.605  -0.439 132.218  0.00  0.00    +0.000 C 
ATOM     13  C   UNL     1      -7.092  -0.669 132.104  0.00  0.00    +0.000 C 
ATOM     14  C   UNL     1      -6.563  -0.395 133.528  0.00  0.00    +0.000 C 
ATOM     15  C   UNL     1      -5.089  -0.663 133.431  0.00  0.00    +0.000 C 
ATOM     16  C   UNL     1      -4.686  -2.074 133.623  0.00  0.00    +0.000 C 
ATOM     17  C   UNL     1      -5.250  -2.940 132.088  0.00  0.00    +0.000 C 
ATOM     18  C   UNL     1      -5.009  -3.007 130.435  0.00  0.00    +0.000 C 
ATOM     19  C   UNL     1      -6.847  -2.263 131.717  0.00  0.00    +0.000 C 
ATOM     20  C   UNL     1      -7.544  -2.349 130.245  0.00  0.00    +0.000 C 
ATOM     21  C   UNL     1      -6.912  -1.371 129.170  0.00  0.00    +0.000 C 
ATOM     22  C   UNL     1      -6.846   0.057 129.617  0.00  0.00    +0.000 C 
ATOM     23  C   UNL     1      -8.233   0.635 129.476  0.00  0.00    +0.000 C 
ATOM     24  C   UNL     1      -7.960   2.054 129.274  0.00  0.00    +0.000 C 
ATOM     25  C   UNL     1      -8.760   2.951 129.878  0.00  0.00    +0.000 C 
ATOM     26  C   UNL     1      -6.526   2.240 128.824  0.00  0.00    +0.000 C 
ATOM     27  C   UNL     1      -5.917   0.848 128.686  0.00  0.00    +0.000 C 
ATOM     28  C   UNL     1      -5.878   2.848 130.058  0.00  0.00    +0.000 C 
ATOM     29  C   UNL     1      -6.152   1.857 131.324  0.00  0.00    +0.000 C 
ATOM     30  C   UNL     1      -6.298   0.282 131.022  0.00  0.00    +0.000 C 
BRANCH  17  31
ATOM     31  C   UNL     1      -3.897  -3.751 131.830  0.00  0.00    +0.000 C 
ATOM     32  O   UNL     1      -3.168  -3.558 130.909  0.00  0.00    +0.000 OA
BRANCH  31  33
ATOM     33  O   UNL     1      -3.793  -4.895 132.602  0.00  0.00    +0.000 OA
ATOM     34  H   UNL     1      -3.633  -5.709 132.092  0.00  0.00    +0.000 HD
ENDBRANCH  31  33
ENDBRANCH  17  31
ENDBRANCH  11  26
ENDBRANCH   1  11
BRANCH   3  35
ATOM     35  C   UNL     1      -5.651   4.879 125.349  0.00  0.00    +0.000 C 
BRANCH  35  36
ATOM     36  O   UNL     1      -6.484   5.905 124.858  0.00  0.00    +0.000 OA
ATOM     37  H   UNL     1      -7.394   5.622 125.056  0.00  0.00    +0.000 HD
ENDBRANCH  35  36
ENDBRANCH   3  35
BRANCH   6  38
ATOM     38  O   UNL     1      -7.874   0.531 125.045  0.00  0.00    +0.000 OA
BRANCH  38  39
ATOM     39  C   UNL     1      -9.120   0.129 124.469  0.00  0.00    +0.000 C 
ATOM     40  O   UNL     1      -9.565  -1.069 125.091  0.00  0.00    +0.000 OA
ATOM     41  C   UNL     1      -8.687  -2.270 125.051  0.00  0.00    +0.000 C 
ATOM     42  C   UNL     1      -8.737  -2.724 123.631  0.00  0.00    +0.000 C 
ATOM     43  C   UNL     1      -8.287  -1.508 122.789  0.00  0.00    +0.000 C 
ATOM     44  C   UNL     1      -9.154  -0.248 122.979  0.00  0.00    +0.000 C 
BRANCH  42  45
ATOM     45  O   UNL     1     -10.081  -3.150 123.345  0.00  0.00    +0.000 OA
ATOM     46  H   UNL     1     -10.271  -3.959 123.855  0.00  0.00    +0.000 HD
ENDBRANCH  42  45
BRANCH  43  47
ATOM     47  O   UNL     1      -6.934  -1.140 123.138  0.00  0.00    +0.000 OA
ATOM     48  H   UNL     1      -6.947  -0.217 123.492  0.00  0.00    +0.000 HD
ENDBRANCH  43  47
BRANCH  44  49
ATOM     49  O   UNL     1     -10.527  -0.479 122.607  0.00  0.00    +0.000 OA
ATOM     50  H   UNL     1     -11.080  -0.234 123.374  0.00  0.00    +0.000 HD
ENDBRANCH  44  49
BRANCH  41  51
ATOM     51  C   UNL     1      -7.283  -2.185 125.711  0.00  0.00    +0.000 C 
BRANCH  51  52
ATOM     52  O   UNL     1      -6.313  -3.038 125.131  0.00  0.00    +0.000 OA
ATOM     53  H   UNL     1      -6.275  -2.799 124.179  0.00  0.00    +0.000 HD
ENDBRANCH  51  52
ENDBRANCH  41  51
ENDBRANCH  38  39
ENDBRANCH   6  38
TORSDOF 15
ENDMDL
MODEL 3
REMARK VINA RESULT:      -8.5      2.497      3.974
REMARK  Name = Steviolbioside
REMARK  17 active torsions:
REMARK  status: ('A' for Active; 'I' for Inactive)
REMARK    1  A    between atoms: C_1  and  C_2
REMARK    2  A    between atoms: C_6  and  C_7
REMARK    3  A    between atoms: C_6  and  C_43
REMARK    4  A    between atoms: C_15  and  O_20
REMARK    5  A    between atoms: O_20  and  C_21
REMARK    6  A    between atoms: C_23  and  C_24
REMARK    7  A    between atoms: C_24  and  O_25
REMARK    8  A    between atoms: C_26  and  O_27
REMARK    9  A    between atoms: C_28  and  O_29
REMARK   10  A    between atoms: C_30  and  O_31
REMARK   11  A    between atoms: O_31  and  C_32
REMARK   12  A    between atoms: C_34  and  C_35
REMARK   13  A    between atoms: C_35  and  O_36
REMARK   14  A    between atoms: C_37  and  O_38
REMARK   15  A    between atoms: C_39  and  O_40
REMARK   16  A    between atoms: C_41  and  O_42
REMARK   17  A    between atoms: C_43  and  O_44
REMARK                            x       y       z     vdW  Elec       q    Type
REMARK                         _______ _______ _______ _____ _____    ______ ____
ROOT
ATOM      1  C   UNL     1      -8.313   1.441 127.922  0.00  0.00    +0.000 C 
ATOM      2  O   UNL     1      -9.227   1.520 126.824  0.00  0.00    +0.000 OA
ATOM      3  C   UNL     1      -8.815   1.953 125.521  0.00  0.00    +0.000 C 
ATOM      4  C   UNL     1      -7.995   3.228 125.496  0.00  0.00    +0.000 C 
ATOM      5  C   UNL     1      -7.157   3.321 126.774  0.00  0.00    +0.000 C 
ATOM      6  C   UNL     1      -7.853   2.871 128.123  0.00  0.00    +0.000 C 
ENDROOT
BRANCH   4   7
ATOM      7  O   UNL     1      -8.775   4.308 125.096  0.00  0.00    +0.000 OA
ATOM      8  H   UNL     1      -8.250   4.656 124.348  0.00  0.00    +0.000 HD
ENDBRANCH   4   7
BRANCH   5   9
ATOM      9  O   UNL     1      -5.980   2.514 126.537  0.00  0.00    +0.000 OA
ATOM     10  H   UNL     1      -5.395   2.599 127.317  0.00  0.00    +0.000 HD
ENDBRANCH   5   9
BRANCH   1  11
ATOM     11  O   UNL     1      -7.250   0.527 127.703  0.00  0.00    +0.000 OA
BRANCH  11  26
ATOM     12  C   UNL     1      -5.879  -4.764 130.467  0.00  0.00    +0.000 C 
ATOM     13  C   UNL     1      -5.562  -3.597 131.411  0.00  0.00    +0.000 C 
ATOM     14  C   UNL     1      -6.289  -3.967 132.722  0.00  0.00    +0.000 C 
ATOM     15  C   UNL     1      -5.944  -2.850 133.663  0.00  0.00    +0.000 C 
ATOM     16  C   UNL     1      -4.671  -3.011 134.401  0.00  0.00    +0.000 C 
ATOM     17  C   UNL     1      -3.352  -2.751 133.129  0.00  0.00    +0.000 C 
ATOM     18  C   UNL     1      -2.708  -1.604 132.097  0.00  0.00    +0.000 C 
ATOM     19  C   UNL     1      -3.924  -3.582 131.669  0.00  0.00    +0.000 C 
ATOM     20  C   UNL     1      -3.363  -3.265 130.171  0.00  0.00    +0.000 C 
ATOM     21  C   UNL     1      -3.882  -1.898 129.561  0.00  0.00    +0.000 C 
ATOM     22  C   UNL     1      -5.373  -1.751 129.586  0.00  0.00    +0.000 C 
ATOM     23  C   UNL     1      -5.924  -2.583 128.453  0.00  0.00    +0.000 C 
ATOM     24  C   UNL     1      -7.172  -1.897 128.141  0.00  0.00    +0.000 C 
ATOM     25  C   UNL     1      -8.255  -2.641 127.852  0.00  0.00    +0.000 C 
ATOM     26  C   UNL     1      -7.132  -0.487 128.691  0.00  0.00    +0.000 C 
ATOM     27  C   UNL     1      -5.755  -0.290 129.316  0.00  0.00    +0.000 C 
ATOM     28  C   UNL     1      -8.102  -0.569 129.860  0.00  0.00    +0.000 C 
ATOM     29  C   UNL     1      -7.622  -1.778 130.843  0.00  0.00    +0.000 C 
ATOM     30  C   UNL     1      -6.047  -2.108 130.907  0.00  0.00    +0.000 C 
BRANCH  17  31
ATOM     31  C   UNL     1      -2.446  -1.768 134.005  0.00  0.00    +0.000 C 
ATOM     32  O   UNL     1      -2.700  -0.622 134.200  0.00  0.00    +0.000 OA
BRANCH  31  33
ATOM     33  O   UNL     1      -1.189  -2.282 134.274  0.00  0.00    +0.000 OA
ATOM     34  H   UNL     1      -0.991  -3.116 133.813  0.00  0.00    +0.000 HD
ENDBRANCH  31  33
ENDBRANCH  17  31
ENDBRANCH  11  26
ENDBRANCH   1  11
BRANCH   3  35
ATOM     35  C   UNL     1      -7.883   1.052 124.730  0.00  0.00    +0.000 C 
BRANCH  35  36
ATOM     36  O   UNL     1      -8.161  -0.309 124.974  0.00  0.00    +0.000 OA
ATOM     37  H   UNL     1      -7.622  -0.805 124.334  0.00  0.00    +0.000 HD
ENDBRANCH  35  36
ENDBRANCH   3  35
BRANCH   6  38
ATOM     38  O   UNL     1      -8.943   3.672 128.725  0.00  0.00    +0.000 OA
BRANCH  38  39
ATOM     39  C   UNL     1      -8.658   4.999 129.178  0.00  0.00    +0.000 C 
ATOM     40  O   UNL     1      -8.102   4.944 130.485  0.00  0.00    +0.000 OA
ATOM     41  C   UNL     1      -8.884   4.296 131.573  0.00  0.00    +0.000 C 
ATOM     42  C   UNL     1     -10.003   5.243 131.846  0.00  0.00    +0.000 C 
ATOM     43  C   UNL     1     -10.726   5.434 130.493  0.00  0.00    +0.000 C 
ATOM     44  C   UNL     1      -9.829   5.978 129.365  0.00  0.00    +0.000 C 
BRANCH  42  45
ATOM     45  O   UNL     1      -9.442   6.459 132.371  0.00  0.00    +0.000 OA
ATOM     46  H   UNL     1     -10.147   7.129 132.441  0.00  0.00    +0.000 HD
ENDBRANCH  42  45
BRANCH  43  47
ATOM     47  O   UNL     1     -11.255   4.171 130.034  0.00  0.00    +0.000 OA
ATOM     48  H   UNL     1     -12.109   4.004 130.503  0.00  0.00    +0.000 HD
ENDBRANCH  43  47
BRANCH  44  49
ATOM     49  O   UNL     1      -9.282   7.271 129.688  0.00  0.00    +0.000 OA
ATOM     50  H   UNL     1      -9.199   7.317 130.660  0.00  0.00    +0.000 HD
ENDBRANCH  44  49
BRANCH  41  51
ATOM     51  C   UNL     1      -9.256   2.795 131.426  0.00  0.00    +0.000 C 
BRANCH  51  52
ATOM     52  O   UNL     1     -10.289   2.362 132.292  0.00  0.00    +0.000 OA
ATOM     53  H   UNL     1     -11.128   2.484 131.796  0.00  0.00    +0.000 HD
ENDBRANCH  51  52
ENDBRANCH  41  51
ENDBRANCH  38  39
ENDBRANCH   6  38
TORSDOF 15
ENDMDL
MODEL 4
REMARK VINA RESULT:      -8.4      2.607      4.340
REMARK  Name = Steviolbioside
REMARK  17 active torsions:
REMARK  status: ('A' for Active; 'I' for Inactive)
REMARK    1  A    between atoms: C_1  and  C_2
REMARK    2  A    between atoms: C_6  and  C_7
REMARK    3  A    between atoms: C_6  and  C_43
REMARK    4  A    between atoms: C_15  and  O_20
REMARK    5  A    between atoms: O_20  and  C_21
REMARK    6  A    between atoms: C_23  and  C_24
REMARK    7  A    between atoms: C_24  and  O_25
REMARK    8  A    between atoms: C_26  and  O_27
REMARK    9  A    between atoms: C_28  and  O_29
REMARK   10  A    between atoms: C_30  and  O_31
REMARK   11  A    between atoms: O_31  and  C_32
REMARK   12  A    between atoms: C_34  and  C_35
REMARK   13  A    between atoms: C_35  and  O_36
REMARK   14  A    between atoms: C_37  and  O_38
REMARK   15  A    between atoms: C_39  and  O_40
REMARK   16  A    between atoms: C_41  and  O_42
REMARK   17  A    between atoms: C_43  and  O_44
REMARK                            x       y       z     vdW  Elec       q    Type
REMARK                         _______ _______ _______ _____ _____    ______ ____
ROOT
ATOM      1  C   UNL     1      -7.687   2.678 128.346  0.00  0.00    +0.000 C 
ATOM      2  O   UNL     1      -8.567   2.622 127.220  0.00  0.00    +0.000 OA
ATOM      3  C   UNL     1      -8.128   2.941 125.893  0.00  0.00    +0.000 C 
ATOM      4  C   UNL     1      -7.348   4.235 125.769  0.00  0.00    +0.000 C 
ATOM      5  C   UNL     1      -6.553   4.478 127.054  0.00  0.00    +0.000 C 
ATOM      6  C   UNL     1      -7.277   4.135 128.420  0.00  0.00    +0.000 C 
ENDROOT
BRANCH   4   7
ATOM      7  O   UNL     1      -8.147   5.245 125.244  0.00  0.00    +0.000 OA
ATOM      8  H   UNL     1      -8.251   5.829 126.021  0.00  0.00    +0.000 HD
ENDBRANCH   4   7
BRANCH   5   9
ATOM      9  O   UNL     1      -5.345   3.691 126.931  0.00  0.00    +0.000 OA
ATOM     10  H   UNL     1      -4.854   4.015 126.149  0.00  0.00    +0.000 HD
ENDBRANCH   5   9
BRANCH   1  11
ATOM     11  O   UNL     1      -6.590   1.784 128.246  0.00  0.00    +0.000 OA
BRANCH  11  26
ATOM     12  C   UNL     1      -6.121  -4.023 130.140  0.00  0.00    +0.000 C 
ATOM     13  C   UNL     1      -5.861  -3.077 131.321  0.00  0.00    +0.000 C 
ATOM     14  C   UNL     1      -6.815  -3.583 132.424  0.00  0.00    +0.000 C 
ATOM     15  C   UNL     1      -6.531  -2.690 133.596  0.00  0.00    +0.000 C 
ATOM     16  C   UNL     1      -5.409  -3.115 134.462  0.00  0.00    +0.000 C 
ATOM     17  C   UNL     1      -3.888  -2.789 133.460  0.00  0.00    +0.000 C 
ATOM     18  C   UNL     1      -2.995  -1.560 132.761  0.00  0.00    +0.000 C 
ATOM     19  C   UNL     1      -4.290  -3.289 131.805  0.00  0.00    +0.000 C 
ATOM     20  C   UNL     1      -3.474  -2.783 130.486  0.00  0.00    +0.000 C 
ATOM     21  C   UNL     1      -3.774  -1.282 130.075  0.00  0.00    +0.000 C 
ATOM     22  C   UNL     1      -5.232  -0.978 129.917  0.00  0.00    +0.000 C 
ATOM     23  C   UNL     1      -5.664  -1.537 128.582  0.00  0.00    +0.000 C 
ATOM     24  C   UNL     1      -6.785  -0.673 128.231  0.00  0.00    +0.000 C 
ATOM     25  C   UNL     1      -7.867  -1.231 127.659  0.00  0.00    +0.000 C 
ATOM     26  C   UNL     1      -6.715   0.609 129.035  0.00  0.00    +0.000 C 
ATOM     27  C   UNL     1      -5.442   0.542 129.873  0.00  0.00    +0.000 C 
ATOM     28  C   UNL     1      -7.861   0.435 130.019  0.00  0.00    +0.000 C 
ATOM     29  C   UNL     1      -7.645  -0.971 130.817  0.00  0.00    +0.000 C 
ATOM     30  C   UNL     1      -6.134  -1.479 131.040  0.00  0.00    +0.000 C 
BRANCH  17  31
ATOM     31  C   UNL     1      -3.054  -2.077 134.622  0.00  0.00    +0.000 C 
ATOM     32  O   UNL     1      -3.015  -0.900 134.792  0.00  0.00    +0.000 OA
BRANCH  31  33
ATOM     33  O   UNL     1      -2.144  -2.922 135.234  0.00  0.00    +0.000 OA
ATOM     34  H   UNL     1      -1.297  -2.500 135.464  0.00  0.00    +0.000 HD
ENDBRANCH  31  33
ENDBRANCH  17  31
ENDBRANCH  11  26
ENDBRANCH   1  11
BRANCH   3  35
ATOM     35  C   UNL     1      -7.145   2.001 125.220  0.00  0.00    +0.000 C 
BRANCH  35  36
ATOM     36  O   UNL     1      -6.405   2.666 124.220  0.00  0.00    +0.000 OA
ATOM     37  H   UNL     1      -5.898   3.355 124.684  0.00  0.00    +0.000 HD
ENDBRANCH  35  36
ENDBRANCH   3  35
BRANCH   6  38
ATOM     38  O   UNL     1      -8.409   4.954 128.911  0.00  0.00    +0.000 OA
BRANCH  38  39
ATOM     39  C   UNL     1      -9.269   4.415 129.919  0.00  0.00    +0.000 C 
ATOM     40  O   UNL     1     -10.615   4.766 129.632  0.00  0.00    +0.000 OA
ATOM     41  C   UNL     1     -10.974   6.206 129.513  0.00  0.00    +0.000 C 
ATOM     42  C   UNL     1     -10.899   6.728 130.908  0.00  0.00    +0.000 C 
ATOM     43  C   UNL     1      -9.468   6.409 131.396  0.00  0.00    +0.000 C 
ATOM     44  C   UNL     1      -9.106   4.912 131.366  0.00  0.00    +0.000 C 
BRANCH  42  45
ATOM     45  O   UNL     1     -11.925   6.082 131.682  0.00  0.00    +0.000 OA
ATOM     46  H   UNL     1     -11.512   5.630 132.440  0.00  0.00    +0.000 HD
ENDBRANCH  42  45
BRANCH  43  47
ATOM     47  O   UNL     1      -8.500   7.089 130.567  0.00  0.00    +0.000 OA
ATOM     48  H   UNL     1      -8.294   6.509 129.793  0.00  0.00    +0.000 HD
ENDBRANCH  43  47
BRANCH  44  49
ATOM     49  O   UNL     1      -9.976   4.130 132.207  0.00  0.00    +0.000 OA
ATOM     50  H   UNL     1      -9.499   3.964 133.043  0.00  0.00    +0.000 HD
ENDBRANCH  44  49
BRANCH  41  51
ATOM     51  C   UNL     1     -10.282   7.054 128.409  0.00  0.00    +0.000 C 
BRANCH  51  52
ATOM     52  O   UNL     1     -10.001   6.342 127.217  0.00  0.00    +0.000 OA
ATOM     53  H   UNL     1     -10.851   5.941 126.933  0.00  0.00    +0.000 HD
ENDBRANCH  51  52
ENDBRANCH  41  51
ENDBRANCH  38  39
ENDBRANCH   6  38
TORSDOF 15
ENDMDL
MODEL 5
REMARK VINA RESULT:      -8.2      2.954      4.585
REMARK  Name = Steviolbioside
REMARK  17 active torsions:
REMARK  status: ('A' for Active; 'I' for Inactive)
REMARK    1  A    between atoms: C_1  and  C_2
REMARK    2  A    between atoms: C_6  and  C_7
REMARK    3  A    between atoms: C_6  and  C_43
REMARK    4  A    between atoms: C_15  and  O_20
REMARK    5  A    between atoms: O_20  and  C_21
REMARK    6  A    between atoms: C_23  and  C_24
REMARK    7  A    between atoms: C_24  and  O_25
REMARK    8  A    between atoms: C_26  and  O_27
REMARK    9  A    between atoms: C_28  and  O_29
REMARK   10  A    between atoms: C_30  and  O_31
REMARK   11  A    between atoms: O_31  and  C_32
REMARK   12  A    between atoms: C_34  and  C_35
REMARK   13  A    between atoms: C_35  and  O_36
REMARK   14  A    between atoms: C_37  and  O_38
REMARK   15  A    between atoms: C_39  and  O_40
REMARK   16  A    between atoms: C_41  and  O_42
REMARK   17  A    between atoms: C_43  and  O_44
REMARK                            x       y       z     vdW  Elec       q    Type
REMARK                         _______ _______ _______ _____ _____    ______ ____
ROOT
ATOM      1  C   UNL     1      -7.078   3.279 130.746  0.00  0.00    +0.000 C 
ATOM      2  O   UNL     1      -6.959   4.356 131.680  0.00  0.00    +0.000 OA
ATOM      3  C   UNL     1      -8.052   5.238 131.969  0.00  0.00    +0.000 C 
ATOM      4  C   UNL     1      -8.767   5.795 130.754  0.00  0.00    +0.000 C 
ATOM      5  C   UNL     1      -8.726   4.766 129.621  0.00  0.00    +0.000 C 
ATOM      6  C   UNL     1      -7.373   3.966 129.427  0.00  0.00    +0.000 C 
ENDROOT
BRANCH   4   7
ATOM      7  O   UNL     1      -8.380   7.110 130.513  0.00  0.00    +0.000 OA
ATOM      8  H   UNL     1      -7.839   7.297 131.305  0.00  0.00    +0.000 HD
ENDBRANCH   4   7
BRANCH   5   9
ATOM      9  O   UNL     1      -9.807   3.842 129.882  0.00  0.00    +0.000 OA
ATOM     10  H   UNL     1     -10.537   4.049 129.264  0.00  0.00    +0.000 HD
ENDBRANCH   5   9
BRANCH   1  11
ATOM     11  O   UNL     1      -8.055   2.319 131.118  0.00  0.00    +0.000 OA
BRANCH  11  26
ATOM     12  C   UNL     1      -5.382  -2.554 128.542  0.00  0.00    +0.000 C 
ATOM     13  C   UNL     1      -5.456  -2.755 130.062  0.00  0.00    +0.000 C 
ATOM     14  C   UNL     1      -6.113  -4.142 130.225  0.00  0.00    +0.000 C 
ATOM     15  C   UNL     1      -6.146  -4.362 131.709  0.00  0.00    +0.000 C 
ATOM     16  C   UNL     1      -4.918  -4.948 132.292  0.00  0.00    +0.000 C 
ATOM     17  C   UNL     1      -3.664  -3.589 132.217  0.00  0.00    +0.000 C 
ATOM     18  C   UNL     1      -3.320  -2.064 132.810  0.00  0.00    +0.000 C 
ATOM     19  C   UNL     1      -3.904  -2.803 130.644  0.00  0.00    +0.000 C 
ATOM     20  C   UNL     1      -3.382  -1.297 130.298  0.00  0.00    +0.000 C 
ATOM     21  C   UNL     1      -4.235  -0.144 130.972  0.00  0.00    +0.000 C 
ATOM     22  C   UNL     1      -5.706  -0.245 130.704  0.00  0.00    +0.000 C 
ATOM     23  C   UNL     1      -5.941   0.262 129.302  0.00  0.00    +0.000 C 
ATOM     24  C   UNL     1      -7.316   0.744 129.372  0.00  0.00    +0.000 C 
ATOM     25  C   UNL     1      -8.128   0.513 128.325  0.00  0.00    +0.000 C 
ATOM     26  C   UNL     1      -7.704   0.976 130.817  0.00  0.00    +0.000 C 
ATOM     27  C   UNL     1      -6.471   0.675 131.665  0.00  0.00    +0.000 C 
ATOM     28  C   UNL     1      -8.668  -0.171 131.079  0.00  0.00    +0.000 C 
ATOM     29  C   UNL     1      -7.915  -1.571 130.713  0.00  0.00    +0.000 C 
ATOM     30  C   UNL     1      -6.317  -1.629 130.898  0.00  0.00    +0.000 C 
BRANCH  17  31
ATOM     31  C   UNL     1      -3.119  -3.762 133.709  0.00  0.00    +0.000 C 
ATOM     32  O   UNL     1      -3.516  -3.141 134.642  0.00  0.00    +0.000 OA
BRANCH  31  33
ATOM     33  O   UNL     1      -1.940  -4.486 133.776  0.00  0.00    +0.000 OA
ATOM     34  H   UNL     1      -2.065  -5.451 133.825  0.00  0.00    +0.000 HD
ENDBRANCH  31  33
ENDBRANCH  17  31
ENDBRANCH  11  26
ENDBRANCH   1  11
BRANCH   3  35
ATOM     35  C   UNL     1      -9.248   4.673 132.714  0.00  0.00    +0.000 C 
BRANCH  35  36
ATOM     36  O   UNL     1     -10.403   5.452 132.490  0.00  0.00    +0.000 OA
ATOM     37  H   UNL     1     -10.096   6.376 132.473  0.00  0.00    +0.000 HD
ENDBRANCH  35  36
ENDBRANCH   3  35
BRANCH   6  38
ATOM     38  O   UNL     1      -6.153   4.637 128.924  0.00  0.00    +0.000 OA
BRANCH  38  39
ATOM     39  C   UNL     1      -5.431   4.042 127.842  0.00  0.00    +0.000 C 
ATOM     40  O   UNL     1      -4.287   3.368 128.350  0.00  0.00    +0.000 OA
ATOM     41  C   UNL     1      -3.287   4.141 129.137  0.00  0.00    +0.000 C 
ATOM     42  C   UNL     1      -2.608   5.009 128.132  0.00  0.00    +0.000 C 
ATOM     43  C   UNL     1      -3.734   5.822 127.455  0.00  0.00    +0.000 C 
ATOM     44  C   UNL     1      -4.817   4.963 126.774  0.00  0.00    +0.000 C 
BRANCH  42  45
ATOM     45  O   UNL     1      -1.890   4.158 127.221  0.00  0.00    +0.000 OA
ATOM     46  H   UNL     1      -1.088   3.824 127.664  0.00  0.00    +0.000 HD
ENDBRANCH  42  45
BRANCH  43  47
ATOM     47  O   UNL     1      -4.408   6.643 128.434  0.00  0.00    +0.000 OA
ATOM     48  H   UNL     1      -4.577   6.090 129.237  0.00  0.00    +0.000 HD
ENDBRANCH  43  47
BRANCH  44  49
ATOM     49  O   UNL     1      -4.269   4.133 125.731  0.00  0.00    +0.000 OA
ATOM     50  H   UNL     1      -4.816   3.325 125.686  0.00  0.00    +0.000 HD
ENDBRANCH  44  49
BRANCH  41  51
ATOM     51  C   UNL     1      -3.748   4.823 130.455  0.00  0.00    +0.000 C 
BRANCH  51  52
ATOM     52  O   UNL     1      -3.867   3.942 131.557  0.00  0.00    +0.000 OA
ATOM     53  H   UNL     1      -3.355   4.350 132.289  0.00  0.00    +0.000 HD
ENDBRANCH  51  52
ENDBRANCH  41  51
ENDBRANCH  38  39
ENDBRANCH   6  38
TORSDOF 15
ENDMDL
MODEL 6
REMARK VINA RESULT:      -8.2      2.972      6.172
REMARK  Name = Steviolbioside
REMARK  17 active torsions:
REMARK  status: ('A' for Active; 'I' for Inactive)
REMARK    1  A    between atoms: C_1  and  C_2
REMARK    2  A    between atoms: C_6  and  C_7
REMARK    3  A    between atoms: C_6  and  C_43
REMARK    4  A    between atoms: C_15  and  O_20
REMARK    5  A    between atoms: O_20  and  C_21
REMARK    6  A    between atoms: C_23  and  C_24
REMARK    7  A    between atoms: C_24  and  O_25
REMARK    8  A    between atoms: C_26  and  O_27
REMARK    9  A    between atoms: C_28  and  O_29
REMARK   10  A    between atoms: C_30  and  O_31
REMARK   11  A    between atoms: O_31  and  C_32
REMARK   12  A    between atoms: C_34  and  C_35
REMARK   13  A    between atoms: C_35  and  O_36
REMARK   14  A    between atoms: C_37  and  O_38
REMARK   15  A    between atoms: C_39  and  O_40
REMARK   16  A    between atoms: C_41  and  O_42
REMARK   17  A    between atoms: C_43  and  O_44
REMARK                            x       y       z     vdW  Elec       q    Type
REMARK                         _______ _______ _______ _____ _____    ______ ____
ROOT
ATOM      1  C   UNL     1      -6.561   3.342 130.170  0.00  0.00    +0.000 C 
ATOM      2  O   UNL     1      -6.786   3.797 131.508  0.00  0.00    +0.000 OA
ATOM      3  C   UNL     1      -8.058   4.301 131.937  0.00  0.00    +0.000 C 
ATOM      4  C   UNL     1      -8.685   5.330 131.018  0.00  0.00    +0.000 C 
ATOM      5  C   UNL     1      -8.285   5.033 129.570  0.00  0.00    +0.000 C 
ATOM      6  C   UNL     1      -6.790   4.575 129.319  0.00  0.00    +0.000 C 
ENDROOT
BRANCH   4   7
ATOM      7  O   UNL     1      -8.528   6.613 131.534  0.00  0.00    +0.000 OA
ATOM      8  H   UNL     1      -9.113   6.577 132.316  0.00  0.00    +0.000 HD
ENDBRANCH   4   7
BRANCH   5   9
ATOM      9  O   UNL     1      -9.195   4.009 129.108  0.00  0.00    +0.000 OA
ATOM     10  H   UNL     1      -9.796   4.414 128.450  0.00  0.00    +0.000 HD
ENDBRANCH   5   9
BRANCH   1  11
ATOM     11  O   UNL     1      -7.378   2.241 129.807  0.00  0.00    +0.000 OA
BRANCH  11  26
ATOM     12  C   UNL     1      -5.039  -2.732 127.102  0.00  0.00    +0.000 C 
ATOM     13  C   UNL     1      -5.995  -2.024 126.132  0.00  0.00    +0.000 C 
ATOM     14  C   UNL     1      -5.162  -1.853 124.844  0.00  0.00    +0.000 C 
ATOM     15  C   UNL     1      -6.108  -1.202 123.877  0.00  0.00    +0.000 C 
ATOM     16  C   UNL     1      -6.975  -2.128 123.116  0.00  0.00    +0.000 C 
ATOM     17  C   UNL     1      -8.198  -2.758 124.354  0.00  0.00    +0.000 C 
ATOM     18  C   UNL     1      -9.448  -2.272 125.354  0.00  0.00    +0.000 C 
ATOM     19  C   UNL     1      -7.269  -3.044 125.839  0.00  0.00    +0.000 C 
ATOM     20  C   UNL     1      -7.945  -3.151 127.320  0.00  0.00    +0.000 C 
ATOM     21  C   UNL     1      -8.418  -1.763 127.918  0.00  0.00    +0.000 C 
ATOM     22  C   UNL     1      -7.352  -0.711 127.923  0.00  0.00    +0.000 C 
ATOM     23  C   UNL     1      -6.431  -1.011 129.080  0.00  0.00    +0.000 C 
ATOM     24  C   UNL     1      -5.901   0.308 129.407  0.00  0.00    +0.000 C 
ATOM     25  C   UNL     1      -4.600   0.412 129.732  0.00  0.00    +0.000 C 
ATOM     26  C   UNL     1      -6.806   1.379 128.834  0.00  0.00    +0.000 C 
ATOM     27  C   UNL     1      -7.983   0.666 128.176  0.00  0.00    +0.000 C 
ATOM     28  C   UNL     1      -5.969   1.926 127.687  0.00  0.00    +0.000 C 
ATOM     29  C   UNL     1      -5.554   0.685 126.714  0.00  0.00    +0.000 C 
ATOM     30  C   UNL     1      -6.568  -0.563 126.622  0.00  0.00    +0.000 C 
BRANCH  17  31
ATOM     31  C   UNL     1      -9.496  -2.563 123.444  0.00  0.00    +0.000 C 
ATOM     32  O   UNL     1      -9.923  -1.505 123.105  0.00  0.00    +0.000 OA
BRANCH  31  33
ATOM     33  O   UNL     1     -10.255  -3.715 123.326  0.00  0.00    +0.000 OA
ATOM     34  H   UNL     1     -11.179  -3.561 123.059  0.00  0.00    +0.000 HD
ENDBRANCH  31  33
ENDBRANCH  17  31
ENDBRANCH  11  26
ENDBRANCH   1  11
BRANCH   3  35
ATOM     35  C   UNL     1      -9.217   3.326 132.033  0.00  0.00    +0.000 C 
BRANCH  35  36
ATOM     36  O   UNL     1     -10.449   3.973 131.800  0.00  0.00    +0.000 OA
ATOM     37  H   UNL     1     -11.031   3.697 132.530  0.00  0.00    +0.000 HD
ENDBRANCH  35  36
ENDBRANCH   3  35
BRANCH   6  38
ATOM     38  O   UNL     1      -5.663   5.520 129.485  0.00  0.00    +0.000 OA
BRANCH  38  39
ATOM     39  C   UNL     1      -4.357   5.124 129.057  0.00  0.00    +0.000 C 
ATOM     40  O   UNL     1      -3.510   4.983 130.190  0.00  0.00    +0.000 OA
ATOM     41  C   UNL     1      -3.311   6.152 131.089  0.00  0.00    +0.000 C 
ATOM     42  C   UNL     1      -2.471   7.097 130.297  0.00  0.00    +0.000 C 
ATOM     43  C   UNL     1      -3.253   7.354 128.990  0.00  0.00    +0.000 C 
ATOM     44  C   UNL     1      -3.551   6.085 128.168  0.00  0.00    +0.000 C 
BRANCH  42  45
ATOM     45  O   UNL     1      -1.188   6.481 130.084  0.00  0.00    +0.000 OA
ATOM     46  H   UNL     1      -0.520   6.947 130.620  0.00  0.00    +0.000 HD
ENDBRANCH  42  45
BRANCH  43  47
ATOM     47  O   UNL     1      -4.527   7.966 129.289  0.00  0.00    +0.000 OA
ATOM     48  H   UNL     1      -4.491   8.911 128.999  0.00  0.00    +0.000 HD
ENDBRANCH  43  47
BRANCH  44  49
ATOM     49  O   UNL     1      -2.345   5.412 127.761  0.00  0.00    +0.000 OA
ATOM     50  H   UNL     1      -1.641   6.087 127.703  0.00  0.00    +0.000 HD
ENDBRANCH  44  49
BRANCH  41  51
ATOM     51  C   UNL     1      -4.550   6.752 131.811  0.00  0.00    +0.000 C 
BRANCH  51  52
ATOM     52  O   UNL     1      -5.228   5.844 132.659  0.00  0.00    +0.000 OA
ATOM     53  H   UNL     1      -5.527   5.106 132.084  0.00  0.00    +0.000 HD
ENDBRANCH  51  52
ENDBRANCH  41  51
ENDBRANCH  38  39
ENDBRANCH   6  38
TORSDOF 15
ENDMDL
MODEL 7
REMARK VINA RESULT:      -8.2      3.110      6.625
REMARK  Name = Steviolbioside
REMARK  17 active torsions:
REMARK  status: ('A' for Active; 'I' for Inactive)
REMARK    1  A    between atoms: C_1  and  C_2
REMARK    2  A    between atoms: C_6  and  C_7
REMARK    3  A    between atoms: C_6  and  C_43
REMARK    4  A    between atoms: C_15  and  O_20
REMARK    5  A    between atoms: O_20  and  C_21
REMARK    6  A    between atoms: C_23  and  C_24
REMARK    7  A    between atoms: C_24  and  O_25
REMARK    8  A    between atoms: C_26  and  O_27
REMARK    9  A    between atoms: C_28  and  O_29
REMARK   10  A    between atoms: C_30  and  O_31
REMARK   11  A    between atoms: O_31  and  C_32
REMARK   12  A    between atoms: C_34  and  C_35
REMARK   13  A    between atoms: C_35  and  O_36
REMARK   14  A    between atoms: C_37  and  O_38
REMARK   15  A    between atoms: C_39  and  O_40
REMARK   16  A    between atoms: C_41  and  O_42
REMARK   17  A    between atoms: C_43  and  O_44
REMARK                            x       y       z     vdW  Elec       q    Type
REMARK                         _______ _______ _______ _____ _____    ______ ____
ROOT
ATOM      1  C   UNL     1      -7.416   2.439 126.894  0.00  0.00    +0.000 C 
ATOM      2  O   UNL     1      -6.183   2.293 126.184  0.00  0.00    +0.000 OA
ATOM      3  C   UNL     1      -5.876   3.073 125.022  0.00  0.00    +0.000 C 
ATOM      4  C   UNL     1      -6.973   3.128 123.977  0.00  0.00    +0.000 C 
ATOM      5  C   UNL     1      -8.338   3.051 124.665  0.00  0.00    +0.000 C 
ATOM      6  C   UNL     1      -8.473   2.045 125.881  0.00  0.00    +0.000 C 
ENDROOT
BRANCH   4   7
ATOM      7  O   UNL     1      -6.682   2.282 122.911  0.00  0.00    +0.000 OA
ATOM      8  H   UNL     1      -5.749   2.511 122.736  0.00  0.00    +0.000 HD
ENDBRANCH   4   7
BRANCH   5   9
ATOM      9  O   UNL     1      -8.638   4.395 125.107  0.00  0.00    +0.000 OA
ATOM     10  H   UNL     1      -7.830   4.764 125.519  0.00  0.00    +0.000 HD
ENDBRANCH   5   9
BRANCH   1  11
ATOM     11  O   UNL     1      -7.603   3.737 127.434  0.00  0.00    +0.000 OA
BRANCH  11  26
ATOM     12  C   UNL     1      -6.405   2.208 133.244  0.00  0.00    +0.000 C 
ATOM     13  C   UNL     1      -5.802   3.587 132.943  0.00  0.00    +0.000 C 
ATOM     14  C   UNL     1      -6.337   4.486 134.078  0.00  0.00    +0.000 C 
ATOM     15  C   UNL     1      -5.712   5.825 133.814  0.00  0.00    +0.000 C 
ATOM     16  C   UNL     1      -4.361   6.019 134.385  0.00  0.00    +0.000 C 
ATOM     17  C   UNL     1      -3.252   4.961 133.348  0.00  0.00    +0.000 C 
ATOM     18  C   UNL     1      -2.663   4.777 131.794  0.00  0.00    +0.000 C 
ATOM     19  C   UNL     1      -4.153   3.458 133.065  0.00  0.00    +0.000 C 
ATOM     20  C   UNL     1      -3.819   2.419 131.853  0.00  0.00    +0.000 C 
ATOM     21  C   UNL     1      -4.272   2.926 130.422  0.00  0.00    +0.000 C 
ATOM     22  C   UNL     1      -5.711   3.338 130.354  0.00  0.00    +0.000 C 
ATOM     23  C   UNL     1      -6.535   2.076 130.280  0.00  0.00    +0.000 C 
ATOM     24  C   UNL     1      -7.731   2.526 129.577  0.00  0.00    +0.000 C 
ATOM     25  C   UNL     1      -8.926   2.061 129.985  0.00  0.00    +0.000 C 
ATOM     26  C   UNL     1      -7.437   3.818 128.843  0.00  0.00    +0.000 C 
ATOM     27  C   UNL     1      -5.961   4.132 129.064  0.00  0.00    +0.000 C 
ATOM     28  C   UNL     1      -8.201   4.840 129.672  0.00  0.00    +0.000 C 
ATOM     29  C   UNL     1      -7.705   4.720 131.220  0.00  0.00    +0.000 C 
ATOM     30  C   UNL     1      -6.190   4.243 131.485  0.00  0.00    +0.000 C 
BRANCH  17  31
ATOM     31  C   UNL     1      -2.106   6.054 133.134  0.00  0.00    +0.000 C 
ATOM     32  O   UNL     1      -1.969   6.693 132.140  0.00  0.00    +0.000 OA
BRANCH  31  33
ATOM     33  O   UNL     1      -1.105   5.985 134.088  0.00  0.00    +0.000 OA
ATOM     34  H   UNL     1      -0.229   5.749 133.733  0.00  0.00    +0.000 HD
ENDBRANCH  31  33
ENDBRANCH  17  31
ENDBRANCH  11  26
ENDBRANCH   1  11
BRANCH   3  35
ATOM     35  C   UNL     1      -5.640   4.562 125.202  0.00  0.00    +0.000 C 
BRANCH  35  36
ATOM     36  O   UNL     1      -5.977   5.277 124.034  0.00  0.00    +0.000 OA
ATOM     37  H   UNL     1      -6.918   5.087 123.872  0.00  0.00    +0.000 HD
ENDBRANCH  35  36
ENDBRANCH   3  35
BRANCH   6  38
ATOM     38  O   UNL     1      -8.446   0.580 125.667  0.00  0.00    +0.000 OA
BRANCH  38  39
ATOM     39  C   UNL     1      -9.425  -0.012 124.809  0.00  0.00    +0.000 C 
ATOM     40  O   UNL     1      -9.680  -1.346 125.230  0.00  0.00    +0.000 OA
ATOM     41  C   UNL     1      -8.547  -2.310 125.290  0.00  0.00    +0.000 C 
ATOM     42  C   UNL     1      -8.213  -2.586 123.863  0.00  0.00    +0.000 C 
ATOM     43  C   UNL     1      -7.917  -1.208 123.230  0.00  0.00    +0.000 C 
ATOM     44  C   UNL     1      -9.081  -0.203 123.322  0.00  0.00    +0.000 C 
BRANCH  42  45
ATOM     45  O   UNL     1      -9.334  -3.260 123.265  0.00  0.00    +0.000 OA
ATOM     46  H   UNL     1      -9.483  -4.103 123.731  0.00  0.00    +0.000 HD
ENDBRANCH  42  45
BRANCH  43  47
ATOM     47  O   UNL     1      -6.785  -0.596 123.888  0.00  0.00    +0.000 OA
ATOM     48  H   UNL     1      -7.117   0.153 124.441  0.00  0.00    +0.000 HD
ENDBRANCH  43  47
BRANCH  44  49
ATOM     49  O   UNL     1     -10.260  -0.683 122.648  0.00  0.00    +0.000 OA
ATOM     50  H   UNL     1     -10.008  -1.491 122.161  0.00  0.00    +0.000 HD
ENDBRANCH  44  49
BRANCH  41  51
ATOM     51  C   UNL     1      -7.358  -1.999 126.241  0.00  0.00    +0.000 C 
BRANCH  51  52
ATOM     52  O   UNL     1      -7.741  -1.516 127.516  0.00  0.00    +0.000 OA
ATOM     53  H   UNL     1      -7.724  -0.536 127.451  0.00  0.00    +0.000 HD
ENDBRANCH  51  52
ENDBRANCH  41  51
ENDBRANCH  38  39
ENDBRANCH   6  38
TORSDOF 15
ENDMDL
MODEL 8
REMARK VINA RESULT:      -8.1      2.835      7.504
REMARK  Name = Steviolbioside
REMARK  17 active torsions:
REMARK  status: ('A' for Active; 'I' for Inactive)
REMARK    1  A    between atoms: C_1  and  C_2
REMARK    2  A    between atoms: C_6  and  C_7
REMARK    3  A    between atoms: C_6  and  C_43
REMARK    4  A    between atoms: C_15  and  O_20
REMARK    5  A    between atoms: O_20  and  C_21
REMARK    6  A    between atoms: C_23  and  C_24
REMARK    7  A    between atoms: C_24  and  O_25
REMARK    8  A    between atoms: C_26  and  O_27
REMARK    9  A    between atoms: C_28  and  O_29
REMARK   10  A    between atoms: C_30  and  O_31
REMARK   11  A    between atoms: O_31  and  C_32
REMARK   12  A    between atoms: C_34  and  C_35
REMARK   13  A    between atoms: C_35  and  O_36
REMARK   14  A    between atoms: C_37  and  O_38
REMARK   15  A    between atoms: C_39  and  O_40
REMARK   16  A    between atoms: C_41  and  O_42
REMARK   17  A    between atoms: C_43  and  O_44
REMARK                            x       y       z     vdW  Elec       q    Type
REMARK                         _______ _______ _______ _____ _____    ______ ____
ROOT
ATOM      1  C   UNL     1      -5.916   4.352 128.933  0.00  0.00    +0.000 C 
ATOM      2  O   UNL     1      -5.554   5.725 129.107  0.00  0.00    +0.000 OA
ATOM      3  C   UNL     1      -4.689   6.156 130.166  0.00  0.00    +0.000 C 
ATOM      4  C   UNL     1      -5.043   5.624 131.540  0.00  0.00    +0.000 C 
ATOM      5  C   UNL     1      -5.662   4.230 131.405  0.00  0.00    +0.000 C 
ATOM      6  C   UNL     1      -6.668   4.006 130.203  0.00  0.00    +0.000 C 
ENDROOT
BRANCH   4   7
ATOM      7  O   UNL     1      -5.684   6.599 132.297  0.00  0.00    +0.000 OA
ATOM      8  H   UNL     1      -6.050   6.063 133.028  0.00  0.00    +0.000 HD
ENDBRANCH   4   7
BRANCH   5   9
ATOM      9  O   UNL     1      -4.552   3.310 131.291  0.00  0.00    +0.000 OA
ATOM     10  H   UNL     1      -4.096   3.492 130.445  0.00  0.00    +0.000 HD
ENDBRANCH   5   9
BRANCH   1  11
ATOM     11  O   UNL     1      -4.807   3.505 128.681  0.00  0.00    +0.000 OA
BRANCH  11  26
ATOM     12  C   UNL     1      -7.148  -1.917 127.059  0.00  0.00    +0.000 C 
ATOM     13  C   UNL     1      -7.240  -0.945 125.874  0.00  0.00    +0.000 C 
ATOM     14  C   UNL     1      -6.595  -1.719 124.705  0.00  0.00    +0.000 C 
ATOM     15  C   UNL     1      -6.724  -0.790 123.533  0.00  0.00    +0.000 C 
ATOM     16  C   UNL     1      -8.004  -0.872 122.795  0.00  0.00    +0.000 C 
ATOM     17  C   UNL     1      -9.252  -0.103 123.926  0.00  0.00    +0.000 C 
ATOM     18  C   UNL     1      -9.669   1.340 124.661  0.00  0.00    +0.000 C 
ATOM     19  C   UNL     1      -8.846  -0.687 125.552  0.00  0.00    +0.000 C 
ATOM     20  C   UNL     1      -9.337   0.047 126.923  0.00  0.00    +0.000 C 
ATOM     21  C   UNL     1      -8.570   1.395 127.248  0.00  0.00    +0.000 C 
ATOM     22  C   UNL     1      -7.079   1.256 127.253  0.00  0.00    +0.000 C 
ATOM     23  C   UNL     1      -6.695   0.604 128.560  0.00  0.00    +0.000 C 
ATOM     24  C   UNL     1      -5.340   1.101 128.769  0.00  0.00    +0.000 C 
ATOM     25  C   UNL     1      -4.416   0.252 129.255  0.00  0.00    +0.000 C 
ATOM     26  C   UNL     1      -5.113   2.340 127.928  0.00  0.00    +0.000 C 
ATOM     27  C   UNL     1      -6.429   2.646 127.219  0.00  0.00    +0.000 C 
ATOM     28  C   UNL     1      -4.176   1.828 126.845  0.00  0.00    +0.000 C 
ATOM     29  C   UNL     1      -4.875   0.543 126.125  0.00  0.00    +0.000 C 
ATOM     30  C   UNL     1      -6.483   0.502 126.068  0.00  0.00    +0.000 C 
BRANCH  17  31
ATOM     31  C   UNL     1      -9.956   0.815 122.823  0.00  0.00    +0.000 C 
ATOM     32  O   UNL     1      -9.520   1.853 122.441  0.00  0.00    +0.000 OA
BRANCH  31  33
ATOM     33  O   UNL     1     -11.264   0.445 122.564  0.00  0.00    +0.000 OA
ATOM     34  H   UNL     1     -11.916   0.817 123.185  0.00  0.00    +0.000 HD
ENDBRANCH  31  33
ENDBRANCH  17  31
ENDBRANCH  11  26
ENDBRANCH   1  11
BRANCH   3  35
ATOM     35  C   UNL     1      -3.231   5.737 130.113  0.00  0.00    +0.000 C 
BRANCH  35  36
ATOM     36  O   UNL     1      -2.645   5.768 131.396  0.00  0.00    +0.000 OA
ATOM     37  H   UNL     1      -1.691   5.638 131.251  0.00  0.00    +0.000 HD
ENDBRANCH  35  36
ENDBRANCH   3  35
BRANCH   6  38
ATOM     38  O   UNL     1      -8.001   4.650 130.192  0.00  0.00    +0.000 OA
BRANCH  38  39
ATOM     39  C   UNL     1      -8.991   4.210 131.126  0.00  0.00    +0.000 C 
ATOM     40  O   UNL     1     -10.285   4.395 130.567  0.00  0.00    +0.000 OA
ATOM     41  C   UNL     1     -10.698   5.761 130.144  0.00  0.00    +0.000 C 
ATOM     42  C   UNL     1     -10.897   6.506 131.421  0.00  0.00    +0.000 C 
ATOM     43  C   UNL     1      -9.557   6.391 132.183  0.00  0.00    +0.000 C 
ATOM     44  C   UNL     1      -9.112   4.945 132.471  0.00  0.00    +0.000 C 
BRANCH  42  45
ATOM     45  O   UNL     1     -12.004   5.907 132.118  0.00  0.00    +0.000 OA
ATOM     46  H   UNL     1     -12.690   5.662 131.471  0.00  0.00    +0.000 HD
ENDBRANCH  42  45
BRANCH  43  47
ATOM     47  O   UNL     1      -8.499   7.009 131.416  0.00  0.00    +0.000 OA
ATOM     48  H   UNL     1      -8.692   7.976 131.347  0.00  0.00    +0.000 HD
ENDBRANCH  43  47
BRANCH  44  49
ATOM     49  O   UNL     1     -10.070   4.238 133.282  0.00  0.00    +0.000 OA
ATOM     50  H   UNL     1      -9.569   3.622 133.851  0.00  0.00    +0.000 HD
ENDBRANCH  44  49
BRANCH  41  51
ATOM     51  C   UNL     1      -9.873   6.475 129.037  0.00  0.00    +0.000 C 
BRANCH  51  52
ATOM     52  O   UNL     1      -9.436   5.623 127.993  0.00  0.00    +0.000 OA
ATOM     53  H   UNL     1      -8.619   6.033 127.633  0.00  0.00    +0.000 HD
ENDBRANCH  51  52
ENDBRANCH  41  51
ENDBRANCH  38  39
ENDBRANCH   6  38
TORSDOF 15
ENDMDL
MODEL 9
REMARK VINA RESULT:      -8.1      3.383      7.740
REMARK  Name = Steviolbioside
REMARK  17 active torsions:
REMARK  status: ('A' for Active; 'I' for Inactive)
REMARK    1  A    between atoms: C_1  and  C_2
REMARK    2  A    between atoms: C_6  and  C_7
REMARK    3  A    between atoms: C_6  and  C_43
REMARK    4  A    between atoms: C_15  and  O_20
REMARK    5  A    between atoms: O_20  and  C_21
REMARK    6  A    between atoms: C_23  and  C_24
REMARK    7  A    between atoms: C_24  and  O_25
REMARK    8  A    between atoms: C_26  and  O_27
REMARK    9  A    between atoms: C_28  and  O_29
REMARK   10  A    between atoms: C_30  and  O_31
REMARK   11  A    between atoms: O_31  and  C_32
REMARK   12  A    between atoms: C_34  and  C_35
REMARK   13  A    between atoms: C_35  and  O_36
REMARK   14  A    between atoms: C_37  and  O_38
REMARK   15  A    between atoms: C_39  and  O_40
REMARK   16  A    between atoms: C_41  and  O_42
REMARK   17  A    between atoms: C_43  and  O_44
REMARK                            x       y       z     vdW  Elec       q    Type
REMARK                         _______ _______ _______ _____ _____    ______ ____
ROOT
ATOM      1  C   UNL     1      -7.728   0.217 129.152  0.00  0.00    +0.000 C 
ATOM      2  O   UNL     1      -7.937  -1.154 128.804  0.00  0.00    +0.000 OA
ATOM      3  C   UNL     1      -6.910  -2.143 128.956  0.00  0.00    +0.000 C 
ATOM      4  C   UNL     1      -5.556  -1.755 128.396  0.00  0.00    +0.000 C 
ATOM      5  C   UNL     1      -5.364  -0.242 128.527  0.00  0.00    +0.000 C 
ATOM      6  C   UNL     1      -6.621   0.670 128.220  0.00  0.00    +0.000 C 
ENDROOT
BRANCH   4   7
ATOM      7  O   UNL     1      -5.329  -2.383 127.175  0.00  0.00    +0.000 OA
ATOM      8  H   UNL     1      -5.097  -1.620 126.610  0.00  0.00    +0.000 HD
ENDBRANCH   4   7
BRANCH   5   9
ATOM      9  O   UNL     1      -4.913  -0.014 129.882  0.00  0.00    +0.000 OA
ATOM     10  H   UNL     1      -4.389   0.813 129.890  0.00  0.00    +0.000 HD
ENDBRANCH   5   9
BRANCH   1  11
ATOM     11  O   UNL     1      -7.428   0.409 130.526  0.00  0.00    +0.000 OA
BRANCH  11  26
ATOM     12  C   UNL     1      -8.143   5.899 133.146  0.00  0.00    +0.000 C 
ATOM     13  C   UNL     1      -9.200   5.714 132.048  0.00  0.00    +0.000 C 
ATOM     14  C   UNL     1     -10.533   6.038 132.755  0.00  0.00    +0.000 C 
ATOM     15  C   UNL     1     -11.566   5.904 131.674  0.00  0.00    +0.000 C 
ATOM     16  C   UNL     1     -11.784   7.113 130.849  0.00  0.00    +0.000 C 
ATOM     17  C   UNL     1     -10.266   7.250 129.800  0.00  0.00    +0.000 C 
ATOM     18  C   UNL     1      -9.412   6.475 128.589  0.00  0.00    +0.000 C 
ATOM     19  C   UNL     1      -8.908   6.841 130.867  0.00  0.00    +0.000 C 
ATOM     20  C   UNL     1      -7.444   6.370 130.325  0.00  0.00    +0.000 C 
ATOM     21  C   UNL     1      -7.407   4.891 129.759  0.00  0.00    +0.000 C 
ATOM     22  C   UNL     1      -7.950   3.866 130.708  0.00  0.00    +0.000 C 
ATOM     23  C   UNL     1      -6.883   3.605 131.743  0.00  0.00    +0.000 C 
ATOM     24  C   UNL     1      -7.179   2.239 132.158  0.00  0.00    +0.000 C 
ATOM     25  C   UNL     1      -7.075   1.930 133.463  0.00  0.00    +0.000 C 
ATOM     26  C   UNL     1      -8.029   1.558 131.105  0.00  0.00    +0.000 C 
ATOM     27  C   UNL     1      -8.203   2.550 129.960  0.00  0.00    +0.000 C 
ATOM     28  C   UNL     1      -9.386   1.481 131.788  0.00  0.00    +0.000 C 
ATOM     29  C   UNL     1      -9.815   2.985 132.251  0.00  0.00    +0.000 C 
ATOM     30  C   UNL     1      -9.280   4.219 131.367  0.00  0.00    +0.000 C 
BRANCH  17  31
ATOM     31  C   UNL     1     -11.023   7.529 128.420  0.00  0.00    +0.000 C 
ATOM     32  O   UNL     1     -11.356   6.680 127.657  0.00  0.00    +0.000 OA
BRANCH  31  33
ATOM     33  O   UNL     1     -10.998   8.862 128.046  0.00  0.00    +0.000 OA
ATOM     34  H   UNL     1     -10.124   9.285 128.131  0.00  0.00    +0.000 HD
ENDBRANCH  31  33
ENDBRANCH  17  31
ENDBRANCH  11  26
ENDBRANCH   1  11
BRANCH   3  35
ATOM     35  C   UNL     1      -6.489  -2.525 130.364  0.00  0.00    +0.000 C 
BRANCH  35  36
ATOM     36  O   UNL     1      -7.592  -2.530 131.243  0.00  0.00    +0.000 OA
ATOM     37  H   UNL     1      -7.884  -3.457 131.291  0.00  0.00    +0.000 HD
ENDBRANCH  35  36
ENDBRANCH   3  35
BRANCH   6  38
ATOM     38  O   UNL     1      -7.146   0.809 126.843  0.00  0.00    +0.000 OA
BRANCH  38  39
ATOM     39  C   UNL     1      -8.147   1.796 126.579  0.00  0.00    +0.000 C 
ATOM     40  O   UNL     1      -9.402   1.159 126.385  0.00  0.00    +0.000 OA
ATOM     41  C   UNL     1      -9.534   0.142 125.306  0.00  0.00    +0.000 C 
ATOM     42  C   UNL     1      -9.484   0.929 124.040  0.00  0.00    +0.000 C 
ATOM     43  C   UNL     1      -8.155   1.717 124.091  0.00  0.00    +0.000 C 
ATOM     44  C   UNL     1      -8.018   2.652 125.308  0.00  0.00    +0.000 C 
BRANCH  42  45
ATOM     45  O   UNL     1     -10.647   1.774 123.993  0.00  0.00    +0.000 OA
ATOM     46  H   UNL     1     -10.361   2.704 123.929  0.00  0.00    +0.000 HD
ENDBRANCH  42  45
BRANCH  43  47
ATOM     47  O   UNL     1      -7.039   0.800 124.141  0.00  0.00    +0.000 OA
ATOM     48  H   UNL     1      -7.301  -0.030 123.672  0.00  0.00    +0.000 HD
ENDBRANCH  43  47
BRANCH  44  49
ATOM     49  O   UNL     1      -9.053   3.654 125.336  0.00  0.00    +0.000 OA
ATOM     50  H   UNL     1      -9.893   3.197 125.534  0.00  0.00    +0.000 HD
ENDBRANCH  44  49
BRANCH  41  51
ATOM     51  C   UNL     1      -8.645  -1.131 125.375  0.00  0.00    +0.000 C 
BRANCH  51  52
ATOM     52  O   UNL     1      -9.132  -2.136 126.246  0.00  0.00    +0.000 OA
ATOM     53  H   UNL     1      -8.582  -2.081 127.058  0.00  0.00    +0.000 HD
ENDBRANCH  51  52
ENDBRANCH  41  51
ENDBRANCH  38  39
ENDBRANCH   6  38
TORSDOF 15
ENDMDL
