MODEL 1
REMARK VINA RESULT:      -6.7      0.000      0.000
REMARK  Name = Stiripentol
REMARK  7 active torsions:
REMARK  status: ('A' for Active; 'I' for Inactive)
REMARK    1  A    between atoms: C_1  and  C_2
REMARK    2  A    between atoms: C_2  and  C_3
REMARK    3  A    between atoms: C_2  and  C_4
REMARK    4  A    between atoms: C_2  and  C_5
REMARK    5  A    between atoms: C_5  and  O_6
REMARK    6  A    between atoms: C_5  and  C_7
REMARK    7  A    between atoms: C_8  and  C_9
REMARK                            x       y       z     vdW  Elec       q    Type
REMARK                         _______ _______ _______ _____ _____    ______ ____
ROOT
ATOM      1  C   UNL     1     -10.578   6.882 130.100  0.00  0.00    +0.000 C 
ATOM      2  C   UNL     1     -10.122   6.463 131.290  0.00  0.00    +0.000 C 
ENDROOT
BRANCH   2   3
ATOM      3  C   UNL     1      -8.686   6.441 131.585  0.00  0.00    +0.000 A 
ATOM      4  C   UNL     1      -7.747   7.057 130.739  0.00  0.00    +0.000 A 
ATOM      5  C   UNL     1      -6.415   6.974 131.079  0.00  0.00    +0.000 A 
ATOM      6  C   UNL     1      -5.997   6.320 132.213  0.00  0.00    +0.000 A 
ATOM      7  O   UNL     1      -4.645   6.347 132.359  0.00  0.00    +0.000 OA
ATOM      8  C   UNL     1      -4.256   7.030 131.148  0.00  0.00    +0.000 C 
ATOM      9  O   UNL     1      -5.378   7.502 130.373  0.00  0.00    +0.000 OA
ATOM     10  C   UNL     1      -6.890   5.719 133.073  0.00  0.00    +0.000 A 
ATOM     11  C   UNL     1      -8.249   5.787 132.755  0.00  0.00    +0.000 A 
ENDBRANCH   2   3
BRANCH   1  12
ATOM     12  C   UNL     1     -12.026   6.953 129.703  0.00  0.00    +0.000 C 
BRANCH  12  14
ATOM     13  C   UNL     1     -13.435   7.616 127.702  0.00  0.00    +0.000 C 
ATOM     14  C   UNL     1     -12.322   8.076 128.662  0.00  0.00    +0.000 C 
ATOM     15  C   UNL     1     -11.069   8.406 127.821  0.00  0.00    +0.000 C 
ATOM     16  C   UNL     1     -12.807   9.351 129.385  0.00  0.00    +0.000 C 
ENDBRANCH  12  14
BRANCH  12  17
ATOM     17  O   UNL     1     -12.424   5.679 129.202  0.00  0.00    +0.000 OA
ATOM     18  H   UNL     1     -13.124   5.342 129.784  0.00  0.00    +0.000 HD
ENDBRANCH  12  17
ENDBRANCH   1  12
TORSDOF 4
ENDMDL
MODEL 2
REMARK VINA RESULT:      -6.6      1.857      2.763
REMARK  Name = Stiripentol
REMARK  7 active torsions:
REMARK  status: ('A' for Active; 'I' for Inactive)
REMARK    1  A    between atoms: C_1  and  C_2
REMARK    2  A    between atoms: C_2  and  C_3
REMARK    3  A    between atoms: C_2  and  C_4
REMARK    4  A    between atoms: C_2  and  C_5
REMARK    5  A    between atoms: C_5  and  O_6
REMARK    6  A    between atoms: C_5  and  C_7
REMARK    7  A    between atoms: C_8  and  C_9
REMARK                            x       y       z     vdW  Elec       q    Type
REMARK                         _______ _______ _______ _____ _____    ______ ____
ROOT
ATOM      1  C   UNL     1     -10.501   6.971 129.501  0.00  0.00    +0.000 C 
ATOM      2  C   UNL     1      -9.369   7.500 129.990  0.00  0.00    +0.000 C 
ENDROOT
BRANCH   2   3
ATOM      3  C   UNL     1      -8.603   6.813 131.035  0.00  0.00    +0.000 A 
ATOM      4  C   UNL     1      -9.232   6.047 132.031  0.00  0.00    +0.000 A 
ATOM      5  C   UNL     1      -8.441   5.448 132.987  0.00  0.00    +0.000 A 
ATOM      6  C   UNL     1      -7.072   5.578 132.977  0.00  0.00    +0.000 A 
ATOM      7  O   UNL     1      -6.482   4.919 134.010  0.00  0.00    +0.000 OA
ATOM      8  C   UNL     1      -7.641   4.422 134.711  0.00  0.00    +0.000 C 
ATOM      9  O   UNL     1      -8.882   4.684 134.023  0.00  0.00    +0.000 OA
ATOM     10  C   UNL     1      -6.421   6.307 132.007  0.00  0.00    +0.000 A 
ATOM     11  C   UNL     1      -7.197   6.926 131.023  0.00  0.00    +0.000 A 
ENDBRANCH   2   3
BRANCH   1  12
ATOM     12  C   UNL     1     -11.352   7.589 128.427  0.00  0.00    +0.000 C 
BRANCH  12  14
ATOM     13  C   UNL     1     -13.802   7.139 127.956  0.00  0.00    +0.000 C 
ATOM     14  C   UNL     1     -12.815   7.866 128.887  0.00  0.00    +0.000 C 
ATOM     15  C   UNL     1     -13.140   9.376 128.846  0.00  0.00    +0.000 C 
ATOM     16  C   UNL     1     -13.027   7.335 130.321  0.00  0.00    +0.000 C 
ENDBRANCH  12  14
BRANCH  12  17
ATOM     17  O   UNL     1     -10.723   8.789 127.982  0.00  0.00    +0.000 OA
ATOM     18  H   UNL     1     -11.278   9.165 127.279  0.00  0.00    +0.000 HD
ENDBRANCH  12  17
ENDBRANCH   1  12
TORSDOF 4
ENDMDL
MODEL 3
REMARK VINA RESULT:      -6.5      1.396      1.985
REMARK  Name = Stiripentol
REMARK  7 active torsions:
REMARK  status: ('A' for Active; 'I' for Inactive)
REMARK    1  A    between atoms: C_1  and  C_2
REMARK    2  A    between atoms: C_2  and  C_3
REMARK    3  A    between atoms: C_2  and  C_4
REMARK    4  A    between atoms: C_2  and  C_5
REMARK    5  A    between atoms: C_5  and  O_6
REMARK    6  A    between atoms: C_5  and  C_7
REMARK    7  A    between atoms: C_8  and  C_9
REMARK                            x       y       z     vdW  Elec       q    Type
REMARK                         _______ _______ _______ _____ _____    ______ ____
ROOT
ATOM      1  C   UNL     1     -10.434   6.977 129.495  0.00  0.00    +0.000 C 
ATOM      2  C   UNL     1      -9.316   7.538 129.980  0.00  0.00    +0.000 C 
ENDROOT
BRANCH   2   3
ATOM      3  C   UNL     1      -8.534   6.880 131.032  0.00  0.00    +0.000 A 
ATOM      4  C   UNL     1      -7.129   6.928 131.050  0.00  0.00    +0.000 A 
ATOM      5  C   UNL     1      -6.470   6.268 132.063  0.00  0.00    +0.000 A 
ATOM      6  C   UNL     1      -7.149   5.583 133.042  0.00  0.00    +0.000 A 
ATOM      7  O   UNL     1      -6.313   4.995 133.939  0.00  0.00    +0.000 OA
ATOM      8  C   UNL     1      -5.029   5.328 133.370  0.00  0.00    +0.000 C 
ATOM      9  O   UNL     1      -5.120   6.203 132.227  0.00  0.00    +0.000 OA
ATOM     10  C   UNL     1      -8.526   5.528 133.066  0.00  0.00    +0.000 A 
ATOM     11  C   UNL     1      -9.223   6.190 132.051  0.00  0.00    +0.000 A 
ENDBRANCH   2   3
BRANCH   1  12
ATOM     12  C   UNL     1     -11.298   7.564 128.414  0.00  0.00    +0.000 C 
BRANCH  12  14
ATOM     13  C   UNL     1     -12.987   7.224 130.274  0.00  0.00    +0.000 C 
ATOM     14  C   UNL     1     -12.761   7.837 128.880  0.00  0.00    +0.000 C 
ATOM     15  C   UNL     1     -13.785   7.210 127.908  0.00  0.00    +0.000 C 
ATOM     16  C   UNL     1     -13.009   9.357 128.977  0.00  0.00    +0.000 C 
ENDBRANCH  12  14
BRANCH  12  17
ATOM     17  O   UNL     1     -10.685   8.760 127.940  0.00  0.00    +0.000 OA
ATOM     18  H   UNL     1     -11.134   9.508 128.367  0.00  0.00    +0.000 HD
ENDBRANCH  12  17
ENDBRANCH   1  12
TORSDOF 4
ENDMDL
MODEL 4
REMARK VINA RESULT:      -6.2      3.381      3.948
REMARK  Name = Stiripentol
REMARK  7 active torsions:
REMARK  status: ('A' for Active; 'I' for Inactive)
REMARK    1  A    between atoms: C_1  and  C_2
REMARK    2  A    between atoms: C_2  and  C_3
REMARK    3  A    between atoms: C_2  and  C_4
REMARK    4  A    between atoms: C_2  and  C_5
REMARK    5  A    between atoms: C_5  and  O_6
REMARK    6  A    between atoms: C_5  and  C_7
REMARK    7  A    between atoms: C_8  and  C_9
REMARK                            x       y       z     vdW  Elec       q    Type
REMARK                         _______ _______ _______ _____ _____    ______ ____
ROOT
ATOM      1  C   UNL     1     -11.372   6.140 131.343  0.00  0.00    +0.000 C 
ATOM      2  C   UNL     1     -10.343   6.040 132.198  0.00  0.00    +0.000 C 
ENDROOT
BRANCH   2   3
ATOM      3  C   UNL     1      -9.676   4.755 132.432  0.00  0.00    +0.000 A 
ATOM      4  C   UNL     1      -9.724   3.714 131.489  0.00  0.00    +0.000 A 
ATOM      5  C   UNL     1      -9.085   2.532 131.795  0.00  0.00    +0.000 A 
ATOM      6  C   UNL     1      -8.409   2.360 132.979  0.00  0.00    +0.000 A 
ATOM      7  O   UNL     1      -7.860   1.121 133.087  0.00  0.00    +0.000 OA
ATOM      8  C   UNL     1      -8.331   0.509 131.868  0.00  0.00    +0.000 C 
ATOM      9  O   UNL     1      -9.040   1.423 131.006  0.00  0.00    +0.000 OA
ATOM     10  C   UNL     1      -8.327   3.364 133.918  0.00  0.00    +0.000 A 
ATOM     11  C   UNL     1      -8.964   4.576 133.636  0.00  0.00    +0.000 A 
ENDBRANCH   2   3
BRANCH   1  12
ATOM     12  C   UNL     1     -12.114   7.407 131.026  0.00  0.00    +0.000 C 
BRANCH  12  14
ATOM     13  C   UNL     1     -12.778   9.119 129.277  0.00  0.00    +0.000 C 
ATOM     14  C   UNL     1     -12.155   7.728 129.500  0.00  0.00    +0.000 C 
ATOM     15  C   UNL     1     -13.005   6.693 128.732  0.00  0.00    +0.000 C 
ATOM     16  C   UNL     1     -10.723   7.745 128.926  0.00  0.00    +0.000 C 
ENDBRANCH  12  14
BRANCH  12  17
ATOM     17  O   UNL     1     -13.433   7.309 131.559  0.00  0.00    +0.000 OA
ATOM     18  H   UNL     1     -14.026   7.067 130.829  0.00  0.00    +0.000 HD
ENDBRANCH  12  17
ENDBRANCH   1  12
TORSDOF 4
ENDMDL
MODEL 5
REMARK VINA RESULT:      -6.2      2.605      6.450
REMARK  Name = Stiripentol
REMARK  7 active torsions:
REMARK  status: ('A' for Active; 'I' for Inactive)
REMARK    1  A    between atoms: C_1  and  C_2
REMARK    2  A    between atoms: C_2  and  C_3
REMARK    3  A    between atoms: C_2  and  C_4
REMARK    4  A    between atoms: C_2  and  C_5
REMARK    5  A    between atoms: C_5  and  O_6
REMARK    6  A    between atoms: C_5  and  C_7
REMARK    7  A    between atoms: C_8  and  C_9
REMARK                            x       y       z     vdW  Elec       q    Type
REMARK                         _______ _______ _______ _____ _____    ______ ____
ROOT
ATOM      1  C   UNL     1      -9.375   4.840 132.296  0.00  0.00    +0.000 C 
ATOM      2  C   UNL     1     -10.242   5.860 132.379  0.00  0.00    +0.000 C 
ENDROOT
BRANCH   2   3
ATOM      3  C   UNL     1     -10.775   6.500 131.172  0.00  0.00    +0.000 A 
ATOM      4  C   UNL     1     -10.053   6.524 129.966  0.00  0.00    +0.000 A 
ATOM      5  C   UNL     1     -10.617   7.162 128.883  0.00  0.00    +0.000 A 
ATOM      6  C   UNL     1     -11.854   7.756 128.959  0.00  0.00    +0.000 A 
ATOM      7  O   UNL     1     -12.222   8.337 127.785  0.00  0.00    +0.000 OA
ATOM      8  C   UNL     1     -11.043   8.102 126.986  0.00  0.00    +0.000 C 
ATOM      9  O   UNL     1     -10.055   7.287 127.650  0.00  0.00    +0.000 OA
ATOM     10  C   UNL     1     -12.597   7.739 130.118  0.00  0.00    +0.000 A 
ATOM     11  C   UNL     1     -12.051   7.098 131.234  0.00  0.00    +0.000 A 
ENDBRANCH   2   3
BRANCH   1  12
ATOM     12  C   UNL     1      -8.780   4.112 133.468  0.00  0.00    +0.000 C 
BRANCH  12  14
ATOM     13  C   UNL     1      -7.812   5.693 135.197  0.00  0.00    +0.000 C 
ATOM     14  C   UNL     1      -7.476   4.777 134.005  0.00  0.00    +0.000 C 
ATOM     15  C   UNL     1      -6.795   5.636 132.917  0.00  0.00    +0.000 C 
ATOM     16  C   UNL     1      -6.493   3.693 134.495  0.00  0.00    +0.000 C 
ENDBRANCH  12  14
BRANCH  12  17
ATOM     17  O   UNL     1      -9.764   4.021 134.495  0.00  0.00    +0.000 OA
ATOM     18  H   UNL     1     -10.306   4.826 134.453  0.00  0.00    +0.000 HD
ENDBRANCH  12  17
ENDBRANCH   1  12
TORSDOF 4
ENDMDL
MODEL 6
REMARK VINA RESULT:      -6.2      1.394      6.643
REMARK  Name = Stiripentol
REMARK  7 active torsions:
REMARK  status: ('A' for Active; 'I' for Inactive)
REMARK    1  A    between atoms: C_1  and  C_2
REMARK    2  A    between atoms: C_2  and  C_3
REMARK    3  A    between atoms: C_2  and  C_4
REMARK    4  A    between atoms: C_2  and  C_5
REMARK    5  A    between atoms: C_5  and  O_6
REMARK    6  A    between atoms: C_5  and  C_7
REMARK    7  A    between atoms: C_8  and  C_9
REMARK                            x       y       z     vdW  Elec       q    Type
REMARK                         _______ _______ _______ _____ _____    ______ ____
ROOT
ATOM      1  C   UNL     1      -6.393   6.559 131.472  0.00  0.00    +0.000 C 
ATOM      2  C   UNL     1      -7.537   6.075 131.979  0.00  0.00    +0.000 C 
ENDROOT
BRANCH   2   3
ATOM      3  C   UNL     1      -8.837   6.472 131.427  0.00  0.00    +0.000 A 
ATOM      4  C   UNL     1      -8.940   7.210 130.236  0.00  0.00    +0.000 A 
ATOM      5  C   UNL     1     -10.198   7.558 129.794  0.00  0.00    +0.000 A 
ATOM      6  C   UNL     1     -11.331   7.195 130.482  0.00  0.00    +0.000 A 
ATOM      7  O   UNL     1     -12.467   7.645 129.883  0.00  0.00    +0.000 OA
ATOM      8  C   UNL     1     -11.913   8.395 128.782  0.00  0.00    +0.000 C 
ATOM      9  O   UNL     1     -10.479   8.276 128.672  0.00  0.00    +0.000 OA
ATOM     10  C   UNL     1     -11.269   6.457 131.644  0.00  0.00    +0.000 A 
ATOM     11  C   UNL     1     -10.006   6.089 132.116  0.00  0.00    +0.000 A 
ENDBRANCH   2   3
BRANCH   1  12
ATOM     12  C   UNL     1      -5.015   6.210 131.958  0.00  0.00    +0.000 C 
BRANCH  12  14
ATOM     13  C   UNL     1      -2.950   6.044 130.496  0.00  0.00    +0.000 C 
ATOM     14  C   UNL     1      -3.889   7.013 131.238  0.00  0.00    +0.000 C 
ATOM     15  C   UNL     1      -3.044   7.822 132.247  0.00  0.00    +0.000 C 
ATOM     16  C   UNL     1      -4.508   7.973 130.199  0.00  0.00    +0.000 C 
ENDBRANCH  12  14
BRANCH  12  17
ATOM     17  O   UNL     1      -4.963   6.415 133.368  0.00  0.00    +0.000 OA
ATOM     18  H   UNL     1      -5.878   6.479 133.688  0.00  0.00    +0.000 HD
ENDBRANCH  12  17
ENDBRANCH   1  12
TORSDOF 4
ENDMDL
MODEL 7
REMARK VINA RESULT:      -6.1     10.241     10.756
REMARK  Name = Stiripentol
REMARK  7 active torsions:
REMARK  status: ('A' for Active; 'I' for Inactive)
REMARK    1  A    between atoms: C_1  and  C_2
REMARK    2  A    between atoms: C_2  and  C_3
REMARK    3  A    between atoms: C_2  and  C_4
REMARK    4  A    between atoms: C_2  and  C_5
REMARK    5  A    between atoms: C_5  and  O_6
REMARK    6  A    between atoms: C_5  and  C_7
REMARK    7  A    between atoms: C_8  and  C_9
REMARK                            x       y       z     vdW  Elec       q    Type
REMARK                         _______ _______ _______ _____ _____    ______ ____
ROOT
ATOM      1  C   UNL     1      -8.090  -2.274 126.612  0.00  0.00    +0.000 C 
ATOM      2  C   UNL     1      -8.295  -2.928 127.765  0.00  0.00    +0.000 C 
ENDROOT
BRANCH   2   3
ATOM      3  C   UNL     1      -7.275  -2.941 128.819  0.00  0.00    +0.000 A 
ATOM      4  C   UNL     1      -7.588  -3.279 130.147  0.00  0.00    +0.000 A 
ATOM      5  C   UNL     1      -6.575  -3.249 131.081  0.00  0.00    +0.000 A 
ATOM      6  C   UNL     1      -5.287  -2.911 130.739  0.00  0.00    +0.000 A 
ATOM      7  O   UNL     1      -4.445  -2.934 131.807  0.00  0.00    +0.000 OA
ATOM      8  C   UNL     1      -5.367  -3.254 132.871  0.00  0.00    +0.000 C 
ATOM      9  O   UNL     1      -6.703  -3.536 132.405  0.00  0.00    +0.000 OA
ATOM     10  C   UNL     1      -4.941  -2.591 129.445  0.00  0.00    +0.000 A 
ATOM     11  C   UNL     1      -5.948  -2.613 128.475  0.00  0.00    +0.000 A 
ENDBRANCH   2   3
BRANCH   1  12
ATOM     12  C   UNL     1      -9.072  -2.192 125.477  0.00  0.00    +0.000 C 
BRANCH  12  14
ATOM     13  C   UNL     1      -9.603  -3.377 123.300  0.00  0.00    +0.000 C 
ATOM     14  C   UNL     1      -8.490  -2.704 124.125  0.00  0.00    +0.000 C 
ATOM     15  C   UNL     1      -7.369  -3.741 124.354  0.00  0.00    +0.000 C 
ATOM     16  C   UNL     1      -7.935  -1.519 123.306  0.00  0.00    +0.000 C 
ENDBRANCH  12  14
BRANCH  12  17
ATOM     17  O   UNL     1     -10.244  -2.921 125.834  0.00  0.00    +0.000 OA
ATOM     18  H   UNL     1     -10.964  -2.619 125.257  0.00  0.00    +0.000 HD
ENDBRANCH  12  17
ENDBRANCH   1  12
TORSDOF 4
ENDMDL
MODEL 8
REMARK VINA RESULT:      -6.1      1.076      2.257
REMARK  Name = Stiripentol
REMARK  7 active torsions:
REMARK  status: ('A' for Active; 'I' for Inactive)
REMARK    1  A    between atoms: C_1  and  C_2
REMARK    2  A    between atoms: C_2  and  C_3
REMARK    3  A    between atoms: C_2  and  C_4
REMARK    4  A    between atoms: C_2  and  C_5
REMARK    5  A    between atoms: C_5  and  O_6
REMARK    6  A    between atoms: C_5  and  C_7
REMARK    7  A    between atoms: C_8  and  C_9
REMARK                            x       y       z     vdW  Elec       q    Type
REMARK                         _______ _______ _______ _____ _____    ______ ____
ROOT
ATOM      1  C   UNL     1     -10.810   7.005 130.450  0.00  0.00    +0.000 C 
ATOM      2  C   UNL     1     -10.285   5.956 131.099  0.00  0.00    +0.000 C 
ENDROOT
BRANCH   2   3
ATOM      3  C   UNL     1      -8.934   6.016 131.667  0.00  0.00    +0.000 A 
ATOM      4  C   UNL     1      -8.644   5.501 132.943  0.00  0.00    +0.000 A 
ATOM      5  C   UNL     1      -7.353   5.613 133.410  0.00  0.00    +0.000 A 
ATOM      6  C   UNL     1      -6.362   6.202 132.661  0.00  0.00    +0.000 A 
ATOM      7  O   UNL     1      -5.165   6.220 133.308  0.00  0.00    +0.000 OA
ATOM      8  C   UNL     1      -5.536   5.642 134.578  0.00  0.00    +0.000 C 
ATOM      9  O   UNL     1      -6.902   5.180 134.619  0.00  0.00    +0.000 OA
ATOM     10  C   UNL     1      -6.606   6.702 131.401  0.00  0.00    +0.000 A 
ATOM     11  C   UNL     1      -7.907   6.601 130.899  0.00  0.00    +0.000 A 
ENDBRANCH   2   3
BRANCH   1  12
ATOM     12  C   UNL     1     -12.184   7.049 129.842  0.00  0.00    +0.000 C 
BRANCH  12  14
ATOM     13  C   UNL     1     -12.803   9.490 129.549  0.00  0.00    +0.000 C 
ATOM     14  C   UNL     1     -12.364   8.209 128.816  0.00  0.00    +0.000 C 
ATOM     15  C   UNL     1     -13.441   7.865 127.763  0.00  0.00    +0.000 C 
ATOM     16  C   UNL     1     -11.024   8.497 128.105  0.00  0.00    +0.000 C 
ENDBRANCH  12  14
BRANCH  12  17
ATOM     17  O   UNL     1     -12.453   5.787 129.234  0.00  0.00    +0.000 OA
ATOM     18  H   UNL     1     -13.274   5.879 128.723  0.00  0.00    +0.000 HD
ENDBRANCH  12  17
ENDBRANCH   1  12
TORSDOF 4
ENDMDL
MODEL 9
REMARK VINA RESULT:      -6.1     10.107     10.558
REMARK  Name = Stiripentol
REMARK  7 active torsions:
REMARK  status: ('A' for Active; 'I' for Inactive)
REMARK    1  A    between atoms: C_1  and  C_2
REMARK    2  A    between atoms: C_2  and  C_3
REMARK    3  A    between atoms: C_2  and  C_4
REMARK    4  A    between atoms: C_2  and  C_5
REMARK    5  A    between atoms: C_5  and  O_6
REMARK    6  A    between atoms: C_5  and  C_7
REMARK    7  A    between atoms: C_8  and  C_9
REMARK                            x       y       z     vdW  Elec       q    Type
REMARK                         _______ _______ _______ _____ _____    ______ ____
ROOT
ATOM      1  C   UNL     1      -8.166  -2.230 126.598  0.00  0.00    +0.000 C 
ATOM      2  C   UNL     1      -8.342  -2.916 127.738  0.00  0.00    +0.000 C 
ENDROOT
BRANCH   2   3
ATOM      3  C   UNL     1      -7.344  -2.868 128.812  0.00  0.00    +0.000 A 
ATOM      4  C   UNL     1      -6.014  -2.482 128.570  0.00  0.00    +0.000 A 
ATOM      5  C   UNL     1      -5.135  -2.481 129.631  0.00  0.00    +0.000 A 
ATOM      6  C   UNL     1      -5.532  -2.835 130.898  0.00  0.00    +0.000 A 
ATOM      7  O   UNL     1      -4.511  -2.776 131.795  0.00  0.00    +0.000 OA
ATOM      8  C   UNL     1      -3.413  -2.415 130.932  0.00  0.00    +0.000 C 
ATOM      9  O   UNL     1      -3.817  -2.146 129.573  0.00  0.00    +0.000 OA
ATOM     10  C   UNL     1      -6.830  -3.202 131.175  0.00  0.00    +0.000 A 
ATOM     11  C   UNL     1      -7.745  -3.212 130.119  0.00  0.00    +0.000 A 
ENDBRANCH   2   3
BRANCH   1  12
ATOM     12  C   UNL     1      -9.129  -2.205 125.445  0.00  0.00    +0.000 C 
BRANCH  12  14
ATOM     13  C   UNL     1      -7.848  -1.557 123.355  0.00  0.00    +0.000 C 
ATOM     14  C   UNL     1      -8.505  -2.725 124.114  0.00  0.00    +0.000 C 
ATOM     15  C   UNL     1      -9.580  -3.349 123.197  0.00  0.00    +0.000 C 
ATOM     16  C   UNL     1      -7.415  -3.775 124.417  0.00  0.00    +0.000 C 
ENDBRANCH  12  14
BRANCH  12  17
ATOM     17  O   UNL     1     -10.281  -2.967 125.797  0.00  0.00    +0.000 OA
ATOM     18  H   UNL     1     -10.437  -2.840 126.748  0.00  0.00    +0.000 HD
ENDBRANCH  12  17
ENDBRANCH   1  12
TORSDOF 4
ENDMDL
