MODEL 1
REMARK VINA RESULT:      -6.0      0.000      0.000
REMARK  Name = Streptozocin
REMARK  8 active torsions:
REMARK  status: ('A' for Active; 'I' for Inactive)
REMARK    1  A    between atoms: C_1  and  N_2
REMARK    2  A    between atoms: N_2  and  N_3
REMARK    3  A    between atoms: N_7  and  C_8
REMARK    4  A    between atoms: C_9  and  O_10
REMARK    5  A    between atoms: C_12  and  C_13
REMARK    6  A    between atoms: C_13  and  O_14
REMARK    7  A    between atoms: C_15  and  O_16
REMARK    8  A    between atoms: C_17  and  O_18
REMARK                            x       y       z     vdW  Elec       q    Type
REMARK                         _______ _______ _______ _____ _____    ______ ____
ROOT
ATOM      1  C   UNL     1     -10.010   5.958 130.529  0.00  0.00    +0.000 C 
ATOM      2  C   UNL     1     -11.411   5.461 130.569  0.00  0.00    +0.000 C 
ATOM      3  O   UNL     1     -12.145   5.470 129.391  0.00  0.00    +0.000 OA
ATOM      4  C   UNL     1     -12.471   6.805 129.130  0.00  0.00    +0.000 C 
ATOM      5  C   UNL     1     -11.147   7.541 128.854  0.00  0.00    +0.000 C 
ATOM      6  C   UNL     1     -10.124   7.432 130.053  0.00  0.00    +0.000 C 
ENDROOT
BRANCH   1  11
ATOM      7  C   UNL     1      -5.820   6.118 132.764  0.00  0.00    +0.000 C 
ATOM      8  N   UNL     1      -6.993   6.316 131.935  0.00  0.00    +0.000 N 
ATOM      9  C   UNL     1      -8.208   5.810 132.500  0.00  0.00    +0.000 C 
ATOM     10  O   UNL     1      -8.234   5.444 133.661  0.00  0.00    +0.000 OA
ATOM     11  N   UNL     1      -9.461   5.744 131.892  0.00  0.00    +0.000 N 
ATOM     12  H   UNL     1     -10.170   5.473 132.574  0.00  0.00    +0.000 HD
BRANCH   8  13
ATOM     13  N   UNL     1      -6.507   6.251 130.620  0.00  0.00    +0.000 NA
ATOM     14  O   UNL     1      -5.986   7.296 130.213  0.00  0.00    +0.000 OA
ENDBRANCH   8  13
ENDBRANCH   1  11
BRANCH   2  15
ATOM     15  O   UNL     1     -12.124   6.204 131.586  0.00  0.00    +0.000 OA
ATOM     16  H   UNL     1     -12.852   6.749 131.258  0.00  0.00    +0.000 HD
ENDBRANCH   2  15
BRANCH   5  17
ATOM     17  O   UNL     1     -11.439   8.894 128.537  0.00  0.00    +0.000 OA
ATOM     18  H   UNL     1     -12.152   8.899 127.874  0.00  0.00    +0.000 HD
ENDBRANCH   5  17
BRANCH   6  19
ATOM     19  O   UNL     1      -8.845   7.973 129.717  0.00  0.00    +0.000 OA
ATOM     20  H   UNL     1      -8.243   7.245 129.487  0.00  0.00    +0.000 HD
ENDBRANCH   6  19
BRANCH   4  21
ATOM     21  C   UNL     1     -13.488   6.813 128.018  0.00  0.00    +0.000 C 
BRANCH  21  22
ATOM     22  O   UNL     1     -12.792   6.846 126.780  0.00  0.00    +0.000 OA
ATOM     23  H   UNL     1     -12.669   7.792 126.573  0.00  0.00    +0.000 HD
ENDBRANCH  21  22
ENDBRANCH   4  21
TORSDOF 7
ENDMDL
MODEL 2
REMARK VINA RESULT:      -5.9      2.699      3.088
REMARK  Name = Streptozocin
REMARK  8 active torsions:
REMARK  status: ('A' for Active; 'I' for Inactive)
REMARK    1  A    between atoms: C_1  and  N_2
REMARK    2  A    between atoms: N_2  and  N_3
REMARK    3  A    between atoms: N_7  and  C_8
REMARK    4  A    between atoms: C_9  and  O_10
REMARK    5  A    between atoms: C_12  and  C_13
REMARK    6  A    between atoms: C_13  and  O_14
REMARK    7  A    between atoms: C_15  and  O_16
REMARK    8  A    between atoms: C_17  and  O_18
REMARK                            x       y       z     vdW  Elec       q    Type
REMARK                         _______ _______ _______ _____ _____    ______ ____
ROOT
ATOM      1  C   UNL     1     -10.984   5.210 130.371  0.00  0.00    +0.000 C 
ATOM      2  C   UNL     1     -11.912   6.074 131.149  0.00  0.00    +0.000 C 
ATOM      3  O   UNL     1     -12.689   6.993 130.457  0.00  0.00    +0.000 OA
ATOM      4  C   UNL     1     -11.832   8.023 130.056  0.00  0.00    +0.000 C 
ATOM      5  C   UNL     1     -10.840   7.410 129.051  0.00  0.00    +0.000 C 
ATOM      6  C   UNL     1     -10.024   6.200 129.656  0.00  0.00    +0.000 C 
ENDROOT
BRANCH   1  11
ATOM      7  C   UNL     1      -8.244   1.329 130.398  0.00  0.00    +0.000 C 
ATOM      8  N   UNL     1      -8.898   2.600 130.160  0.00  0.00    +0.000 N 
ATOM      9  C   UNL     1      -9.558   3.150 131.306  0.00  0.00    +0.000 C 
ATOM     10  O   UNL     1      -9.378   2.659 132.405  0.00  0.00    +0.000 OA
ATOM     11  N   UNL     1     -10.366   4.284 131.355  0.00  0.00    +0.000 N 
ATOM     12  H   UNL     1     -10.584   4.521 132.323  0.00  0.00    +0.000 HD
BRANCH   8  13
ATOM     13  N   UNL     1      -9.310   2.536 128.819  0.00  0.00    +0.000 NA
ATOM     14  O   UNL     1      -8.483   2.963 128.007  0.00  0.00    +0.000 OA
ENDBRANCH   8  13
ENDBRANCH   1  11
BRANCH   2  15
ATOM     15  O   UNL     1     -11.143   6.762 132.165  0.00  0.00    +0.000 OA
ATOM     16  H   UNL     1     -10.626   6.186 132.745  0.00  0.00    +0.000 HD
ENDBRANCH   2  15
BRANCH   5  17
ATOM     17  O   UNL     1      -9.978   8.437 128.581  0.00  0.00    +0.000 OA
ATOM     18  H   UNL     1      -9.098   8.292 128.972  0.00  0.00    +0.000 HD
ENDBRANCH   5  17
BRANCH   6  19
ATOM     19  O   UNL     1      -9.233   5.538 128.667  0.00  0.00    +0.000 OA
ATOM     20  H   UNL     1      -8.820   6.205 128.093  0.00  0.00    +0.000 HD
ENDBRANCH   6  19
BRANCH   4  21
ATOM     21  C   UNL     1     -12.691   9.153 129.547  0.00  0.00    +0.000 C 
BRANCH  21  22
ATOM     22  O   UNL     1     -12.625   9.156 128.128  0.00  0.00    +0.000 OA
ATOM     23  H   UNL     1     -12.615   8.216 127.863  0.00  0.00    +0.000 HD
ENDBRANCH  21  22
ENDBRANCH   4  21
TORSDOF 7
ENDMDL
MODEL 3
REMARK VINA RESULT:      -5.7      2.857      6.055
REMARK  Name = Streptozocin
REMARK  8 active torsions:
REMARK  status: ('A' for Active; 'I' for Inactive)
REMARK    1  A    between atoms: C_1  and  N_2
REMARK    2  A    between atoms: N_2  and  N_3
REMARK    3  A    between atoms: N_7  and  C_8
REMARK    4  A    between atoms: C_9  and  O_10
REMARK    5  A    between atoms: C_12  and  C_13
REMARK    6  A    between atoms: C_13  and  O_14
REMARK    7  A    between atoms: C_15  and  O_16
REMARK    8  A    between atoms: C_17  and  O_18
REMARK                            x       y       z     vdW  Elec       q    Type
REMARK                         _______ _______ _______ _____ _____    ______ ____
ROOT
ATOM      1  C   UNL     1      -9.609   4.870 131.806  0.00  0.00    +0.000 C 
ATOM      2  C   UNL     1      -9.090   4.658 133.184  0.00  0.00    +0.000 C 
ATOM      3  O   UNL     1      -7.859   4.035 133.333  0.00  0.00    +0.000 OA
ATOM      4  C   UNL     1      -8.055   2.681 133.042  0.00  0.00    +0.000 C 
ATOM      5  C   UNL     1      -8.436   2.597 131.553  0.00  0.00    +0.000 C 
ATOM      6  C   UNL     1      -9.723   3.443 131.201  0.00  0.00    +0.000 C 
ENDROOT
BRANCH   1  11
ATOM      7  C   UNL     1     -12.840   7.025 129.069  0.00  0.00    +0.000 C 
ATOM      8  N   UNL     1     -11.852   6.158 129.681  0.00  0.00    +0.000 N 
ATOM      9  C   UNL     1     -11.798   6.240 131.110  0.00  0.00    +0.000 C 
ATOM     10  O   UNL     1     -12.664   6.841 131.719  0.00  0.00    +0.000 OA
ATOM     11  N   UNL     1     -10.878   5.626 131.959  0.00  0.00    +0.000 N 
ATOM     12  H   UNL     1     -11.164   5.742 132.932  0.00  0.00    +0.000 HD
BRANCH   8  13
ATOM     13  N   UNL     1     -10.817   6.086 128.736  0.00  0.00    +0.000 NA
ATOM     14  O   UNL     1      -9.757   6.610 129.095  0.00  0.00    +0.000 OA
ENDBRANCH   8  13
ENDBRANCH   1  11
BRANCH   2  15
ATOM     15  O   UNL     1     -10.091   3.933 133.937  0.00  0.00    +0.000 OA
ATOM     16  H   UNL     1     -10.804   4.478 134.298  0.00  0.00    +0.000 HD
ENDBRANCH   2  15
BRANCH   5  17
ATOM     17  O   UNL     1      -8.599   1.230 131.203  0.00  0.00    +0.000 OA
ATOM     18  H   UNL     1      -9.509   0.968 131.434  0.00  0.00    +0.000 HD
ENDBRANCH   5  17
BRANCH   6  19
ATOM     19  O   UNL     1      -9.965   3.491 129.793  0.00  0.00    +0.000 OA
ATOM     20  H   UNL     1     -10.893   3.256 129.623  0.00  0.00    +0.000 HD
ENDBRANCH   6  19
BRANCH   4  21
ATOM     21  C   UNL     1      -6.808   1.943 133.459  0.00  0.00    +0.000 C 
BRANCH  21  22
ATOM     22  O   UNL     1      -7.156   0.588 133.704  0.00  0.00    +0.000 OA
ATOM     23  H   UNL     1      -7.207   0.166 132.826  0.00  0.00    +0.000 HD
ENDBRANCH  21  22
ENDBRANCH   4  21
TORSDOF 7
ENDMDL
MODEL 4
REMARK VINA RESULT:      -5.7      2.343      5.888
REMARK  Name = Streptozocin
REMARK  8 active torsions:
REMARK  status: ('A' for Active; 'I' for Inactive)
REMARK    1  A    between atoms: C_1  and  N_2
REMARK    2  A    between atoms: N_2  and  N_3
REMARK    3  A    between atoms: N_7  and  C_8
REMARK    4  A    between atoms: C_9  and  O_10
REMARK    5  A    between atoms: C_12  and  C_13
REMARK    6  A    between atoms: C_13  and  O_14
REMARK    7  A    between atoms: C_15  and  O_16
REMARK    8  A    between atoms: C_17  and  O_18
REMARK                            x       y       z     vdW  Elec       q    Type
REMARK                         _______ _______ _______ _____ _____    ______ ____
ROOT
ATOM      1  C   UNL     1      -9.771   5.752 130.547  0.00  0.00    +0.000 C 
ATOM      2  C   UNL     1      -8.556   4.987 130.159  0.00  0.00    +0.000 C 
ATOM      3  O   UNL     1      -8.309   3.780 130.798  0.00  0.00    +0.000 OA
ATOM      4  C   UNL     1      -7.879   4.090 132.092  0.00  0.00    +0.000 C 
ATOM      5  C   UNL     1      -9.069   4.755 132.809  0.00  0.00    +0.000 C 
ATOM      6  C   UNL     1      -9.591   6.046 132.062  0.00  0.00    +0.000 C 
ENDROOT
BRANCH   1  11
ATOM      7  C   UNL     1     -12.877   9.062 129.140  0.00  0.00    +0.000 C 
ATOM      8  N   UNL     1     -12.062   8.090 129.842  0.00  0.00    +0.000 N 
ATOM      9  C   UNL     1     -10.765   7.882 129.270  0.00  0.00    +0.000 C 
ATOM     10  O   UNL     1     -10.357   8.628 128.399  0.00  0.00    +0.000 OA
ATOM     11  N   UNL     1      -9.816   6.932 129.646  0.00  0.00    +0.000 N 
ATOM     12  H   UNL     1      -8.934   7.106 129.164  0.00  0.00    +0.000 HD
BRANCH   8  13
ATOM     13  N   UNL     1     -12.985   7.168 130.360  0.00  0.00    +0.000 NA
ATOM     14  O   UNL     1     -13.211   7.292 131.568  0.00  0.00    +0.000 OA
ENDBRANCH   8  13
ENDBRANCH   1  11
BRANCH   2  15
ATOM     15  O   UNL     1      -7.408   5.857 130.311  0.00  0.00    +0.000 OA
ATOM     16  H   UNL     1      -6.558   5.452 130.091  0.00  0.00    +0.000 HD
ENDBRANCH   2  15
BRANCH   5  17
ATOM     17  O   UNL     1      -8.688   5.044 134.146  0.00  0.00    +0.000 OA
ATOM     18  H   UNL     1      -9.265   4.530 134.739  0.00  0.00    +0.000 HD
ENDBRANCH   5  17
BRANCH   6  19
ATOM     19  O   UNL     1     -10.794   6.553 132.643  0.00  0.00    +0.000 OA
ATOM     20  H   UNL     1     -10.860   7.504 132.455  0.00  0.00    +0.000 HD
ENDBRANCH   6  19
BRANCH   4  21
ATOM     21  C   UNL     1      -7.348   2.821 132.709  0.00  0.00    +0.000 C 
BRANCH  21  22
ATOM     22  O   UNL     1      -8.406   2.199 133.423  0.00  0.00    +0.000 OA
ATOM     23  H   UNL     1      -8.058   2.037 134.321  0.00  0.00    +0.000 HD
ENDBRANCH  21  22
ENDBRANCH   4  21
TORSDOF 7
ENDMDL
MODEL 5
REMARK VINA RESULT:      -5.3      1.787      3.194
REMARK  Name = Streptozocin
REMARK  8 active torsions:
REMARK  status: ('A' for Active; 'I' for Inactive)
REMARK    1  A    between atoms: C_1  and  N_2
REMARK    2  A    between atoms: N_2  and  N_3
REMARK    3  A    between atoms: N_7  and  C_8
REMARK    4  A    between atoms: C_9  and  O_10
REMARK    5  A    between atoms: C_12  and  C_13
REMARK    6  A    between atoms: C_13  and  O_14
REMARK    7  A    between atoms: C_15  and  O_16
REMARK    8  A    between atoms: C_17  and  O_18
REMARK                            x       y       z     vdW  Elec       q    Type
REMARK                         _______ _______ _______ _____ _____    ______ ____
ROOT
ATOM      1  C   UNL     1      -9.890   6.775 131.370  0.00  0.00    +0.000 C 
ATOM      2  C   UNL     1      -9.032   7.019 130.181  0.00  0.00    +0.000 C 
ATOM      3  O   UNL     1      -9.542   7.797 129.151  0.00  0.00    +0.000 OA
ATOM      4  C   UNL     1     -10.491   7.012 128.487  0.00  0.00    +0.000 C 
ATOM      5  C   UNL     1     -11.636   6.759 129.484  0.00  0.00    +0.000 C 
ATOM      6  C   UNL     1     -11.148   6.054 130.812  0.00  0.00    +0.000 C 
ENDROOT
BRANCH   1  11
ATOM      7  C   UNL     1      -8.798   2.249 132.316  0.00  0.00    +0.000 C 
ATOM      8  N   UNL     1      -9.115   3.539 131.736  0.00  0.00    +0.000 N 
ATOM      9  C   UNL     1      -8.765   4.659 132.557  0.00  0.00    +0.000 C 
ATOM     10  O   UNL     1      -8.078   4.496 133.549  0.00  0.00    +0.000 OA
ATOM     11  N   UNL     1      -9.056   6.002 132.326  0.00  0.00    +0.000 N 
ATOM     12  H   UNL     1      -8.563   6.591 132.998  0.00  0.00    +0.000 HD
BRANCH   8  13
ATOM     13  N   UNL     1     -10.264   3.302 130.964  0.00  0.00    +0.000 NA
ATOM     14  O   UNL     1     -10.050   3.165 129.755  0.00  0.00    +0.000 OA
ENDBRANCH   8  13
ENDBRANCH   1  11
BRANCH   2  15
ATOM     15  O   UNL     1      -8.613   5.737 129.655  0.00  0.00    +0.000 OA
ATOM     16  H   UNL     1      -9.290   5.261 129.154  0.00  0.00    +0.000 HD
ENDBRANCH   2  15
BRANCH   5  17
ATOM     17  O   UNL     1     -12.646   6.002 128.832  0.00  0.00    +0.000 OA
ATOM     18  H   UNL     1     -13.140   6.604 128.247  0.00  0.00    +0.000 HD
ENDBRANCH   5  17
BRANCH   6  19
ATOM     19  O   UNL     1     -12.185   5.979 131.791  0.00  0.00    +0.000 OA
ATOM     20  H   UNL     1     -12.564   6.865 131.922  0.00  0.00    +0.000 HD
ENDBRANCH   6  19
BRANCH   4  21
ATOM     21  C   UNL     1     -10.857   7.727 127.211  0.00  0.00    +0.000 C 
BRANCH  21  22
ATOM     22  O   UNL     1     -11.288   6.758 126.267  0.00  0.00    +0.000 OA
ATOM     23  H   UNL     1     -12.135   7.091 125.915  0.00  0.00    +0.000 HD
ENDBRANCH  21  22
ENDBRANCH   4  21
TORSDOF 7
ENDMDL
MODEL 6
REMARK VINA RESULT:      -5.3      1.917      3.038
REMARK  Name = Streptozocin
REMARK  8 active torsions:
REMARK  status: ('A' for Active; 'I' for Inactive)
REMARK    1  A    between atoms: C_1  and  N_2
REMARK    2  A    between atoms: N_2  and  N_3
REMARK    3  A    between atoms: N_7  and  C_8
REMARK    4  A    between atoms: C_9  and  O_10
REMARK    5  A    between atoms: C_12  and  C_13
REMARK    6  A    between atoms: C_13  and  O_14
REMARK    7  A    between atoms: C_15  and  O_16
REMARK    8  A    between atoms: C_17  and  O_18
REMARK                            x       y       z     vdW  Elec       q    Type
REMARK                         _______ _______ _______ _____ _____    ______ ____
ROOT
ATOM      1  C   UNL     1      -9.694   6.576 130.583  0.00  0.00    +0.000 C 
ATOM      2  C   UNL     1     -10.076   7.119 129.252  0.00  0.00    +0.000 C 
ATOM      3  O   UNL     1     -10.827   8.285 129.209  0.00  0.00    +0.000 OA
ATOM      4  C   UNL     1     -12.125   7.942 129.604  0.00  0.00    +0.000 C 
ATOM      5  C   UNL     1     -12.040   7.502 131.077  0.00  0.00    +0.000 C 
ATOM      6  C   UNL     1     -11.044   6.297 131.300  0.00  0.00    +0.000 C 
ENDROOT
BRANCH   1  11
ATOM      7  C   UNL     1      -6.557   3.837 132.870  0.00  0.00    +0.000 C 
ATOM      8  N   UNL     1      -7.665   4.667 132.438  0.00  0.00    +0.000 N 
ATOM      9  C   UNL     1      -7.924   4.622 131.030  0.00  0.00    +0.000 C 
ATOM     10  O   UNL     1      -7.372   3.789 130.336  0.00  0.00    +0.000 OA
ATOM     11  N   UNL     1      -8.833   5.397 130.311  0.00  0.00    +0.000 N 
ATOM     12  H   UNL     1      -8.909   5.053 129.354  0.00  0.00    +0.000 HD
BRANCH   8  13
ATOM     13  N   UNL     1      -7.652   5.755 133.325  0.00  0.00    +0.000 NA
ATOM     14  O   UNL     1      -8.348   5.602 134.335  0.00  0.00    +0.000 OA
ENDBRANCH   8  13
ENDBRANCH   1  11
BRANCH   2  15
ATOM     15  O   UNL     1     -10.762   6.076 128.519  0.00  0.00    +0.000 OA
ATOM     16  H   UNL     1     -10.193   5.525 127.965  0.00  0.00    +0.000 HD
ENDBRANCH   2  15
BRANCH   5  17
ATOM     17  O   UNL     1     -13.349   7.189 131.532  0.00  0.00    +0.000 OA
ATOM     18  H   UNL     1     -13.895   7.991 131.446  0.00  0.00    +0.000 HD
ENDBRANCH   5  17
BRANCH   6  19
ATOM     19  O   UNL     1     -10.849   6.011 132.686  0.00  0.00    +0.000 OA
ATOM     20  H   UNL     1     -10.324   5.197 132.772  0.00  0.00    +0.000 HD
ENDBRANCH   6  19
BRANCH   4  21
ATOM     21  C   UNL     1     -13.015   9.122 129.305  0.00  0.00    +0.000 C 
BRANCH  21  22
ATOM     22  O   UNL     1     -13.094   9.925 130.474  0.00  0.00    +0.000 OA
ATOM     23  H   UNL     1     -12.456   9.537 131.104  0.00  0.00    +0.000 HD
ENDBRANCH  21  22
ENDBRANCH   4  21
TORSDOF 7
ENDMDL
MODEL 7
REMARK VINA RESULT:      -5.2      2.639      5.535
REMARK  Name = Streptozocin
REMARK  8 active torsions:
REMARK  status: ('A' for Active; 'I' for Inactive)
REMARK    1  A    between atoms: C_1  and  N_2
REMARK    2  A    between atoms: N_2  and  N_3
REMARK    3  A    between atoms: N_7  and  C_8
REMARK    4  A    between atoms: C_9  and  O_10
REMARK    5  A    between atoms: C_12  and  C_13
REMARK    6  A    between atoms: C_13  and  O_14
REMARK    7  A    between atoms: C_15  and  O_16
REMARK    8  A    between atoms: C_17  and  O_18
REMARK                            x       y       z     vdW  Elec       q    Type
REMARK                         _______ _______ _______ _____ _____    ______ ____
ROOT
ATOM      1  C   UNL     1      -9.703   6.543 130.817  0.00  0.00    +0.000 C 
ATOM      2  C   UNL     1      -9.260   5.978 132.119  0.00  0.00    +0.000 C 
ATOM      3  O   UNL     1      -7.917   5.664 132.277  0.00  0.00    +0.000 OA
ATOM      4  C   UNL     1      -7.686   4.504 131.529  0.00  0.00    +0.000 C 
ATOM      5  C   UNL     1      -7.902   4.877 130.051  0.00  0.00    +0.000 C 
ATOM      6  C   UNL     1      -9.346   5.453 129.769  0.00  0.00    +0.000 C 
ENDROOT
BRANCH   1  11
ATOM      7  C   UNL     1     -13.130   8.884 128.504  0.00  0.00    +0.000 C 
ATOM      8  N   UNL     1     -12.000   8.082 128.929  0.00  0.00    +0.000 N 
ATOM      9  C   UNL     1     -12.114   7.554 130.256  0.00  0.00    +0.000 C 
ATOM     10  O   UNL     1     -13.174   7.628 130.851  0.00  0.00    +0.000 OA
ATOM     11  N   UNL     1     -11.145   6.858 130.977  0.00  0.00    +0.000 N 
ATOM     12  H   UNL     1     -11.548   6.480 131.835  0.00  0.00    +0.000 HD
BRANCH   8  13
ATOM     13  N   UNL     1     -10.899   8.653 128.271  0.00  0.00    +0.000 NA
ATOM     14  O   UNL     1     -10.798   8.345 127.079  0.00  0.00    +0.000 OA
ENDBRANCH   8  13
ENDBRANCH   1  11
BRANCH   2  15
ATOM     15  O   UNL     1     -10.065   4.809 132.402  0.00  0.00    +0.000 OA
ATOM     16  H   UNL     1     -10.510   4.817 133.260  0.00  0.00    +0.000 HD
ENDBRANCH   2  15
BRANCH   5  17
ATOM     17  O   UNL     1      -7.629   3.735 129.252  0.00  0.00    +0.000 OA
ATOM     18  H   UNL     1      -8.365   3.628 128.622  0.00  0.00    +0.000 HD
ENDBRANCH   5  17
BRANCH   6  19
ATOM     19  O   UNL     1      -9.475   5.948 128.435  0.00  0.00    +0.000 OA
ATOM     20  H   UNL     1      -9.455   6.920 128.454  0.00  0.00    +0.000 HD
ENDBRANCH   6  19
BRANCH   4  21
ATOM     21  C   UNL     1      -6.317   3.994 131.900  0.00  0.00    +0.000 C 
BRANCH  21  22
ATOM     22  O   UNL     1      -6.292   2.591 131.680  0.00  0.00    +0.000 OA
ATOM     23  H   UNL     1      -6.788   2.198 132.423  0.00  0.00    +0.000 HD
ENDBRANCH  21  22
ENDBRANCH   4  21
TORSDOF 7
ENDMDL
MODEL 8
REMARK VINA RESULT:      -5.2      1.974      2.575
REMARK  Name = Streptozocin
REMARK  8 active torsions:
REMARK  status: ('A' for Active; 'I' for Inactive)
REMARK    1  A    between atoms: C_1  and  N_2
REMARK    2  A    between atoms: N_2  and  N_3
REMARK    3  A    between atoms: N_7  and  C_8
REMARK    4  A    between atoms: C_9  and  O_10
REMARK    5  A    between atoms: C_12  and  C_13
REMARK    6  A    between atoms: C_13  and  O_14
REMARK    7  A    between atoms: C_15  and  O_16
REMARK    8  A    between atoms: C_17  and  O_18
REMARK                            x       y       z     vdW  Elec       q    Type
REMARK                         _______ _______ _______ _____ _____    ______ ____
ROOT
ATOM      1  C   UNL     1      -9.301   5.492 131.109  0.00  0.00    +0.000 C 
ATOM      2  C   UNL     1      -9.856   5.046 129.803  0.00  0.00    +0.000 C 
ATOM      3  O   UNL     1     -10.625   5.943 129.075  0.00  0.00    +0.000 OA
ATOM      4  C   UNL     1     -11.857   6.041 129.731  0.00  0.00    +0.000 C 
ATOM      5  C   UNL     1     -11.580   6.680 131.104  0.00  0.00    +0.000 C 
ATOM      6  C   UNL     1     -10.545   5.854 131.967  0.00  0.00    +0.000 C 
ENDROOT
BRANCH   1  11
ATOM      7  C   UNL     1      -4.894   3.806 130.551  0.00  0.00    +0.000 C 
ATOM      8  N   UNL     1      -6.101   4.593 130.712  0.00  0.00    +0.000 N 
ATOM      9  C   UNL     1      -7.158   3.920 131.406  0.00  0.00    +0.000 C 
ATOM     10  O   UNL     1      -6.940   2.863 131.970  0.00  0.00    +0.000 OA
ATOM     11  N   UNL     1      -8.463   4.369 131.602  0.00  0.00    +0.000 N 
ATOM     12  H   UNL     1      -8.954   3.753 132.250  0.00  0.00    +0.000 HD
BRANCH   8  13
ATOM     13  N   UNL     1      -6.140   5.412 129.573  0.00  0.00    +0.000 NA
ATOM     14  O   UNL     1      -6.543   4.848 128.550  0.00  0.00    +0.000 OA
ENDBRANCH   8  13
ENDBRANCH   1  11
BRANCH   2  15
ATOM     15  O   UNL     1     -10.613   3.832 130.026  0.00  0.00    +0.000 OA
ATOM     16  H   UNL     1     -10.191   3.023 129.703  0.00  0.00    +0.000 HD
ENDBRANCH   2  15
BRANCH   5  17
ATOM     17  O   UNL     1     -12.816   6.841 131.786  0.00  0.00    +0.000 OA
ATOM     18  H   UNL     1     -12.629   6.875 132.741  0.00  0.00    +0.000 HD
ENDBRANCH   5  17
BRANCH   6  19
ATOM     19  O   UNL     1     -10.173   6.543 133.162  0.00  0.00    +0.000 OA
ATOM     20  H   UNL     1      -9.294   6.237 133.443  0.00  0.00    +0.000 HD
ENDBRANCH   6  19
BRANCH   4  21
ATOM     21  C   UNL     1     -12.795   6.789 128.819  0.00  0.00    +0.000 C 
BRANCH  21  22
ATOM     22  O   UNL     1     -12.788   8.157 129.201  0.00  0.00    +0.000 OA
ATOM     23  H   UNL     1     -12.600   8.163 130.158  0.00  0.00    +0.000 HD
ENDBRANCH  21  22
ENDBRANCH   4  21
TORSDOF 7
ENDMDL
MODEL 9
REMARK VINA RESULT:      -5.1      2.849      3.865
REMARK  Name = Streptozocin
REMARK  8 active torsions:
REMARK  status: ('A' for Active; 'I' for Inactive)
REMARK    1  A    between atoms: C_1  and  N_2
REMARK    2  A    between atoms: N_2  and  N_3
REMARK    3  A    between atoms: N_7  and  C_8
REMARK    4  A    between atoms: C_9  and  O_10
REMARK    5  A    between atoms: C_12  and  C_13
REMARK    6  A    between atoms: C_13  and  O_14
REMARK    7  A    between atoms: C_15  and  O_16
REMARK    8  A    between atoms: C_17  and  O_18
REMARK                            x       y       z     vdW  Elec       q    Type
REMARK                         _______ _______ _______ _____ _____    ______ ____
ROOT
ATOM      1  C   UNL     1      -9.648   4.579 131.834  0.00  0.00    +0.000 C 
ATOM      2  C   UNL     1      -9.819   5.951 132.382  0.00  0.00    +0.000 C 
ATOM      3  O   UNL     1     -11.104   6.468 132.469  0.00  0.00    +0.000 OA
ATOM      4  C   UNL     1     -11.500   6.783 131.165  0.00  0.00    +0.000 C 
ATOM      5  C   UNL     1     -11.590   5.453 130.395  0.00  0.00    +0.000 C 
ATOM      6  C   UNL     1     -10.229   4.651 130.394  0.00  0.00    +0.000 C 
ENDROOT
BRANCH   1  11
ATOM      7  C   UNL     1      -6.710   0.909 131.150  0.00  0.00    +0.000 C 
ATOM      8  N   UNL     1      -7.743   1.924 131.106  0.00  0.00    +0.000 N 
ATOM      9  C   UNL     1      -7.382   3.163 131.727  0.00  0.00    +0.000 C 
ATOM     10  O   UNL     1      -6.228   3.364 132.061  0.00  0.00    +0.000 OA
ATOM     11  N   UNL     1      -8.200   4.270 131.948  0.00  0.00    +0.000 N 
ATOM     12  H   UNL     1      -7.644   5.060 132.277  0.00  0.00    +0.000 HD
BRANCH   8  13
ATOM     13  N   UNL     1      -8.946   1.202 131.153  0.00  0.00    +0.000 NA
ATOM     14  O   UNL     1      -9.634   1.416 132.157  0.00  0.00    +0.000 OA
ENDBRANCH   8  13
ENDBRANCH   1  11
BRANCH   2  15
ATOM     15  O   UNL     1      -8.988   6.852 131.611  0.00  0.00    +0.000 OA
ATOM     16  H   UNL     1      -8.036   6.739 131.740  0.00  0.00    +0.000 HD
ENDBRANCH   2  15
BRANCH   5  17
ATOM     17  O   UNL     1     -12.037   5.724 129.074  0.00  0.00    +0.000 OA
ATOM     18  H   UNL     1     -12.191   6.683 129.001  0.00  0.00    +0.000 HD
ENDBRANCH   5  17
BRANCH   6  19
ATOM     19  O   UNL     1     -10.373   3.349 129.823  0.00  0.00    +0.000 OA
ATOM     20  H   UNL     1      -9.543   2.857 129.944  0.00  0.00    +0.000 HD
ENDBRANCH   6  19
BRANCH   4  21
ATOM     21  C   UNL     1     -12.769   7.591 131.261  0.00  0.00    +0.000 C 
BRANCH  21  22
ATOM     22  O   UNL     1     -12.824   8.463 130.141  0.00  0.00    +0.000 OA
ATOM     23  H   UNL     1     -13.196   7.933 129.411  0.00  0.00    +0.000 HD
ENDBRANCH  21  22
ENDBRANCH   4  21
TORSDOF 7
ENDMDL
