MODEL 1
REMARK VINA RESULT:      -7.2      0.000      0.000
REMARK  Name = Streptomycin
REMARK  18 active torsions:
REMARK  status: ('A' for Active; 'I' for Inactive)
REMARK    1  A    between atoms: C_1  and  N_2
REMARK    2  A    between atoms: N_2  and  C_3
REMARK    3  A    between atoms: C_4  and  O_5
REMARK    4  A    between atoms: C_6  and  O_7
REMARK    5  A    between atoms: C_8  and  C_9
REMARK    6  A    between atoms: C_9  and  O_10
REMARK    7  A    between atoms: C_12  and  O_13
REMARK    8  A    between atoms: O_13  and  C_14
REMARK    9  A    between atoms: C_15  and  O_16
REMARK   10  A    between atoms: O_16  and  C_17
REMARK   11  A    between atoms: C_18  and  O_19
REMARK   12  A    between atoms: C_20  and  O_21
REMARK   13  A    between atoms: C_22  and  N_23
REMARK   14  A    between atoms: C_27  and  O_28
REMARK   15  A    between atoms: C_29  and  N_30
REMARK   16  A    between atoms: C_35  and  C_36
REMARK   17  A    between atoms: C_37  and  O_38
REMARK   18  A    between atoms: C_37  and  C_39
REMARK                            x       y       z     vdW  Elec       q    Type
REMARK                         _______ _______ _______ _____ _____    ______ ____
ROOT
ATOM      1  O   UNL     1      -8.220   3.767 130.515  0.00  0.00    +0.000 OA
ENDROOT
BRANCH   1   3
ATOM      2  C   UNL     1      -6.078   3.415 131.740  0.00  0.00    +0.000 C 
ATOM      3  C   UNL     1      -6.836   3.557 130.421  0.00  0.00    +0.000 C 
ATOM      4  O   UNL     1      -6.466   2.415 129.602  0.00  0.00    +0.000 OA
ATOM      5  C   UNL     1      -5.540   1.585 130.345  0.00  0.00    +0.000 C 
ATOM      6  C   UNL     1      -4.069   1.835 129.948  0.00  0.00    +0.000 C 
ATOM      7  C   UNL     1      -5.825   1.910 131.803  0.00  0.00    +0.000 C 
BRANCH   7   8
ATOM      8  C   UNL     1      -7.080   1.207 132.321  0.00  0.00    +0.000 C 
ATOM      9  O   UNL     1      -7.467   1.312 133.467  0.00  0.00    +0.000 OA
ENDBRANCH   7   8
BRANCH   7  10
ATOM     10  O   UNL     1      -4.768   1.540 132.682  0.00  0.00    +0.000 OA
ATOM     11  H   UNL     1      -4.008   2.111 132.484  0.00  0.00    +0.000 HD
ENDBRANCH   7  10
BRANCH   2  12
ATOM     12  O   UNL     1      -4.808   4.070 131.622  0.00  0.00    +0.000 OA
BRANCH  12  18
ATOM     13  C   UNL     1      -3.159   4.989 133.209  0.00  0.00    +0.000 C 
ATOM     14  C   UNL     1      -2.117   5.307 132.096  0.00  0.00    +0.000 C 
ATOM     15  C   UNL     1      -2.431   6.555 131.209  0.00  0.00    +0.000 C 
ATOM     16  C   UNL     1      -3.878   6.569 130.823  0.00  0.00    +0.000 C 
ATOM     17  O   UNL     1      -4.608   6.341 132.018  0.00  0.00    +0.000 OA
ATOM     18  C   UNL     1      -4.547   5.069 132.595  0.00  0.00    +0.000 C 
BRANCH  13  20
ATOM     19  C   UNL     1      -3.703   3.638 135.177  0.00  0.00    +0.000 C 
ATOM     20  N   UNL     1      -2.936   3.715 133.937  0.00  0.00    +0.000 NA
ATOM     21  H   UNL     1      -3.221   2.957 133.315  0.00  0.00    +0.000 HD
ENDBRANCH  13  20
BRANCH  15  22
ATOM     22  O   UNL     1      -1.653   6.545 130.008  0.00  0.00    +0.000 OA
ATOM     23  H   UNL     1      -0.808   6.993 130.199  0.00  0.00    +0.000 HD
ENDBRANCH  15  22
BRANCH  14  24
ATOM     24  O   UNL     1      -0.839   5.489 132.711  0.00  0.00    +0.000 OA
ATOM     25  H   UNL     1      -0.571   6.410 132.537  0.00  0.00    +0.000 HD
ENDBRANCH  14  24
BRANCH  16  26
ATOM     26  C   UNL     1      -4.429   7.820 130.085  0.00  0.00    +0.000 C 
BRANCH  26  27
ATOM     27  O   UNL     1      -4.052   7.927 128.727  0.00  0.00    +0.000 OA
ATOM     28  H   UNL     1      -4.843   8.202 128.229  0.00  0.00    +0.000 HD
ENDBRANCH  26  27
ENDBRANCH  16  26
ENDBRANCH  12  18
ENDBRANCH   2  12
ENDBRANCH   1   3
BRANCH   1  29
ATOM     29  C   UNL     1      -8.713   5.085 130.222  0.00  0.00    +0.000 C 
ATOM     30  C   UNL     1      -9.379   5.233 128.842  0.00  0.00    +0.000 C 
ATOM     31  C   UNL     1      -9.774   6.675 128.570  0.00  0.00    +0.000 C 
ATOM     32  C   UNL     1     -10.860   6.961 129.568  0.00  0.00    +0.000 C 
ATOM     33  C   UNL     1     -10.325   6.839 131.005  0.00  0.00    +0.000 C 
ATOM     34  C   UNL     1      -9.813   5.393 131.256  0.00  0.00    +0.000 C 
BRANCH  34  35
ATOM     35  N   UNL     1      -9.315   5.232 132.618  0.00  0.00    +0.000 N 
ATOM     36  C   UNL     1      -9.372   4.126 133.400  0.00  0.00    +0.000 C 
ATOM     37  N   UNL     1      -9.979   3.023 132.923  0.00  0.00    +0.000 N 
ATOM     38  N   UNL     1      -8.867   4.064 134.578  0.00  0.00    +0.000 NA
ATOM     39  H   UNL     1      -9.056   6.099 133.079  0.00  0.00    +0.000 HD
ATOM     40  H   UNL     1      -9.907   2.905 131.917  0.00  0.00    +0.000 HD
ATOM     41  H   UNL     1      -9.627   2.187 133.376  0.00  0.00    +0.000 HD
ATOM     42  H   UNL     1      -8.451   4.967 134.813  0.00  0.00    +0.000 HD
ENDBRANCH  34  35
BRANCH  32  43
ATOM     43  N   UNL     1     -11.463   8.238 129.289  0.00  0.00    +0.000 N 
ATOM     44  C   UNL     1     -12.669   8.405 128.716  0.00  0.00    +0.000 C 
ATOM     45  N   UNL     1     -13.293   7.305 128.249  0.00  0.00    +0.000 N 
ATOM     46  N   UNL     1     -13.263   9.541 128.673  0.00  0.00    +0.000 NA
ATOM     47  H   UNL     1     -10.933   9.062 129.549  0.00  0.00    +0.000 HD
ATOM     48  H   UNL     1     -12.753   6.557 127.847  0.00  0.00    +0.000 HD
ATOM     49  H   UNL     1     -14.114   7.531 127.698  0.00  0.00    +0.000 HD
ATOM     50  H   UNL     1     -12.686  10.236 129.147  0.00  0.00    +0.000 HD
ENDBRANCH  32  43
BRANCH  33  51
ATOM     51  O   UNL     1     -11.361   7.129 131.938  0.00  0.00    +0.000 OA
ATOM     52  H   UNL     1     -12.099   6.516 131.758  0.00  0.00    +0.000 HD
ENDBRANCH  33  51
BRANCH  31  53
ATOM     53  O   UNL     1     -10.219   6.835 127.214  0.00  0.00    +0.000 OA
ATOM     54  H   UNL     1     -10.529   5.977 126.879  0.00  0.00    +0.000 HD
ENDBRANCH  31  53
BRANCH  30  55
ATOM     55  O   UNL     1      -8.605   4.934 127.747  0.00  0.00    +0.000 OA
ATOM     56  H   UNL     1      -8.970   5.390 126.970  0.00  0.00    +0.000 HD
ENDBRANCH  30  55
ENDBRANCH   1  29
TORSDOF 16
ENDMDL
MODEL 2
REMARK VINA RESULT:      -7.2      2.303      3.747
REMARK  Name = Streptomycin
REMARK  18 active torsions:
REMARK  status: ('A' for Active; 'I' for Inactive)
REMARK    1  A    between atoms: C_1  and  N_2
REMARK    2  A    between atoms: N_2  and  C_3
REMARK    3  A    between atoms: C_4  and  O_5
REMARK    4  A    between atoms: C_6  and  O_7
REMARK    5  A    between atoms: C_8  and  C_9
REMARK    6  A    between atoms: C_9  and  O_10
REMARK    7  A    between atoms: C_12  and  O_13
REMARK    8  A    between atoms: O_13  and  C_14
REMARK    9  A    between atoms: C_15  and  O_16
REMARK   10  A    between atoms: O_16  and  C_17
REMARK   11  A    between atoms: C_18  and  O_19
REMARK   12  A    between atoms: C_20  and  O_21
REMARK   13  A    between atoms: C_22  and  N_23
REMARK   14  A    between atoms: C_27  and  O_28
REMARK   15  A    between atoms: C_29  and  N_30
REMARK   16  A    between atoms: C_35  and  C_36
REMARK   17  A    between atoms: C_37  and  O_38
REMARK   18  A    between atoms: C_37  and  C_39
REMARK                            x       y       z     vdW  Elec       q    Type
REMARK                         _______ _______ _______ _____ _____    ______ ____
ROOT
ATOM      1  O   UNL     1      -8.126   3.795 130.918  0.00  0.00    +0.000 OA
ENDROOT
BRANCH   1   3
ATOM      2  C   UNL     1      -5.901   4.720 130.280  0.00  0.00    +0.000 C 
ATOM      3  C   UNL     1      -6.756   3.543 130.749  0.00  0.00    +0.000 C 
ATOM      4  O   UNL     1      -6.106   2.998 131.928  0.00  0.00    +0.000 OA
ATOM      5  C   UNL     1      -4.916   3.775 132.210  0.00  0.00    +0.000 C 
ATOM      6  C   UNL     1      -3.629   3.103 131.683  0.00  0.00    +0.000 C 
ATOM      7  C   UNL     1      -5.185   5.127 131.566  0.00  0.00    +0.000 C 
BRANCH   7   8
ATOM      8  C   UNL     1      -6.116   5.997 132.410  0.00  0.00    +0.000 C 
ATOM      9  O   UNL     1      -6.258   5.843 133.605  0.00  0.00    +0.000 OA
ENDBRANCH   7   8
BRANCH   7  10
ATOM     10  O   UNL     1      -4.006   5.895 131.351  0.00  0.00    +0.000 OA
ATOM     11  H   UNL     1      -3.525   5.939 132.193  0.00  0.00    +0.000 HD
ENDBRANCH   7  10
BRANCH   2  12
ATOM     12  O   UNL     1      -4.912   4.240 129.359  0.00  0.00    +0.000 OA
BRANCH  12  18
ATOM     13  C   UNL     1      -3.373   5.037 127.604  0.00  0.00    +0.000 C 
ATOM     14  C   UNL     1      -2.976   3.597 127.160  0.00  0.00    +0.000 C 
ATOM     15  C   UNL     1      -4.044   2.828 126.318  0.00  0.00    +0.000 C 
ATOM     16  C   UNL     1      -5.407   3.016 126.909  0.00  0.00    +0.000 C 
ATOM     17  O   UNL     1      -5.549   4.408 127.141  0.00  0.00    +0.000 OA
ATOM     18  C   UNL     1      -4.787   4.987 128.160  0.00  0.00    +0.000 C 
BRANCH  13  20
ATOM     19  C   UNL     1      -2.198   7.099 128.205  0.00  0.00    +0.000 C 
ATOM     20  N   UNL     1      -2.423   5.695 128.536  0.00  0.00    +0.000 NA
ATOM     21  H   UNL     1      -2.822   5.628 129.473  0.00  0.00    +0.000 HD
ENDBRANCH  13  20
BRANCH  15  22
ATOM     22  O   UNL     1      -3.765   1.425 126.286  0.00  0.00    +0.000 OA
ATOM     23  H   UNL     1      -3.174   1.224 127.036  0.00  0.00    +0.000 HD
ENDBRANCH  15  22
BRANCH  14  24
ATOM     24  O   UNL     1      -1.763   3.675 126.407  0.00  0.00    +0.000 OA
ATOM     25  H   UNL     1      -1.101   3.141 126.884  0.00  0.00    +0.000 HD
ENDBRANCH  14  24
BRANCH  16  26
ATOM     26  C   UNL     1      -6.630   2.473 126.119  0.00  0.00    +0.000 C 
BRANCH  26  27
ATOM     27  O   UNL     1      -7.545   3.460 125.683  0.00  0.00    +0.000 OA
ATOM     28  H   UNL     1      -8.029   3.771 126.470  0.00  0.00    +0.000 HD
ENDBRANCH  26  27
ENDBRANCH  16  26
ENDBRANCH  12  18
ENDBRANCH   2  12
ENDBRANCH   1   3
BRANCH   1  29
ATOM     29  C   UNL     1      -8.621   5.079 130.504  0.00  0.00    +0.000 C 
ATOM     30  C   UNL     1      -9.244   5.108 129.096  0.00  0.00    +0.000 C 
ATOM     31  C   UNL     1      -9.642   6.518 128.696  0.00  0.00    +0.000 C 
ATOM     32  C   UNL     1     -10.762   6.872 129.633  0.00  0.00    +0.000 C 
ATOM     33  C   UNL     1     -10.272   6.873 131.091  0.00  0.00    +0.000 C 
ATOM     34  C   UNL     1      -9.756   5.458 131.474  0.00  0.00    +0.000 C 
BRANCH  34  35
ATOM     35  N   UNL     1      -9.301   5.413 132.860  0.00  0.00    +0.000 N 
ATOM     36  C   UNL     1      -9.280   4.347 133.696  0.00  0.00    +0.000 C 
ATOM     37  N   UNL     1      -9.757   3.167 133.256  0.00  0.00    +0.000 N 
ATOM     38  N   UNL     1      -8.820   4.392 134.893  0.00  0.00    +0.000 NA
ATOM     39  H   UNL     1      -9.147   6.323 133.284  0.00  0.00    +0.000 HD
ATOM     40  H   UNL     1      -9.632   3.008 132.261  0.00  0.00    +0.000 HD
ATOM     41  H   UNL     1      -9.343   2.393 133.764  0.00  0.00    +0.000 HD
ATOM     42  H   UNL     1      -8.504   5.343 135.095  0.00  0.00    +0.000 HD
ENDBRANCH  34  35
BRANCH  32  43
ATOM     43  N   UNL     1     -11.367   8.115 129.232  0.00  0.00    +0.000 N 
ATOM     44  C   UNL     1     -12.578   8.225 128.656  0.00  0.00    +0.000 C 
ATOM     45  N   UNL     1     -13.207   7.085 128.307  0.00  0.00    +0.000 N 
ATOM     46  N   UNL     1     -13.173   9.351 128.504  0.00  0.00    +0.000 NA
ATOM     47  H   UNL     1     -10.835   8.961 129.403  0.00  0.00    +0.000 HD
ATOM     48  H   UNL     1     -12.670   6.299 127.977  0.00  0.00    +0.000 HD
ATOM     49  H   UNL     1     -14.032   7.255 127.744  0.00  0.00    +0.000 HD
ATOM     50  H   UNL     1     -12.590  10.090 128.901  0.00  0.00    +0.000 HD
ENDBRANCH  32  43
BRANCH  33  51
ATOM     51  O   UNL     1     -11.340   7.226 131.965  0.00  0.00    +0.000 OA
ATOM     52  H   UNL     1     -12.020   6.529 131.894  0.00  0.00    +0.000 HD
ENDBRANCH  33  51
BRANCH  31  53
ATOM     53  O   UNL     1     -10.045   6.563 127.318  0.00  0.00    +0.000 OA
ATOM     54  H   UNL     1      -9.724   7.390 126.921  0.00  0.00    +0.000 HD
ENDBRANCH  31  53
BRANCH  30  55
ATOM     55  O   UNL     1      -8.433   4.729 128.054  0.00  0.00    +0.000 OA
ATOM     56  H   UNL     1      -8.934   4.801 127.223  0.00  0.00    +0.000 HD
ENDBRANCH  30  55
ENDBRANCH   1  29
TORSDOF 16
ENDMDL
MODEL 3
REMARK VINA RESULT:      -7.1      1.660      2.193
REMARK  Name = Streptomycin
REMARK  18 active torsions:
REMARK  status: ('A' for Active; 'I' for Inactive)
REMARK    1  A    between atoms: C_1  and  N_2
REMARK    2  A    between atoms: N_2  and  C_3
REMARK    3  A    between atoms: C_4  and  O_5
REMARK    4  A    between atoms: C_6  and  O_7
REMARK    5  A    between atoms: C_8  and  C_9
REMARK    6  A    between atoms: C_9  and  O_10
REMARK    7  A    between atoms: C_12  and  O_13
REMARK    8  A    between atoms: O_13  and  C_14
REMARK    9  A    between atoms: C_15  and  O_16
REMARK   10  A    between atoms: O_16  and  C_17
REMARK   11  A    between atoms: C_18  and  O_19
REMARK   12  A    between atoms: C_20  and  O_21
REMARK   13  A    between atoms: C_22  and  N_23
REMARK   14  A    between atoms: C_27  and  O_28
REMARK   15  A    between atoms: C_29  and  N_30
REMARK   16  A    between atoms: C_35  and  C_36
REMARK   17  A    between atoms: C_37  and  O_38
REMARK   18  A    between atoms: C_37  and  C_39
REMARK                            x       y       z     vdW  Elec       q    Type
REMARK                         _______ _______ _______ _____ _____    ______ ____
ROOT
ATOM      1  O   UNL     1      -8.675   3.336 130.142  0.00  0.00    +0.000 OA
ENDROOT
BRANCH   1   3
ATOM      2  C   UNL     1      -6.359   3.467 131.053  0.00  0.00    +0.000 C 
ATOM      3  C   UNL     1      -7.313   3.078 129.924  0.00  0.00    +0.000 C 
ATOM      4  O   UNL     1      -7.020   1.696 129.588  0.00  0.00    +0.000 OA
ATOM      5  C   UNL     1      -5.956   1.219 130.447  0.00  0.00    +0.000 C 
ATOM      6  C   UNL     1      -4.574   1.258 129.758  0.00  0.00    +0.000 C 
ATOM      7  C   UNL     1      -6.031   2.112 131.676  0.00  0.00    +0.000 C 
BRANCH   7   8
ATOM      8  C   UNL     1      -7.159   1.704 132.623  0.00  0.00    +0.000 C 
ATOM      9  O   UNL     1      -7.127   1.920 133.816  0.00  0.00    +0.000 OA
ENDBRANCH   7   8
BRANCH   7  10
ATOM     10  O   UNL     1      -4.837   2.108 132.452  0.00  0.00    +0.000 OA
ATOM     11  H   UNL     1      -4.810   2.939 132.953  0.00  0.00    +0.000 HD
ENDBRANCH   7  10
BRANCH   2  12
ATOM     12  O   UNL     1      -5.152   3.993 130.483  0.00  0.00    +0.000 OA
BRANCH  12  18
ATOM     13  C   UNL     1      -3.956   6.141 130.282  0.00  0.00    +0.000 C 
ATOM     14  C   UNL     1      -2.829   5.543 129.388  0.00  0.00    +0.000 C 
ATOM     15  C   UNL     1      -3.221   5.258 127.902  0.00  0.00    +0.000 C 
ATOM     16  C   UNL     1      -4.571   4.613 127.833  0.00  0.00    +0.000 C 
ATOM     17  O   UNL     1      -5.423   5.390 128.659  0.00  0.00    +0.000 OA
ATOM     18  C   UNL     1      -5.225   5.339 130.042  0.00  0.00    +0.000 C 
BRANCH  13  20
ATOM     19  C   UNL     1      -3.313   7.626 132.119  0.00  0.00    +0.000 C 
ATOM     20  N   UNL     1      -3.624   6.255 131.724  0.00  0.00    +0.000 NA
ATOM     21  H   UNL     1      -4.437   5.927 132.249  0.00  0.00    +0.000 HD
ENDBRANCH  13  20
BRANCH  15  22
ATOM     22  O   UNL     1      -2.279   4.380 127.278  0.00  0.00    +0.000 OA
ATOM     23  H   UNL     1      -2.483   4.357 126.324  0.00  0.00    +0.000 HD
ENDBRANCH  15  22
BRANCH  14  24
ATOM     24  O   UNL     1      -1.714   6.437 129.408  0.00  0.00    +0.000 OA
ATOM     25  H   UNL     1      -1.766   6.933 130.246  0.00  0.00    +0.000 HD
ENDBRANCH  14  24
BRANCH  16  26
ATOM     26  C   UNL     1      -5.216   4.409 126.435  0.00  0.00    +0.000 C 
BRANCH  26  27
ATOM     27  O   UNL     1      -6.054   5.463 126.003  0.00  0.00    +0.000 OA
ATOM     28  H   UNL     1      -5.534   6.009 125.386  0.00  0.00    +0.000 HD
ENDBRANCH  26  27
ENDBRANCH  16  26
ENDBRANCH  12  18
ENDBRANCH   2  12
ENDBRANCH   1   3
BRANCH   1  29
ATOM     29  C   UNL     1      -9.099   4.709 130.140  0.00  0.00    +0.000 C 
ATOM     30  C   UNL     1      -9.498   5.260 128.758  0.00  0.00    +0.000 C 
ATOM     31  C   UNL     1      -9.828   6.741 128.827  0.00  0.00    +0.000 C 
ATOM     32  C   UNL     1     -11.080   6.807 129.657  0.00  0.00    +0.000 C 
ATOM     33  C   UNL     1     -10.821   6.274 131.076  0.00  0.00    +0.000 C 
ATOM     34  C   UNL     1     -10.371   4.788 131.006  0.00  0.00    +0.000 C 
BRANCH  34  35
ATOM     35  N   UNL     1     -10.135   4.239 132.338  0.00  0.00    +0.000 N 
ATOM     36  C   UNL     1      -9.274   4.687 133.283  0.00  0.00    +0.000 C 
ATOM     37  N   UNL     1      -8.493   5.747 133.001  0.00  0.00    +0.000 N 
ATOM     38  N   UNL     1      -9.164   4.161 134.449  0.00  0.00    +0.000 NA
ATOM     39  H   UNL     1     -10.541   3.321 132.494  0.00  0.00    +0.000 HD
ATOM     40  H   UNL     1      -8.910   6.419 132.365  0.00  0.00    +0.000 HD
ATOM     41  H   UNL     1      -8.212   6.229 133.847  0.00  0.00    +0.000 HD
ATOM     42  H   UNL     1      -9.804   3.367 134.520  0.00  0.00    +0.000 HD
ENDBRANCH  34  35
BRANCH  32  43
ATOM     43  N   UNL     1     -11.615   8.144 129.636  0.00  0.00    +0.000 N 
ATOM     44  C   UNL     1     -12.622   8.552 128.843  0.00  0.00    +0.000 C 
ATOM     45  N   UNL     1     -13.067   7.688 127.908  0.00  0.00    +0.000 N 
ATOM     46  N   UNL     1     -13.210   9.681 128.997  0.00  0.00    +0.000 NA
ATOM     47  H   UNL     1     -11.197   8.815 130.271  0.00  0.00    +0.000 HD
ATOM     48  H   UNL     1     -12.419   7.066 127.454  0.00  0.00    +0.000 HD
ATOM     49  H   UNL     1     -13.711   8.122 127.257  0.00  0.00    +0.000 HD
ATOM     50  H   UNL     1     -12.802  10.162 129.800  0.00  0.00    +0.000 HD
ENDBRANCH  32  43
BRANCH  33  51
ATOM     51  O   UNL     1     -12.011   6.359 131.854  0.00  0.00    +0.000 OA
ATOM     52  H   UNL     1     -11.874   5.826 132.660  0.00  0.00    +0.000 HD
ENDBRANCH  33  51
BRANCH  31  53
ATOM     53  O   UNL     1     -10.013   7.285 127.511  0.00  0.00    +0.000 OA
ATOM     54  H   UNL     1      -9.957   8.254 127.558  0.00  0.00    +0.000 HD
ENDBRANCH  31  53
BRANCH  30  55
ATOM     55  O   UNL     1      -8.535   5.224 127.778  0.00  0.00    +0.000 OA
ATOM     56  H   UNL     1      -7.915   4.501 127.973  0.00  0.00    +0.000 HD
ENDBRANCH  30  55
ENDBRANCH   1  29
TORSDOF 16
ENDMDL
MODEL 4
REMARK VINA RESULT:      -7.0      4.717      8.766
REMARK  Name = Streptomycin
REMARK  18 active torsions:
REMARK  status: ('A' for Active; 'I' for Inactive)
REMARK    1  A    between atoms: C_1  and  N_2
REMARK    2  A    between atoms: N_2  and  C_3
REMARK    3  A    between atoms: C_4  and  O_5
REMARK    4  A    between atoms: C_6  and  O_7
REMARK    5  A    between atoms: C_8  and  C_9
REMARK    6  A    between atoms: C_9  and  O_10
REMARK    7  A    between atoms: C_12  and  O_13
REMARK    8  A    between atoms: O_13  and  C_14
REMARK    9  A    between atoms: C_15  and  O_16
REMARK   10  A    between atoms: O_16  and  C_17
REMARK   11  A    between atoms: C_18  and  O_19
REMARK   12  A    between atoms: C_20  and  O_21
REMARK   13  A    between atoms: C_22  and  N_23
REMARK   14  A    between atoms: C_27  and  O_28
REMARK   15  A    between atoms: C_29  and  N_30
REMARK   16  A    between atoms: C_35  and  C_36
REMARK   17  A    between atoms: C_37  and  O_38
REMARK   18  A    between atoms: C_37  and  C_39
REMARK                            x       y       z     vdW  Elec       q    Type
REMARK                         _______ _______ _______ _____ _____    ______ ____
ROOT
ATOM      1  O   UNL     1      -8.253   0.248 129.955  0.00  0.00    +0.000 OA
ENDROOT
BRANCH   1   3
ATOM      2  C   UNL     1      -8.852   2.438 128.927  0.00  0.00    +0.000 C 
ATOM      3  C   UNL     1      -7.806   1.516 129.553  0.00  0.00    +0.000 C 
ATOM      4  O   UNL     1      -7.157   2.276 130.608  0.00  0.00    +0.000 OA
ATOM      5  C   UNL     1      -7.750   3.596 130.668  0.00  0.00    +0.000 C 
ATOM      6  C   UNL     1      -6.904   4.660 129.935  0.00  0.00    +0.000 C 
ATOM      7  C   UNL     1      -9.134   3.419 130.064  0.00  0.00    +0.000 C 
BRANCH   7   8
ATOM      8  C   UNL     1     -10.121   2.786 131.045  0.00  0.00    +0.000 C 
ATOM      9  O   UNL     1      -9.831   2.527 132.195  0.00  0.00    +0.000 OA
ENDBRANCH   7   8
BRANCH   7  10
ATOM     10  O   UNL     1      -9.726   4.642 129.636  0.00  0.00    +0.000 OA
ATOM     11  H   UNL     1      -9.251   4.936 128.842  0.00  0.00    +0.000 HD
ENDBRANCH   7  10
BRANCH   2  12
ATOM     12  O   UNL     1      -8.245   3.171 127.854  0.00  0.00    +0.000 OA
BRANCH  12  18
ATOM     13  C   UNL     1      -8.046   2.404 125.519  0.00  0.00    +0.000 C 
ATOM     14  C   UNL     1      -7.900   3.849 124.953  0.00  0.00    +0.000 C 
ATOM     15  C   UNL     1      -6.512   4.530 125.181  0.00  0.00    +0.000 C 
ATOM     16  C   UNL     1      -6.036   4.286 126.580  0.00  0.00    +0.000 C 
ATOM     17  O   UNL     1      -6.196   2.897 126.816  0.00  0.00    +0.000 OA
ATOM     18  C   UNL     1      -7.495   2.394 126.935  0.00  0.00    +0.000 C 
BRANCH  13  20
ATOM     19  C   UNL     1      -9.449   0.420 125.814  0.00  0.00    +0.000 C 
ATOM     20  N   UNL     1      -9.412   1.831 125.439  0.00  0.00    +0.000 NA
ATOM     21  H   UNL     1     -10.003   2.366 126.078  0.00  0.00    +0.000 HD
ENDBRANCH  13  20
BRANCH  15  22
ATOM     22  O   UNL     1      -6.591   5.945 124.981  0.00  0.00    +0.000 OA
ATOM     23  H   UNL     1      -7.534   6.179 124.896  0.00  0.00    +0.000 HD
ENDBRANCH  15  22
BRANCH  14  24
ATOM     24  O   UNL     1      -8.171   3.814 123.549  0.00  0.00    +0.000 OA
ATOM     25  H   UNL     1      -8.661   2.989 123.378  0.00  0.00    +0.000 HD
ENDBRANCH  14  24
BRANCH  16  26
ATOM     26  C   UNL     1      -4.596   4.734 126.954  0.00  0.00    +0.000 C 
BRANCH  26  27
ATOM     27  O   UNL     1      -4.464   6.102 127.287  0.00  0.00    +0.000 OA
ATOM     28  H   UNL     1      -4.627   6.613 126.473  0.00  0.00    +0.000 HD
ENDBRANCH  26  27
ENDBRANCH  16  26
ENDBRANCH  12  18
ENDBRANCH   2  12
ENDBRANCH   1   3
BRANCH   1  29
ATOM     29  C   UNL     1      -7.356  -0.553 130.742  0.00  0.00    +0.000 C 
ATOM     30  C   UNL     1      -7.727  -0.664 132.233  0.00  0.00    +0.000 C 
ATOM     31  C   UNL     1      -6.673  -1.435 133.009  0.00  0.00    +0.000 C 
ATOM     32  C   UNL     1      -6.762  -2.836 132.472  0.00  0.00    +0.000 C 
ATOM     33  C   UNL     1      -6.418  -2.867 130.973  0.00  0.00    +0.000 C 
ATOM     34  C   UNL     1      -7.426  -1.987 130.183  0.00  0.00    +0.000 C 
BRANCH  34  35
ATOM     35  N   UNL     1      -7.144  -2.008 128.751  0.00  0.00    +0.000 N 
ATOM     36  C   UNL     1      -7.751  -2.752 127.794  0.00  0.00    +0.000 C 
ATOM     37  N   UNL     1      -8.716  -3.617 128.158  0.00  0.00    +0.000 N 
ATOM     38  N   UNL     1      -7.463  -2.672 126.546  0.00  0.00    +0.000 NA
ATOM     39  H   UNL     1      -6.285  -1.539 128.483  0.00  0.00    +0.000 HD
ATOM     40  H   UNL     1      -9.259  -3.326 128.965  0.00  0.00    +0.000 HD
ATOM     41  H   UNL     1      -9.350  -3.802 127.388  0.00  0.00    +0.000 HD
ATOM     42  H   UNL     1      -6.713  -1.990 126.417  0.00  0.00    +0.000 HD
ENDBRANCH  34  35
BRANCH  32  43
ATOM     43  N   UNL     1      -5.948  -3.720 133.265  0.00  0.00    +0.000 N 
ATOM     44  C   UNL     1      -6.419  -4.540 134.222  0.00  0.00    +0.000 C 
ATOM     45  N   UNL     1      -7.720  -4.426 134.554  0.00  0.00    +0.000 N 
ATOM     46  N   UNL     1      -5.704  -5.459 134.759  0.00  0.00    +0.000 NA
ATOM     47  H   UNL     1      -4.952  -3.718 133.077  0.00  0.00    +0.000 HD
ATOM     48  H   UNL     1      -8.162  -3.520 134.542  0.00  0.00    +0.000 HD
ATOM     49  H   UNL     1      -7.957  -4.962 135.381  0.00  0.00    +0.000 HD
ATOM     50  H   UNL     1      -4.778  -5.455 134.327  0.00  0.00    +0.000 HD
ENDBRANCH  32  43
BRANCH  33  51
ATOM     51  O   UNL     1      -6.490  -4.203 130.484  0.00  0.00    +0.000 OA
ATOM     52  H   UNL     1      -6.620  -4.155 129.518  0.00  0.00    +0.000 HD
ENDBRANCH  33  51
BRANCH  31  53
ATOM     53  O   UNL     1      -6.931  -1.371 134.420  0.00  0.00    +0.000 OA
ATOM     54  H   UNL     1      -6.330  -1.981 134.880  0.00  0.00    +0.000 HD
ENDBRANCH  31  53
BRANCH  30  55
ATOM     55  O   UNL     1      -7.804   0.512 132.939  0.00  0.00    +0.000 OA
ATOM     56  H   UNL     1      -7.729   1.257 132.318  0.00  0.00    +0.000 HD
ENDBRANCH  30  55
ENDBRANCH   1  29
TORSDOF 16
ENDMDL
MODEL 5
REMARK VINA RESULT:      -7.0      2.964      4.620
REMARK  Name = Streptomycin
REMARK  18 active torsions:
REMARK  status: ('A' for Active; 'I' for Inactive)
REMARK    1  A    between atoms: C_1  and  N_2
REMARK    2  A    between atoms: N_2  and  C_3
REMARK    3  A    between atoms: C_4  and  O_5
REMARK    4  A    between atoms: C_6  and  O_7
REMARK    5  A    between atoms: C_8  and  C_9
REMARK    6  A    between atoms: C_9  and  O_10
REMARK    7  A    between atoms: C_12  and  O_13
REMARK    8  A    between atoms: O_13  and  C_14
REMARK    9  A    between atoms: C_15  and  O_16
REMARK   10  A    between atoms: O_16  and  C_17
REMARK   11  A    between atoms: C_18  and  O_19
REMARK   12  A    between atoms: C_20  and  O_21
REMARK   13  A    between atoms: C_22  and  N_23
REMARK   14  A    between atoms: C_27  and  O_28
REMARK   15  A    between atoms: C_29  and  N_30
REMARK   16  A    between atoms: C_35  and  C_36
REMARK   17  A    between atoms: C_37  and  O_38
REMARK   18  A    between atoms: C_37  and  C_39
REMARK                            x       y       z     vdW  Elec       q    Type
REMARK                         _______ _______ _______ _____ _____    ______ ____
ROOT
ATOM      1  O   UNL     1      -9.478   4.248 129.387  0.00  0.00    +0.000 OA
ENDROOT
BRANCH   1   3
ATOM      2  C   UNL     1      -7.715   2.557 128.892  0.00  0.00    +0.000 C 
ATOM      3  C   UNL     1      -8.109   3.938 129.411  0.00  0.00    +0.000 C 
ATOM      4  O   UNL     1      -7.274   4.900 128.713  0.00  0.00    +0.000 OA
ATOM      5  C   UNL     1      -6.406   4.191 127.796  0.00  0.00    +0.000 C 
ATOM      6  C   UNL     1      -4.986   3.978 128.367  0.00  0.00    +0.000 C 
ATOM      7  C   UNL     1      -7.134   2.885 127.518  0.00  0.00    +0.000 C 
BRANCH   7   8
ATOM      8  C   UNL     1      -8.275   3.057 126.515  0.00  0.00    +0.000 C 
ATOM      9  O   UNL     1      -8.378   4.029 125.796  0.00  0.00    +0.000 OA
ENDBRANCH   7   8
BRANCH   7  10
ATOM     10  O   UNL     1      -6.290   1.867 126.992  0.00  0.00    +0.000 OA
ATOM     11  H   UNL     1      -6.841   1.278 126.451  0.00  0.00    +0.000 HD
ENDBRANCH   7  10
BRANCH   2  12
ATOM     12  O   UNL     1      -6.654   2.037 129.706  0.00  0.00    +0.000 OA
BRANCH  12  18
ATOM     13  C   UNL     1      -5.754   0.219 131.108  0.00  0.00    +0.000 C 
ATOM     14  C   UNL     1      -5.916   1.026 132.431  0.00  0.00    +0.000 C 
ATOM     15  C   UNL     1      -7.375   1.152 132.976  0.00  0.00    +0.000 C 
ATOM     16  C   UNL     1      -8.322   1.463 131.858  0.00  0.00    +0.000 C 
ATOM     17  O   UNL     1      -8.025   0.544 130.820  0.00  0.00    +0.000 OA
ATOM     18  C   UNL     1      -6.818   0.694 130.132  0.00  0.00    +0.000 C 
BRANCH  13  20
ATOM     19  C   UNL     1      -3.824  -1.094 130.371  0.00  0.00    +0.000 C 
ATOM     20  N   UNL     1      -4.393   0.243 130.517  0.00  0.00    +0.000 NA
ATOM     21  H   UNL     1      -4.470   0.680 129.597  0.00  0.00    +0.000 HD
ENDBRANCH  13  20
BRANCH  15  22
ATOM     22  O   UNL     1      -7.477   2.199 133.946  0.00  0.00    +0.000 OA
ATOM     23  H   UNL     1      -7.606   1.783 134.818  0.00  0.00    +0.000 HD
ENDBRANCH  15  22
BRANCH  14  24
ATOM     24  O   UNL     1      -5.100   0.417 133.435  0.00  0.00    +0.000 OA
ATOM     25  H   UNL     1      -4.250   0.196 133.011  0.00  0.00    +0.000 HD
ENDBRANCH  14  24
BRANCH  16  26
ATOM     26  C   UNL     1      -9.846   1.457 132.165  0.00  0.00    +0.000 C 
BRANCH  26  27
ATOM     27  O   UNL     1     -10.632   2.251 131.299  0.00  0.00    +0.000 OA
ATOM     28  H   UNL     1     -10.136   3.074 131.133  0.00  0.00    +0.000 HD
ENDBRANCH  26  27
ENDBRANCH  16  26
ENDBRANCH  12  18
ENDBRANCH   2  12
ENDBRANCH   1   3
BRANCH   1  29
ATOM     29  C   UNL     1      -9.848   5.630 129.521  0.00  0.00    +0.000 C 
ATOM     30  C   UNL     1     -10.307   6.305 128.214  0.00  0.00    +0.000 C 
ATOM     31  C   UNL     1     -10.576   7.785 128.421  0.00  0.00    +0.000 C 
ATOM     32  C   UNL     1     -11.772   7.826 129.331  0.00  0.00    +0.000 C 
ATOM     33  C   UNL     1     -11.449   7.170 130.684  0.00  0.00    +0.000 C 
ATOM     34  C   UNL     1     -11.062   5.681 130.469  0.00  0.00    +0.000 C 
BRANCH  34  35
ATOM     35  N   UNL     1     -10.768   5.017 131.735  0.00  0.00    +0.000 N 
ATOM     36  C   UNL     1      -9.725   5.241 132.570  0.00  0.00    +0.000 C 
ATOM     37  N   UNL     1      -8.798   6.154 132.223  0.00  0.00    +0.000 N 
ATOM     38  N   UNL     1      -9.570   4.633 133.691  0.00  0.00    +0.000 NA
ATOM     39  H   UNL     1     -11.318   4.182 131.911  0.00  0.00    +0.000 HD
ATOM     40  H   UNL     1      -9.157   6.929 131.674  0.00  0.00    +0.000 HD
ATOM     41  H   UNL     1      -8.326   6.524 133.041  0.00  0.00    +0.000 HD
ATOM     42  H   UNL     1     -10.334   3.968 133.819  0.00  0.00    +0.000 HD
ENDBRANCH  34  35
BRANCH  32  43
ATOM     43  N   UNL     1     -12.256   9.176 129.450  0.00  0.00    +0.000 N 
ATOM     44  C   UNL     1     -13.320   9.668 128.790  0.00  0.00    +0.000 C 
ATOM     45  N   UNL     1     -13.887   8.884 127.852  0.00  0.00    +0.000 N 
ATOM     46  N   UNL     1     -13.847  10.802 129.075  0.00  0.00    +0.000 NA
ATOM     47  H   UNL     1     -11.752   9.790 130.081  0.00  0.00    +0.000 HD
ATOM     48  H   UNL     1     -13.311   8.273 127.296  0.00  0.00    +0.000 HD
ATOM     49  H   UNL     1     -14.576   9.380 127.298  0.00  0.00    +0.000 HD
ATOM     50  H   UNL     1     -13.343  11.215 129.861  0.00  0.00    +0.000 HD
ENDBRANCH  32  43
BRANCH  33  51
ATOM     51  O   UNL     1     -12.587   7.231 131.539  0.00  0.00    +0.000 OA
ATOM     52  H   UNL     1     -12.286   7.574 132.402  0.00  0.00    +0.000 HD
ENDBRANCH  33  51
BRANCH  31  53
ATOM     53  O   UNL     1     -10.818   8.440 127.167  0.00  0.00    +0.000 OA
ATOM     54  H   UNL     1     -11.681   8.155 126.823  0.00  0.00    +0.000 HD
ENDBRANCH  31  53
BRANCH  30  55
ATOM     55  O   UNL     1      -9.407   6.317 127.176  0.00  0.00    +0.000 OA
ATOM     56  H   UNL     1      -8.870   7.126 127.235  0.00  0.00    +0.000 HD
ENDBRANCH  30  55
ENDBRANCH   1  29
TORSDOF 16
ENDMDL
MODEL 6
REMARK VINA RESULT:      -6.9      4.295      7.207
REMARK  Name = Streptomycin
REMARK  18 active torsions:
REMARK  status: ('A' for Active; 'I' for Inactive)
REMARK    1  A    between atoms: C_1  and  N_2
REMARK    2  A    between atoms: N_2  and  C_3
REMARK    3  A    between atoms: C_4  and  O_5
REMARK    4  A    between atoms: C_6  and  O_7
REMARK    5  A    between atoms: C_8  and  C_9
REMARK    6  A    between atoms: C_9  and  O_10
REMARK    7  A    between atoms: C_12  and  O_13
REMARK    8  A    between atoms: O_13  and  C_14
REMARK    9  A    between atoms: C_15  and  O_16
REMARK   10  A    between atoms: O_16  and  C_17
REMARK   11  A    between atoms: C_18  and  O_19
REMARK   12  A    between atoms: C_20  and  O_21
REMARK   13  A    between atoms: C_22  and  N_23
REMARK   14  A    between atoms: C_27  and  O_28
REMARK   15  A    between atoms: C_29  and  N_30
REMARK   16  A    between atoms: C_35  and  C_36
REMARK   17  A    between atoms: C_37  and  O_38
REMARK   18  A    between atoms: C_37  and  C_39
REMARK                            x       y       z     vdW  Elec       q    Type
REMARK                         _______ _______ _______ _____ _____    ______ ____
ROOT
ATOM      1  O   UNL     1      -5.680   3.870 127.582  0.00  0.00    +0.000 OA
ENDROOT
BRANCH   1   3
ATOM      2  C   UNL     1      -6.251   3.828 130.007  0.00  0.00    +0.000 C 
ATOM      3  C   UNL     1      -6.045   4.614 128.714  0.00  0.00    +0.000 C 
ATOM      4  O   UNL     1      -5.133   5.701 129.026  0.00  0.00    +0.000 OA
ATOM      5  C   UNL     1      -4.764   5.617 130.424  0.00  0.00    +0.000 C 
ATOM      6  C   UNL     1      -5.579   6.583 131.312  0.00  0.00    +0.000 C 
ATOM      7  C   UNL     1      -4.979   4.156 130.786  0.00  0.00    +0.000 C 
BRANCH   7   8
ATOM      8  C   UNL     1      -3.840   3.261 130.295  0.00  0.00    +0.000 C 
ATOM      9  O   UNL     1      -3.984   2.077 130.070  0.00  0.00    +0.000 OA
ENDBRANCH   7   8
BRANCH   7  10
ATOM     10  O   UNL     1      -5.087   3.930 132.188  0.00  0.00    +0.000 OA
ATOM     11  H   UNL     1      -4.559   4.609 132.637  0.00  0.00    +0.000 HD
ENDBRANCH   7  10
BRANCH   2  12
ATOM     12  O   UNL     1      -7.361   4.388 130.723  0.00  0.00    +0.000 OA
BRANCH  12  18
ATOM     13  C   UNL     1      -8.829   3.125 132.250  0.00  0.00    +0.000 C 
ATOM     14  C   UNL     1      -9.255   4.393 133.049  0.00  0.00    +0.000 C 
ATOM     15  C   UNL     1     -10.278   5.334 132.334  0.00  0.00    +0.000 C 
ATOM     16  C   UNL     1      -9.898   5.519 130.897  0.00  0.00    +0.000 C 
ATOM     17  O   UNL     1      -9.643   4.221 130.384  0.00  0.00    +0.000 OA
ATOM     18  C   UNL     1      -8.500   3.550 130.829  0.00  0.00    +0.000 C 
BRANCH  13  20
ATOM     19  C   UNL     1      -7.788   0.920 132.477  0.00  0.00    +0.000 C 
ATOM     20  N   UNL     1      -7.740   2.327 132.867  0.00  0.00    +0.000 NA
ATOM     21  H   UNL     1      -6.855   2.733 132.560  0.00  0.00    +0.000 HD
ENDBRANCH  13  20
BRANCH  15  22
ATOM     22  O   UNL     1     -10.313   6.624 132.951  0.00  0.00    +0.000 OA
ATOM     23  H   UNL     1      -9.391   6.914 133.085  0.00  0.00    +0.000 HD
ENDBRANCH  15  22
BRANCH  14  24
ATOM     24  O   UNL     1      -9.808   3.975 134.299  0.00  0.00    +0.000 OA
ATOM     25  H   UNL     1      -9.994   4.785 134.810  0.00  0.00    +0.000 HD
ENDBRANCH  14  24
BRANCH  16  26
ATOM     26  C   UNL     1     -10.885   6.281 129.970  0.00  0.00    +0.000 C 
BRANCH  26  27
ATOM     27  O   UNL     1     -11.886   5.478 129.375  0.00  0.00    +0.000 OA
ATOM     28  H   UNL     1     -12.076   4.749 129.994  0.00  0.00    +0.000 HD
ENDBRANCH  26  27
ENDBRANCH  16  26
ENDBRANCH  12  18
ENDBRANCH   2  12
ENDBRANCH   1   3
BRANCH   1  29
ATOM     29  C   UNL     1      -6.227   2.547 127.453  0.00  0.00    +0.000 C 
ATOM     30  C   UNL     1      -7.635   2.489 126.831  0.00  0.00    +0.000 C 
ATOM     31  C   UNL     1      -8.181   1.071 126.830  0.00  0.00    +0.000 C 
ATOM     32  C   UNL     1      -7.292   0.328 125.872  0.00  0.00    +0.000 C 
ATOM     33  C   UNL     1      -5.839   0.317 126.375  0.00  0.00    +0.000 C 
ATOM     34  C   UNL     1      -5.309   1.773 126.488  0.00  0.00    +0.000 C 
BRANCH  34  35
ATOM     35  N   UNL     1      -3.922   1.803 126.943  0.00  0.00    +0.000 N 
ATOM     36  C   UNL     1      -2.981   2.743 126.684  0.00  0.00    +0.000 C 
ATOM     37  N   UNL     1      -3.301   3.782 125.889  0.00  0.00    +0.000 N 
ATOM     38  N   UNL     1      -1.791   2.707 127.166  0.00  0.00    +0.000 NA
ATOM     39  H   UNL     1      -3.594   0.934 127.353  0.00  0.00    +0.000 HD
ATOM     40  H   UNL     1      -4.273   4.069 125.943  0.00  0.00    +0.000 HD
ATOM     41  H   UNL     1      -2.712   4.584 126.082  0.00  0.00    +0.000 HD
ATOM     42  H   UNL     1      -1.687   1.867 127.737  0.00  0.00    +0.000 HD
ENDBRANCH  34  35
BRANCH  32  43
ATOM     43  N   UNL     1      -7.822  -0.988 125.626  0.00  0.00    +0.000 N 
ATOM     44  C   UNL     1      -8.470  -1.353 124.504  0.00  0.00    +0.000 C 
ATOM     45  N   UNL     1      -8.761  -0.387 123.611  0.00  0.00    +0.000 N 
ATOM     46  N   UNL     1      -8.742  -2.576 124.230  0.00  0.00    +0.000 NA
ATOM     47  H   UNL     1      -7.691  -1.679 126.355  0.00  0.00    +0.000 HD
ATOM     48  H   UNL     1      -8.997   0.537 123.933  0.00  0.00    +0.000 HD
ATOM     49  H   UNL     1      -9.379  -0.713 122.877  0.00  0.00    +0.000 HD
ATOM     50  H   UNL     1      -8.375  -3.173 124.973  0.00  0.00    +0.000 HD
ENDBRANCH  32  43
BRANCH  33  51
ATOM     51  O   UNL     1      -5.013  -0.405 125.465  0.00  0.00    +0.000 OA
ATOM     52  H   UNL     1      -4.994   0.094 124.627  0.00  0.00    +0.000 HD
ENDBRANCH  33  51
BRANCH  31  53
ATOM     53  O   UNL     1      -9.558   1.054 126.425  0.00  0.00    +0.000 OA
ATOM     54  H   UNL     1      -9.962   0.218 126.711  0.00  0.00    +0.000 HD
ENDBRANCH  31  53
BRANCH  30  55
ATOM     55  O   UNL     1      -8.627   3.180 127.483  0.00  0.00    +0.000 OA
ATOM     56  H   UNL     1      -8.388   4.122 127.511  0.00  0.00    +0.000 HD
ENDBRANCH  30  55
ENDBRANCH   1  29
TORSDOF 16
ENDMDL
MODEL 7
REMARK VINA RESULT:      -6.8      5.269      7.981
REMARK  Name = Streptomycin
REMARK  18 active torsions:
REMARK  status: ('A' for Active; 'I' for Inactive)
REMARK    1  A    between atoms: C_1  and  N_2
REMARK    2  A    between atoms: N_2  and  C_3
REMARK    3  A    between atoms: C_4  and  O_5
REMARK    4  A    between atoms: C_6  and  O_7
REMARK    5  A    between atoms: C_8  and  C_9
REMARK    6  A    between atoms: C_9  and  O_10
REMARK    7  A    between atoms: C_12  and  O_13
REMARK    8  A    between atoms: O_13  and  C_14
REMARK    9  A    between atoms: C_15  and  O_16
REMARK   10  A    between atoms: O_16  and  C_17
REMARK   11  A    between atoms: C_18  and  O_19
REMARK   12  A    between atoms: C_20  and  O_21
REMARK   13  A    between atoms: C_22  and  N_23
REMARK   14  A    between atoms: C_27  and  O_28
REMARK   15  A    between atoms: C_29  and  N_30
REMARK   16  A    between atoms: C_35  and  C_36
REMARK   17  A    between atoms: C_37  and  O_38
REMARK   18  A    between atoms: C_37  and  C_39
REMARK                            x       y       z     vdW  Elec       q    Type
REMARK                         _______ _______ _______ _____ _____    ______ ____
ROOT
ATOM      1  O   UNL     1      -7.322   0.853 129.159  0.00  0.00    +0.000 OA
ENDROOT
BRANCH   1   3
ATOM      2  C   UNL     1      -6.607  -0.629 127.287  0.00  0.00    +0.000 C 
ATOM      3  C   UNL     1      -7.674  -0.189 128.289  0.00  0.00    +0.000 C 
ATOM      4  O   UNL     1      -8.134  -1.391 128.962  0.00  0.00    +0.000 OA
ATOM      5  C   UNL     1      -7.407  -2.530 128.440  0.00  0.00    +0.000 C 
ATOM      6  C   UNL     1      -8.208  -3.307 127.372  0.00  0.00    +0.000 C 
ATOM      7  C   UNL     1      -6.115  -1.939 127.898  0.00  0.00    +0.000 C 
BRANCH   7   8
ATOM      8  C   UNL     1      -5.106  -1.633 129.005  0.00  0.00    +0.000 C 
ATOM      9  O   UNL     1      -4.142  -2.334 129.229  0.00  0.00    +0.000 OA
ENDBRANCH   7   8
BRANCH   7  10
ATOM     10  O   UNL     1      -5.447  -2.791 126.973  0.00  0.00    +0.000 OA
ATOM     11  H   UNL     1      -5.019  -2.226 126.310  0.00  0.00    +0.000 HD
ENDBRANCH   7  10
BRANCH   2  12
ATOM     12  O   UNL     1      -7.239  -0.936 126.036  0.00  0.00    +0.000 OA
BRANCH  12  18
ATOM     13  C   UNL     1      -6.508  -1.580 123.771  0.00  0.00    +0.000 C 
ATOM     14  C   UNL     1      -7.964  -1.738 123.239  0.00  0.00    +0.000 C 
ATOM     15  C   UNL     1      -8.732  -0.407 122.957  0.00  0.00    +0.000 C 
ATOM     16  C   UNL     1      -8.507   0.570 124.069  0.00  0.00    +0.000 C 
ATOM     17  O   UNL     1      -7.107   0.589 124.302  0.00  0.00    +0.000 OA
ATOM     18  C   UNL     1      -6.520  -0.541 124.879  0.00  0.00    +0.000 C 
BRANCH  13  20
ATOM     19  C   UNL     1      -4.744  -3.212 123.306  0.00  0.00    +0.000 C 
ATOM     20  N   UNL     1      -5.848  -2.843 124.187  0.00  0.00    +0.000 NA
ATOM     21  H   UNL     1      -5.493  -2.701 125.134  0.00  0.00    +0.000 HD
ENDBRANCH  13  20
BRANCH  15  22
ATOM     22  O   UNL     1     -10.140  -0.635 122.847  0.00  0.00    +0.000 OA
ATOM     23  H   UNL     1     -10.591   0.216 123.000  0.00  0.00    +0.000 HD
ENDBRANCH  15  22
BRANCH  14  24
ATOM     24  O   UNL     1      -7.925  -2.512 122.037  0.00  0.00    +0.000 OA
ATOM     25  H   UNL     1      -6.993  -2.761 121.893  0.00  0.00    +0.000 HD
ENDBRANCH  14  24
BRANCH  16  26
ATOM     26  C   UNL     1      -9.044   2.018 123.895  0.00  0.00    +0.000 C 
BRANCH  26  27
ATOM     27  O   UNL     1      -9.215   2.740 125.098  0.00  0.00    +0.000 OA
ATOM     28  H   UNL     1     -10.121   3.101 125.091  0.00  0.00    +0.000 HD
ENDBRANCH  26  27
ENDBRANCH  16  26
ENDBRANCH  12  18
ENDBRANCH   2  12
ENDBRANCH   1   3
BRANCH   1  29
ATOM     29  C   UNL     1      -8.364   1.752 129.574  0.00  0.00    +0.000 C 
ATOM     30  C   UNL     1      -8.610   1.798 131.094  0.00  0.00    +0.000 C 
ATOM     31  C   UNL     1      -9.794   2.687 131.435  0.00  0.00    +0.000 C 
ATOM     32  C   UNL     1      -9.343   4.071 131.064  0.00  0.00    +0.000 C 
ATOM     33  C   UNL     1      -9.052   4.163 129.556  0.00  0.00    +0.000 C 
ATOM     34  C   UNL     1      -7.917   3.172 129.177  0.00  0.00    +0.000 C 
BRANCH  34  35
ATOM     35  N   UNL     1      -7.598   3.245 127.755  0.00  0.00    +0.000 N 
ATOM     36  C   UNL     1      -6.384   3.112 127.166  0.00  0.00    +0.000 C 
ATOM     37  N   UNL     1      -5.302   2.919 127.943  0.00  0.00    +0.000 N 
ATOM     38  N   UNL     1      -6.205   3.149 125.895  0.00  0.00    +0.000 NA
ATOM     39  H   UNL     1      -8.346   3.606 127.172  0.00  0.00    +0.000 HD
ATOM     40  H   UNL     1      -5.486   2.406 128.800  0.00  0.00    +0.000 HD
ATOM     41  H   UNL     1      -4.565   2.446 127.433  0.00  0.00    +0.000 HD
ATOM     42  H   UNL     1      -7.102   3.311 125.435  0.00  0.00    +0.000 HD
ENDBRANCH  34  35
BRANCH  32  43
ATOM     43  N   UNL     1     -10.302   5.043 131.522  0.00  0.00    +0.000 N 
ATOM     44  C   UNL     1     -10.125   5.848 132.586  0.00  0.00    +0.000 C 
ATOM     45  N   UNL     1      -9.038   5.636 133.353  0.00  0.00    +0.000 N 
ATOM     46  N   UNL     1     -10.900   6.838 132.839  0.00  0.00    +0.000 NA
ATOM     47  H   UNL     1     -11.165   5.117 130.997  0.00  0.00    +0.000 HD
ATOM     48  H   UNL     1      -8.701   4.697 133.494  0.00  0.00    +0.000 HD
ATOM     49  H   UNL     1      -9.060   6.174 134.212  0.00  0.00    +0.000 HD
ATOM     50  H   UNL     1     -11.613   6.898 132.110  0.00  0.00    +0.000 HD
ENDBRANCH  32  43
BRANCH  33  51
ATOM     51  O   UNL     1      -8.642   5.485 129.218  0.00  0.00    +0.000 OA
ATOM     52  H   UNL     1      -8.801   6.050 129.999  0.00  0.00    +0.000 HD
ENDBRANCH  33  51
BRANCH  31  53
ATOM     53  O   UNL     1     -10.131   2.575 132.827  0.00  0.00    +0.000 OA
ATOM     54  H   UNL     1     -11.096   2.495 132.913  0.00  0.00    +0.000 HD
ENDBRANCH  31  53
BRANCH  30  55
ATOM     55  O   UNL     1      -8.954   0.614 131.700  0.00  0.00    +0.000 OA
ATOM     56  H   UNL     1      -8.164   0.237 132.123  0.00  0.00    +0.000 HD
ENDBRANCH  30  55
ENDBRANCH   1  29
TORSDOF 16
ENDMDL
MODEL 8
REMARK VINA RESULT:      -6.8      5.166      7.106
REMARK  Name = Streptomycin
REMARK  18 active torsions:
REMARK  status: ('A' for Active; 'I' for Inactive)
REMARK    1  A    between atoms: C_1  and  N_2
REMARK    2  A    between atoms: N_2  and  C_3
REMARK    3  A    between atoms: C_4  and  O_5
REMARK    4  A    between atoms: C_6  and  O_7
REMARK    5  A    between atoms: C_8  and  C_9
REMARK    6  A    between atoms: C_9  and  O_10
REMARK    7  A    between atoms: C_12  and  O_13
REMARK    8  A    between atoms: O_13  and  C_14
REMARK    9  A    between atoms: C_15  and  O_16
REMARK   10  A    between atoms: O_16  and  C_17
REMARK   11  A    between atoms: C_18  and  O_19
REMARK   12  A    between atoms: C_20  and  O_21
REMARK   13  A    between atoms: C_22  and  N_23
REMARK   14  A    between atoms: C_27  and  O_28
REMARK   15  A    between atoms: C_29  and  N_30
REMARK   16  A    between atoms: C_35  and  C_36
REMARK   17  A    between atoms: C_37  and  O_38
REMARK   18  A    between atoms: C_37  and  C_39
REMARK                            x       y       z     vdW  Elec       q    Type
REMARK                         _______ _______ _______ _____ _____    ______ ____
ROOT
ATOM      1  O   UNL     1      -6.542   1.869 127.018  0.00  0.00    +0.000 OA
ENDROOT
BRANCH   1   3
ATOM      2  C   UNL     1      -7.020   1.920 129.463  0.00  0.00    +0.000 C 
ATOM      3  C   UNL     1      -6.456   2.596 128.215  0.00  0.00    +0.000 C 
ATOM      4  O   UNL     1      -5.110   3.030 128.547  0.00  0.00    +0.000 OA
ATOM      5  C   UNL     1      -4.819   2.650 129.915  0.00  0.00    +0.000 C 
ATOM      6  C   UNL     1      -5.007   3.819 130.908  0.00  0.00    +0.000 C 
ATOM      7  C   UNL     1      -5.751   1.482 130.191  0.00  0.00    +0.000 C 
BRANCH   7   8
ATOM      8  C   UNL     1      -5.244   0.176 129.579  0.00  0.00    +0.000 C 
ATOM      9  O   UNL     1      -5.981  -0.740 129.278  0.00  0.00    +0.000 OA
ENDBRANCH   7   8
BRANCH   7  10
ATOM     10  O   UNL     1      -5.942   1.225 131.578  0.00  0.00    +0.000 OA
ATOM     11  H   UNL     1      -6.524   0.453 131.657  0.00  0.00    +0.000 HD
ENDBRANCH   7  10
BRANCH   2  12
ATOM     12  O   UNL     1      -7.674   2.907 130.274  0.00  0.00    +0.000 OA
BRANCH  12  18
ATOM     13  C   UNL     1      -9.520   2.613 131.882  0.00  0.00    +0.000 C 
ATOM     14  C   UNL     1      -9.257   3.978 132.585  0.00  0.00    +0.000 C 
ATOM     15  C   UNL     1      -9.722   5.247 131.799  0.00  0.00    +0.000 C 
ATOM     16  C   UNL     1      -9.344   5.131 130.355  0.00  0.00    +0.000 C 
ATOM     17  O   UNL     1      -9.763   3.841 129.938  0.00  0.00    +0.000 OA
ATOM     18  C   UNL     1      -9.072   2.732 130.435  0.00  0.00    +0.000 C 
BRANCH  13  20
ATOM     19  C   UNL     1      -9.203   0.185 131.846  0.00  0.00    +0.000 C 
ATOM     20  N   UNL     1      -8.932   1.430 132.559  0.00  0.00    +0.000 NA
ATOM     21  H   UNL     1      -7.923   1.580 132.608  0.00  0.00    +0.000 HD
ENDBRANCH  13  20
BRANCH  15  22
ATOM     22  O   UNL     1      -9.112   6.431 132.322  0.00  0.00    +0.000 OA
ATOM     23  H   UNL     1      -9.546   6.638 133.170  0.00  0.00    +0.000 HD
ENDBRANCH  15  22
BRANCH  14  24
ATOM     24  O   UNL     1      -9.905   3.962 133.860  0.00  0.00    +0.000 OA
ATOM     25  H   UNL     1      -9.268   4.324 134.504  0.00  0.00    +0.000 HD
ENDBRANCH  14  24
BRANCH  16  26
ATOM     26  C   UNL     1      -9.871   6.213 129.370  0.00  0.00    +0.000 C 
BRANCH  26  27
ATOM     27  O   UNL     1      -9.401   7.523 129.617  0.00  0.00    +0.000 OA
ATOM     28  H   UNL     1      -8.511   7.442 130.007  0.00  0.00    +0.000 HD
ENDBRANCH  26  27
ENDBRANCH  16  26
ENDBRANCH  12  18
ENDBRANCH   2  12
ENDBRANCH   1   3
BRANCH   1  29
ATOM     29  C   UNL     1      -7.017   2.563 125.853  0.00  0.00    +0.000 C 
ATOM     30  C   UNL     1      -5.945   3.379 125.105  0.00  0.00    +0.000 C 
ATOM     31  C   UNL     1      -6.551   4.163 123.953  0.00  0.00    +0.000 C 
ATOM     32  C   UNL     1      -7.001   3.111 122.979  0.00  0.00    +0.000 C 
ATOM     33  C   UNL     1      -8.079   2.212 123.608  0.00  0.00    +0.000 C 
ATOM     34  C   UNL     1      -7.500   1.491 124.856  0.00  0.00    +0.000 C 
BRANCH  34  35
ATOM     35  N   UNL     1      -8.489   0.610 125.471  0.00  0.00    +0.000 N 
ATOM     36  C   UNL     1      -8.672  -0.715 125.253  0.00  0.00    +0.000 C 
ATOM     37  N   UNL     1      -7.896  -1.339 124.347  0.00  0.00    +0.000 N 
ATOM     38  N   UNL     1      -9.546  -1.421 125.875  0.00  0.00    +0.000 NA
ATOM     39  H   UNL     1      -9.222   1.090 125.984  0.00  0.00    +0.000 HD
ATOM     40  H   UNL     1      -6.959  -0.957 124.262  0.00  0.00    +0.000 HD
ATOM     41  H   UNL     1      -7.828  -2.331 124.546  0.00  0.00    +0.000 HD
ATOM     42  H   UNL     1     -10.065  -0.821 126.519  0.00  0.00    +0.000 HD
ENDBRANCH  34  35
BRANCH  32  43
ATOM     43  N   UNL     1      -7.418   3.727 121.746  0.00  0.00    +0.000 N 
ATOM     44  C   UNL     1      -6.657   3.814 120.639  0.00  0.00    +0.000 C 
ATOM     45  N   UNL     1      -5.372   3.420 120.736  0.00  0.00    +0.000 N 
ATOM     46  N   UNL     1      -7.128   4.177 119.503  0.00  0.00    +0.000 NA
ATOM     47  H   UNL     1      -8.354   4.117 121.721  0.00  0.00    +0.000 HD
ATOM     48  H   UNL     1      -4.864   3.577 121.591  0.00  0.00    +0.000 HD
ATOM     49  H   UNL     1      -4.831   3.661 119.913  0.00  0.00    +0.000 HD
ATOM     50  H   UNL     1      -8.129   4.353 119.599  0.00  0.00    +0.000 HD
ENDBRANCH  32  43
BRANCH  33  51
ATOM     51  O   UNL     1      -8.507   1.232 122.666  0.00  0.00    +0.000 OA
ATOM     52  H   UNL     1      -7.830   0.529 122.647  0.00  0.00    +0.000 HD
ENDBRANCH  33  51
BRANCH  31  53
ATOM     53  O   UNL     1      -5.585   5.061 123.384  0.00  0.00    +0.000 OA
ATOM     54  H   UNL     1      -5.920   5.387 122.532  0.00  0.00    +0.000 HD
ENDBRANCH  31  53
BRANCH  30  55
ATOM     55  O   UNL     1      -5.307   4.362 125.821  0.00  0.00    +0.000 OA
ATOM     56  H   UNL     1      -5.404   5.207 125.349  0.00  0.00    +0.000 HD
ENDBRANCH  30  55
ENDBRANCH   1  29
TORSDOF 16
ENDMDL
MODEL 9
REMARK VINA RESULT:      -6.8      4.905      7.174
REMARK  Name = Streptomycin
REMARK  18 active torsions:
REMARK  status: ('A' for Active; 'I' for Inactive)
REMARK    1  A    between atoms: C_1  and  N_2
REMARK    2  A    between atoms: N_2  and  C_3
REMARK    3  A    between atoms: C_4  and  O_5
REMARK    4  A    between atoms: C_6  and  O_7
REMARK    5  A    between atoms: C_8  and  C_9
REMARK    6  A    between atoms: C_9  and  O_10
REMARK    7  A    between atoms: C_12  and  O_13
REMARK    8  A    between atoms: O_13  and  C_14
REMARK    9  A    between atoms: C_15  and  O_16
REMARK   10  A    between atoms: O_16  and  C_17
REMARK   11  A    between atoms: C_18  and  O_19
REMARK   12  A    between atoms: C_20  and  O_21
REMARK   13  A    between atoms: C_22  and  N_23
REMARK   14  A    between atoms: C_27  and  O_28
REMARK   15  A    between atoms: C_29  and  N_30
REMARK   16  A    between atoms: C_35  and  C_36
REMARK   17  A    between atoms: C_37  and  O_38
REMARK   18  A    between atoms: C_37  and  C_39
REMARK                            x       y       z     vdW  Elec       q    Type
REMARK                         _______ _______ _______ _____ _____    ______ ____
ROOT
ATOM      1  O   UNL     1      -4.869  -0.894 129.508  0.00  0.00    +0.000 OA
ENDROOT
BRANCH   1   3
ATOM      2  C   UNL     1      -5.516   1.449 130.058  0.00  0.00    +0.000 C 
ATOM      3  C   UNL     1      -4.450   0.356 129.988  0.00  0.00    +0.000 C 
ATOM      4  O   UNL     1      -3.817   0.306 131.295  0.00  0.00    +0.000 OA
ATOM      5  C   UNL     1      -4.438   1.291 132.156  0.00  0.00    +0.000 C 
ATOM      6  C   UNL     1      -3.616   2.595 132.254  0.00  0.00    +0.000 C 
ATOM      7  C   UNL     1      -5.818   1.505 131.555  0.00  0.00    +0.000 C 
BRANCH   7   8
ATOM      8  C   UNL     1      -6.790   0.381 131.916  0.00  0.00    +0.000 C 
ATOM      9  O   UNL     1      -6.540  -0.462 132.752  0.00  0.00    +0.000 OA
ENDBRANCH   7   8
BRANCH   7  10
ATOM     10  O   UNL     1      -6.436   2.717 131.972  0.00  0.00    +0.000 OA
ATOM     11  H   UNL     1      -6.091   2.935 132.853  0.00  0.00    +0.000 HD
ENDBRANCH   7  10
BRANCH   2  12
ATOM     12  O   UNL     1      -4.926   2.701 129.682  0.00  0.00    +0.000 OA
BRANCH  12  18
ATOM     13  C   UNL     1      -5.753   4.839 128.774  0.00  0.00    +0.000 C 
ATOM     14  C   UNL     1      -4.359   5.530 128.861  0.00  0.00    +0.000 C 
ATOM     15  C   UNL     1      -3.322   5.104 127.772  0.00  0.00    +0.000 C 
ATOM     16  C   UNL     1      -3.345   3.619 127.583  0.00  0.00    +0.000 C 
ATOM     17  O   UNL     1      -4.711   3.258 127.447  0.00  0.00    +0.000 OA
ATOM     18  C   UNL     1      -5.531   3.349 128.575  0.00  0.00    +0.000 C 
BRANCH  13  20
ATOM     19  C   UNL     1      -8.053   4.755 129.609  0.00  0.00    +0.000 C 
ATOM     20  N   UNL     1      -6.672   5.128 129.903  0.00  0.00    +0.000 NA
ATOM     21  H   UNL     1      -6.341   4.594 130.707  0.00  0.00    +0.000 HD
ENDBRANCH  13  20
BRANCH  15  22
ATOM     22  O   UNL     1      -1.994   5.481 128.148  0.00  0.00    +0.000 OA
ATOM     23  H   UNL     1      -1.466   5.560 127.331  0.00  0.00    +0.000 HD
ENDBRANCH  15  22
BRANCH  14  24
ATOM     24  O   UNL     1      -4.550   6.945 128.788  0.00  0.00    +0.000 OA
ATOM     25  H   UNL     1      -5.152   7.110 128.039  0.00  0.00    +0.000 HD
ENDBRANCH  14  24
BRANCH  16  26
ATOM     26  C   UNL     1      -2.510   3.014 126.421  0.00  0.00    +0.000 C 
BRANCH  26  27
ATOM     27  O   UNL     1      -1.110   3.030 126.620  0.00  0.00    +0.000 OA
ATOM     28  H   UNL     1      -0.857   3.953 126.804  0.00  0.00    +0.000 HD
ENDBRANCH  26  27
ENDBRANCH  16  26
ENDBRANCH  12  18
ENDBRANCH   2  12
ENDBRANCH   1   3
BRANCH   1  29
ATOM     29  C   UNL     1      -6.017  -0.923 128.646  0.00  0.00    +0.000 C 
ATOM     30  C   UNL     1      -5.696  -0.859 127.140  0.00  0.00    +0.000 C 
ATOM     31  C   UNL     1      -6.964  -0.786 126.307  0.00  0.00    +0.000 C 
ATOM     32  C   UNL     1      -7.627  -2.119 126.515  0.00  0.00    +0.000 C 
ATOM     33  C   UNL     1      -7.998  -2.317 127.995  0.00  0.00    +0.000 C 
ATOM     34  C   UNL     1      -6.714  -2.279 128.869  0.00  0.00    +0.000 C 
BRANCH  34  35
ATOM     35  N   UNL     1      -7.023  -2.485 130.281  0.00  0.00    +0.000 N 
ATOM     36  C   UNL     1      -6.582  -3.476 131.093  0.00  0.00    +0.000 C 
ATOM     37  N   UNL     1      -5.785  -4.432 130.580  0.00  0.00    +0.000 N 
ATOM     38  N   UNL     1      -6.876  -3.553 132.341  0.00  0.00    +0.000 NA
ATOM     39  H   UNL     1      -7.787  -1.917 130.633  0.00  0.00    +0.000 HD
ATOM     40  H   UNL     1      -5.182  -4.116 129.826  0.00  0.00    +0.000 HD
ATOM     41  H   UNL     1      -5.212  -4.855 131.301  0.00  0.00    +0.000 HD
ATOM     42  H   UNL     1      -7.490  -2.775 132.589  0.00  0.00    +0.000 HD
ENDBRANCH  34  35
BRANCH  32  43
ATOM     43  N   UNL     1      -8.747  -2.258 125.621  0.00  0.00    +0.000 N 
ATOM     44  C   UNL     1      -8.757  -3.038 124.524  0.00  0.00    +0.000 C 
ATOM     45  N   UNL     1      -7.596  -3.620 124.164  0.00  0.00    +0.000 N 
ATOM     46  N   UNL     1      -9.829  -3.300 123.872  0.00  0.00    +0.000 NA
ATOM     47  H   UNL     1      -9.582  -1.728 125.845  0.00  0.00    +0.000 HD
ATOM     48  H   UNL     1      -6.726  -3.132 124.308  0.00  0.00    +0.000 HD
ATOM     49  H   UNL     1      -7.649  -4.058 123.252  0.00  0.00    +0.000 HD
ATOM     50  H   UNL     1     -10.619  -2.847 124.335  0.00  0.00    +0.000 HD
ENDBRANCH  32  43
BRANCH  33  51
ATOM     51  O   UNL     1      -8.640  -3.576 128.172  0.00  0.00    +0.000 OA
ATOM     52  H   UNL     1      -9.402  -3.605 127.563  0.00  0.00    +0.000 HD
ENDBRANCH  33  51
BRANCH  31  53
ATOM     53  O   UNL     1      -6.654  -0.537 124.927  0.00  0.00    +0.000 OA
ATOM     54  H   UNL     1      -7.461  -0.248 124.468  0.00  0.00    +0.000 HD
ENDBRANCH  31  53
BRANCH  30  55
ATOM     55  O   UNL     1      -5.000   0.242 126.704  0.00  0.00    +0.000 OA
ATOM     56  H   UNL     1      -4.799   0.810 127.468  0.00  0.00    +0.000 HD
ENDBRANCH  30  55
ENDBRANCH   1  29
TORSDOF 16
ENDMDL
