MODEL 1
REMARK VINA RESULT:      -4.9      0.000      0.000
REMARK  Name = Succinylcholine
REMARK  17 active torsions:
REMARK  status: ('A' for Active; 'I' for Inactive)
REMARK    1  A    between atoms: C_1  and  N_2
REMARK    2  A    between atoms: N_2  and  C_3
REMARK    3  A    between atoms: N_2  and  C_4
REMARK    4  A    between atoms: N_2  and  C_5
REMARK    5  A    between atoms: C_5  and  C_6
REMARK    6  A    between atoms: C_6  and  O_7
REMARK    7  A    between atoms: O_7  and  C_8
REMARK    8  A    between atoms: C_8  and  C_10
REMARK    9  A    between atoms: C_10  and  C_11
REMARK   10  A    between atoms: C_11  and  C_12
REMARK   11  A    between atoms: C_12  and  O_14
REMARK   12  A    between atoms: O_14  and  C_15
REMARK   13  A    between atoms: C_15  and  C_16
REMARK   14  A    between atoms: C_16  and  N_17
REMARK   15  A    between atoms: N_17  and  C_18
REMARK   16  A    between atoms: N_17  and  C_19
REMARK   17  A    between atoms: N_17  and  C_20
REMARK                            x       y       z     vdW  Elec       q    Type
REMARK                         _______ _______ _______ _____ _____    ______ ____
ROOT
ATOM      1  C   UNL     1      -8.169   6.801 131.034  0.00  0.00    +0.000 C 
ENDROOT
BRANCH   1   2
ATOM      2  C   UNL     1      -9.365   6.122 131.643  0.00  0.00    +0.000 C 
ATOM      3  O   UNL     1      -9.855   6.412 132.727  0.00  0.00    +0.000 OA
BRANCH   2   4
ATOM      4  O   UNL     1      -9.843   5.133 130.827  0.00  0.00    +0.000 OA
BRANCH   4   5
ATOM      5  C   UNL     1     -11.188   5.391 130.403  0.00  0.00    +0.000 C 
BRANCH   5   6
ATOM      6  C   UNL     1     -11.232   6.389 129.235  0.00  0.00    +0.000 C 
BRANCH   6   8
ATOM      7  C   UNL     1     -12.935   7.418 130.767  0.00  0.00    +0.000 C 
ATOM      8  N   UNL     1     -12.430   7.367 129.322  0.00  0.00    +0.000 N 
ATOM      9  C   UNL     1     -13.581   6.895 128.438  0.00  0.00    +0.000 C 
ATOM     10  C   UNL     1     -12.012   8.778 128.920  0.00  0.00    +0.000 C 
ENDBRANCH   6   8
ENDBRANCH   5   6
ENDBRANCH   4   5
ENDBRANCH   2   4
ENDBRANCH   1   2
BRANCH   1  11
ATOM     11  C   UNL     1      -6.897   6.474 131.822  0.00  0.00    +0.000 C 
BRANCH  11  12
ATOM     12  C   UNL     1      -5.679   6.615 130.952  0.00  0.00    +0.000 C 
ATOM     13  O   UNL     1      -5.473   7.545 130.182  0.00  0.00    +0.000 OA
BRANCH  12  14
ATOM     14  O   UNL     1      -4.820   5.563 131.130  0.00  0.00    +0.000 OA
BRANCH  14  15
ATOM     15  C   UNL     1      -4.847   4.658 130.018  0.00  0.00    +0.000 C 
BRANCH  15  16
ATOM     16  C   UNL     1      -3.430   4.354 129.503  0.00  0.00    +0.000 C 
BRANCH  16  17
ATOM     17  N   UNL     1      -3.172   4.914 128.081  0.00  0.00    +0.000 N 
ATOM     18  C   UNL     1      -2.287   3.966 127.276  0.00  0.00    +0.000 C 
ATOM     19  C   UNL     1      -4.487   5.149 127.343  0.00  0.00    +0.000 C 
ATOM     20  C   UNL     1      -2.446   6.258 128.194  0.00  0.00    +0.000 C 
ENDBRANCH  16  17
ENDBRANCH  15  16
ENDBRANCH  14  15
ENDBRANCH  12  14
ENDBRANCH  11  12
ENDBRANCH   1  11
TORSDOF 11
ENDMDL
MODEL 2
REMARK VINA RESULT:      -4.8      8.438     10.504
REMARK  Name = Succinylcholine
REMARK  17 active torsions:
REMARK  status: ('A' for Active; 'I' for Inactive)
REMARK    1  A    between atoms: C_1  and  N_2
REMARK    2  A    between atoms: N_2  and  C_3
REMARK    3  A    between atoms: N_2  and  C_4
REMARK    4  A    between atoms: N_2  and  C_5
REMARK    5  A    between atoms: C_5  and  C_6
REMARK    6  A    between atoms: C_6  and  O_7
REMARK    7  A    between atoms: O_7  and  C_8
REMARK    8  A    between atoms: C_8  and  C_10
REMARK    9  A    between atoms: C_10  and  C_11
REMARK   10  A    between atoms: C_11  and  C_12
REMARK   11  A    between atoms: C_12  and  O_14
REMARK   12  A    between atoms: O_14  and  C_15
REMARK   13  A    between atoms: C_15  and  C_16
REMARK   14  A    between atoms: C_16  and  N_17
REMARK   15  A    between atoms: N_17  and  C_18
REMARK   16  A    between atoms: N_17  and  C_19
REMARK   17  A    between atoms: N_17  and  C_20
REMARK                            x       y       z     vdW  Elec       q    Type
REMARK                         _______ _______ _______ _____ _____    ______ ____
ROOT
ATOM      1  C   UNL     1      -9.449  -3.292 124.209  0.00  0.00    +0.000 C 
ENDROOT
BRANCH   1   2
ATOM      2  C   UNL     1      -8.249  -3.615 125.055  0.00  0.00    +0.000 C 
ATOM      3  O   UNL     1      -7.092  -3.612 124.656  0.00  0.00    +0.000 OA
BRANCH   2   4
ATOM      4  O   UNL     1      -8.615  -3.914 126.340  0.00  0.00    +0.000 OA
BRANCH   4   5
ATOM      5  C   UNL     1      -8.233  -2.882 127.260  0.00  0.00    +0.000 C 
BRANCH   5   6
ATOM      6  C   UNL     1      -8.157  -3.409 128.701  0.00  0.00    +0.000 C 
BRANCH   6   8
ATOM      7  C   UNL     1      -5.863  -2.416 128.451  0.00  0.00    +0.000 C 
ATOM      8  N   UNL     1      -6.905  -2.904 129.463  0.00  0.00    +0.000 N 
ATOM      9  C   UNL     1      -6.276  -4.029 130.279  0.00  0.00    +0.000 C 
ATOM     10  C   UNL     1      -7.258  -1.734 130.375  0.00  0.00    +0.000 C 
ENDBRANCH   6   8
ENDBRANCH   5   6
ENDBRANCH   4   5
ENDBRANCH   2   4
ENDBRANCH   1   2
BRANCH   1  11
ATOM     11  C   UNL     1      -9.024  -2.703 122.861  0.00  0.00    +0.000 C 
BRANCH  11  12
ATOM     12  C   UNL     1      -9.157  -1.206 122.865  0.00  0.00    +0.000 C 
ATOM     13  O   UNL     1     -10.170  -0.594 122.550  0.00  0.00    +0.000 OA
BRANCH  12  14
ATOM     14  O   UNL     1      -7.993  -0.607 123.268  0.00  0.00    +0.000 OA
BRANCH  14  15
ATOM     15  C   UNL     1      -8.237   0.475 124.178  0.00  0.00    +0.000 C 
BRANCH  15  16
ATOM     16  C   UNL     1      -7.084   1.492 124.168  0.00  0.00    +0.000 C 
BRANCH  16  17
ATOM     17  N   UNL     1      -7.514   2.887 123.647  0.00  0.00    +0.000 N 
ATOM     18  C   UNL     1      -6.344   3.601 122.976  0.00  0.00    +0.000 C 
ATOM     19  C   UNL     1      -8.679   2.765 122.669  0.00  0.00    +0.000 C 
ATOM     20  C   UNL     1      -7.977   3.744 124.830  0.00  0.00    +0.000 C 
ENDBRANCH  16  17
ENDBRANCH  15  16
ENDBRANCH  14  15
ENDBRANCH  12  14
ENDBRANCH  11  12
ENDBRANCH   1  11
TORSDOF 11
ENDMDL
MODEL 3
REMARK VINA RESULT:      -4.8      8.332     10.471
REMARK  Name = Succinylcholine
REMARK  17 active torsions:
REMARK  status: ('A' for Active; 'I' for Inactive)
REMARK    1  A    between atoms: C_1  and  N_2
REMARK    2  A    between atoms: N_2  and  C_3
REMARK    3  A    between atoms: N_2  and  C_4
REMARK    4  A    between atoms: N_2  and  C_5
REMARK    5  A    between atoms: C_5  and  C_6
REMARK    6  A    between atoms: C_6  and  O_7
REMARK    7  A    between atoms: O_7  and  C_8
REMARK    8  A    between atoms: C_8  and  C_10
REMARK    9  A    between atoms: C_10  and  C_11
REMARK   10  A    between atoms: C_11  and  C_12
REMARK   11  A    between atoms: C_12  and  O_14
REMARK   12  A    between atoms: O_14  and  C_15
REMARK   13  A    between atoms: C_15  and  C_16
REMARK   14  A    between atoms: C_16  and  N_17
REMARK   15  A    between atoms: N_17  and  C_18
REMARK   16  A    between atoms: N_17  and  C_19
REMARK   17  A    between atoms: N_17  and  C_20
REMARK                            x       y       z     vdW  Elec       q    Type
REMARK                         _______ _______ _______ _____ _____    ______ ____
ROOT
ATOM      1  C   UNL     1      -8.774  -3.642 124.408  0.00  0.00    +0.000 C 
ENDROOT
BRANCH   1   2
ATOM      2  C   UNL     1      -9.195  -2.923 125.660  0.00  0.00    +0.000 C 
ATOM      3  O   UNL     1      -9.800  -1.859 125.684  0.00  0.00    +0.000 OA
BRANCH   2   4
ATOM      4  O   UNL     1      -8.815  -3.614 126.780  0.00  0.00    +0.000 OA
BRANCH   4   5
ATOM      5  C   UNL     1      -8.330  -2.740 127.809  0.00  0.00    +0.000 C 
BRANCH   5   6
ATOM      6  C   UNL     1      -6.827  -2.463 127.654  0.00  0.00    +0.000 C 
BRANCH   6   8
ATOM      7  C   UNL     1      -6.612  -3.716 129.820  0.00  0.00    +0.000 C 
ATOM      8  N   UNL     1      -6.055  -2.551 128.995  0.00  0.00    +0.000 N 
ATOM      9  C   UNL     1      -6.232  -1.273 129.808  0.00  0.00    +0.000 C 
ATOM     10  C   UNL     1      -4.572  -2.814 128.754  0.00  0.00    +0.000 C 
ENDBRANCH   6   8
ENDBRANCH   5   6
ENDBRANCH   4   5
ENDBRANCH   2   4
ENDBRANCH   1   2
BRANCH   1  11
ATOM     11  C   UNL     1      -8.291  -2.651 123.346  0.00  0.00    +0.000 C 
BRANCH  11  12
ATOM     12  C   UNL     1      -6.849  -2.289 123.567  0.00  0.00    +0.000 C 
ATOM     13  O   UNL     1      -5.996  -3.053 124.000  0.00  0.00    +0.000 OA
BRANCH  12  14
ATOM     14  O   UNL     1      -6.607  -0.986 123.220  0.00  0.00    +0.000 OA
BRANCH  14  15
ATOM     15  C   UNL     1      -7.786  -0.177 123.331  0.00  0.00    +0.000 C 
BRANCH  15  16
ATOM     16  C   UNL     1      -7.496   1.145 124.061  0.00  0.00    +0.000 C 
BRANCH  16  17
ATOM     17  N   UNL     1      -8.644   2.177 123.920  0.00  0.00    +0.000 N 
ATOM     18  C   UNL     1      -8.705   2.732 122.500  0.00  0.00    +0.000 C 
ATOM     19  C   UNL     1      -9.985   1.551 124.291  0.00  0.00    +0.000 C 
ATOM     20  C   UNL     1      -8.388   3.348 124.875  0.00  0.00    +0.000 C 
ENDBRANCH  16  17
ENDBRANCH  15  16
ENDBRANCH  14  15
ENDBRANCH  12  14
ENDBRANCH  11  12
ENDBRANCH   1  11
TORSDOF 11
ENDMDL
MODEL 4
REMARK VINA RESULT:      -4.8      8.489     10.659
REMARK  Name = Succinylcholine
REMARK  17 active torsions:
REMARK  status: ('A' for Active; 'I' for Inactive)
REMARK    1  A    between atoms: C_1  and  N_2
REMARK    2  A    between atoms: N_2  and  C_3
REMARK    3  A    between atoms: N_2  and  C_4
REMARK    4  A    between atoms: N_2  and  C_5
REMARK    5  A    between atoms: C_5  and  C_6
REMARK    6  A    between atoms: C_6  and  O_7
REMARK    7  A    between atoms: O_7  and  C_8
REMARK    8  A    between atoms: C_8  and  C_10
REMARK    9  A    between atoms: C_10  and  C_11
REMARK   10  A    between atoms: C_11  and  C_12
REMARK   11  A    between atoms: C_12  and  O_14
REMARK   12  A    between atoms: O_14  and  C_15
REMARK   13  A    between atoms: C_15  and  C_16
REMARK   14  A    between atoms: C_16  and  N_17
REMARK   15  A    between atoms: N_17  and  C_18
REMARK   16  A    between atoms: N_17  and  C_19
REMARK   17  A    between atoms: N_17  and  C_20
REMARK                            x       y       z     vdW  Elec       q    Type
REMARK                         _______ _______ _______ _____ _____    ______ ____
ROOT
ATOM      1  C   UNL     1      -8.124  -3.815 124.548  0.00  0.00    +0.000 C 
ENDROOT
BRANCH   1   2
ATOM      2  C   UNL     1      -7.669  -2.880 125.634  0.00  0.00    +0.000 C 
ATOM      3  O   UNL     1      -6.636  -2.223 125.603  0.00  0.00    +0.000 OA
BRANCH   2   4
ATOM      4  O   UNL     1      -8.562  -2.854 126.671  0.00  0.00    +0.000 OA
BRANCH   4   5
ATOM      5  C   UNL     1      -7.989  -2.287 127.858  0.00  0.00    +0.000 C 
BRANCH   5   6
ATOM      6  C   UNL     1      -7.786  -3.349 128.950  0.00  0.00    +0.000 C 
BRANCH   6   8
ATOM      7  C   UNL     1      -6.002  -4.443 130.339  0.00  0.00    +0.000 C 
ATOM      8  N   UNL     1      -6.517  -3.102 129.804  0.00  0.00    +0.000 N 
ATOM      9  C   UNL     1      -6.831  -2.209 131.000  0.00  0.00    +0.000 C 
ATOM     10  C   UNL     1      -5.409  -2.476 128.963  0.00  0.00    +0.000 C 
ENDBRANCH   6   8
ENDBRANCH   5   6
ENDBRANCH   4   5
ENDBRANCH   2   4
ENDBRANCH   1   2
BRANCH   1  11
ATOM     11  C   UNL     1      -9.344  -3.249 123.816  0.00  0.00    +0.000 C 
BRANCH  11  12
ATOM     12  C   UNL     1      -8.948  -2.111 122.916  0.00  0.00    +0.000 C 
ATOM     13  O   UNL     1      -7.883  -2.032 122.317  0.00  0.00    +0.000 OA
BRANCH  12  14
ATOM     14  O   UNL     1      -9.937  -1.166 122.851  0.00  0.00    +0.000 OA
BRANCH  14  15
ATOM     15  C   UNL     1      -9.440   0.147 123.146  0.00  0.00    +0.000 C 
BRANCH  15  16
ATOM     16  C   UNL     1      -9.297   0.369 124.662  0.00  0.00    +0.000 C 
BRANCH  16  17
ATOM     17  N   UNL     1      -8.147   1.343 125.023  0.00  0.00    +0.000 N 
ATOM     18  C   UNL     1      -7.806   1.254 126.508  0.00  0.00    +0.000 C 
ATOM     19  C   UNL     1      -6.905   1.051 124.186  0.00  0.00    +0.000 C 
ATOM     20  C   UNL     1      -8.592   2.778 124.724  0.00  0.00    +0.000 C 
ENDBRANCH  16  17
ENDBRANCH  15  16
ENDBRANCH  14  15
ENDBRANCH  12  14
ENDBRANCH  11  12
ENDBRANCH   1  11
TORSDOF 11
ENDMDL
MODEL 5
REMARK VINA RESULT:      -4.8      3.817      4.738
REMARK  Name = Succinylcholine
REMARK  17 active torsions:
REMARK  status: ('A' for Active; 'I' for Inactive)
REMARK    1  A    between atoms: C_1  and  N_2
REMARK    2  A    between atoms: N_2  and  C_3
REMARK    3  A    between atoms: N_2  and  C_4
REMARK    4  A    between atoms: N_2  and  C_5
REMARK    5  A    between atoms: C_5  and  C_6
REMARK    6  A    between atoms: C_6  and  O_7
REMARK    7  A    between atoms: O_7  and  C_8
REMARK    8  A    between atoms: C_8  and  C_10
REMARK    9  A    between atoms: C_10  and  C_11
REMARK   10  A    between atoms: C_11  and  C_12
REMARK   11  A    between atoms: C_12  and  O_14
REMARK   12  A    between atoms: O_14  and  C_15
REMARK   13  A    between atoms: C_15  and  C_16
REMARK   14  A    between atoms: C_16  and  N_17
REMARK   15  A    between atoms: N_17  and  C_18
REMARK   16  A    between atoms: N_17  and  C_19
REMARK   17  A    between atoms: N_17  and  C_20
REMARK                            x       y       z     vdW  Elec       q    Type
REMARK                         _______ _______ _______ _____ _____    ______ ____
ROOT
ATOM      1  C   UNL     1      -9.283   4.750 130.417  0.00  0.00    +0.000 C 
ENDROOT
BRANCH   1   2
ATOM      2  C   UNL     1     -10.781   4.652 130.505  0.00  0.00    +0.000 C 
ATOM      3  O   UNL     1     -11.444   3.712 130.088  0.00  0.00    +0.000 OA
BRANCH   2   4
ATOM      4  O   UNL     1     -11.314   5.755 131.116  0.00  0.00    +0.000 OA
BRANCH   4   5
ATOM      5  C   UNL     1     -11.061   6.954 130.373  0.00  0.00    +0.000 C 
BRANCH   5   6
ATOM      6  C   UNL     1     -12.330   7.809 130.229  0.00  0.00    +0.000 C 
BRANCH   6   8
ATOM      7  C   UNL     1     -11.252   8.408 128.041  0.00  0.00    +0.000 C 
ATOM      8  N   UNL     1     -12.592   8.260 128.770  0.00  0.00    +0.000 N 
ATOM      9  C   UNL     1     -13.296   9.614 128.737  0.00  0.00    +0.000 C 
ATOM     10  C   UNL     1     -13.422   7.224 128.020  0.00  0.00    +0.000 C 
ENDBRANCH   6   8
ENDBRANCH   5   6
ENDBRANCH   4   5
ENDBRANCH   2   4
ENDBRANCH   1   2
BRANCH   1  11
ATOM     11  C   UNL     1      -8.697   3.528 129.704  0.00  0.00    +0.000 C 
BRANCH  11  12
ATOM     12  C   UNL     1      -8.133   3.911 128.364  0.00  0.00    +0.000 C 
ATOM     13  O   UNL     1      -7.454   4.907 128.150  0.00  0.00    +0.000 OA
BRANCH  12  14
ATOM     14  O   UNL     1      -8.478   2.997 127.403  0.00  0.00    +0.000 OA
BRANCH  14  15
ATOM     15  C   UNL     1      -7.585   3.038 126.282  0.00  0.00    +0.000 C 
BRANCH  15  16
ATOM     16  C   UNL     1      -8.300   3.514 125.007  0.00  0.00    +0.000 C 
BRANCH  16  17
ATOM     17  N   UNL     1      -8.519   2.377 123.977  0.00  0.00    +0.000 N 
ATOM     18  C   UNL     1      -9.827   1.641 124.249  0.00  0.00    +0.000 C 
ATOM     19  C   UNL     1      -8.518   2.926 122.553  0.00  0.00    +0.000 C 
ATOM     20  C   UNL     1      -7.373   1.366 124.094  0.00  0.00    +0.000 C 
ENDBRANCH  16  17
ENDBRANCH  15  16
ENDBRANCH  14  15
ENDBRANCH  12  14
ENDBRANCH  11  12
ENDBRANCH   1  11
TORSDOF 11
ENDMDL
MODEL 6
REMARK VINA RESULT:      -4.8      1.416      2.298
REMARK  Name = Succinylcholine
REMARK  17 active torsions:
REMARK  status: ('A' for Active; 'I' for Inactive)
REMARK    1  A    between atoms: C_1  and  N_2
REMARK    2  A    between atoms: N_2  and  C_3
REMARK    3  A    between atoms: N_2  and  C_4
REMARK    4  A    between atoms: N_2  and  C_5
REMARK    5  A    between atoms: C_5  and  C_6
REMARK    6  A    between atoms: C_6  and  O_7
REMARK    7  A    between atoms: O_7  and  C_8
REMARK    8  A    between atoms: C_8  and  C_10
REMARK    9  A    between atoms: C_10  and  C_11
REMARK   10  A    between atoms: C_11  and  C_12
REMARK   11  A    between atoms: C_12  and  O_14
REMARK   12  A    between atoms: O_14  and  C_15
REMARK   13  A    between atoms: C_15  and  C_16
REMARK   14  A    between atoms: C_16  and  N_17
REMARK   15  A    between atoms: N_17  and  C_18
REMARK   16  A    between atoms: N_17  and  C_19
REMARK   17  A    between atoms: N_17  and  C_20
REMARK                            x       y       z     vdW  Elec       q    Type
REMARK                         _______ _______ _______ _____ _____    ______ ____
ROOT
ATOM      1  C   UNL     1      -9.392   6.667 131.065  0.00  0.00    +0.000 C 
ENDROOT
BRANCH   1   2
ATOM      2  C   UNL     1     -10.474   5.622 131.065  0.00  0.00    +0.000 C 
ATOM      3  O   UNL     1     -10.313   4.452 130.742  0.00  0.00    +0.000 OA
BRANCH   2   4
ATOM      4  O   UNL     1     -11.670   6.146 131.475  0.00  0.00    +0.000 OA
BRANCH   4   5
ATOM      5  C   UNL     1     -12.111   7.208 130.618  0.00  0.00    +0.000 C 
BRANCH   5   6
ATOM      6  C   UNL     1     -12.479   6.689 129.219  0.00  0.00    +0.000 C 
BRANCH   6   8
ATOM      7  C   UNL     1     -12.624   7.137 126.752  0.00  0.00    +0.000 C 
ATOM      8  N   UNL     1     -12.324   7.767 128.116  0.00  0.00    +0.000 N 
ATOM      9  C   UNL     1     -10.897   8.306 128.080  0.00  0.00    +0.000 C 
ATOM     10  C   UNL     1     -13.308   8.913 128.332  0.00  0.00    +0.000 C 
ENDBRANCH   6   8
ENDBRANCH   5   6
ENDBRANCH   4   5
ENDBRANCH   2   4
ENDBRANCH   1   2
BRANCH   1  11
ATOM     11  C   UNL     1      -8.235   6.255 131.978  0.00  0.00    +0.000 C 
BRANCH  11  12
ATOM     12  C   UNL     1      -6.917   6.695 131.404  0.00  0.00    +0.000 C 
ATOM     13  O   UNL     1      -6.785   7.529 130.517  0.00  0.00    +0.000 OA
BRANCH  12  14
ATOM     14  O   UNL     1      -5.873   6.040 132.002  0.00  0.00    +0.000 OA
BRANCH  14  15
ATOM     15  C   UNL     1      -4.607   6.469 131.484  0.00  0.00    +0.000 C 
BRANCH  15  16
ATOM     16  C   UNL     1      -4.091   5.519 130.390  0.00  0.00    +0.000 C 
BRANCH  16  17
ATOM     17  N   UNL     1      -3.019   6.171 129.481  0.00  0.00    +0.000 N 
ATOM     18  C   UNL     1      -3.554   7.447 128.837  0.00  0.00    +0.000 C 
ATOM     19  C   UNL     1      -1.751   6.480 130.272  0.00  0.00    +0.000 C 
ATOM     20  C   UNL     1      -2.650   5.194 128.360  0.00  0.00    +0.000 C 
ENDBRANCH  16  17
ENDBRANCH  15  16
ENDBRANCH  14  15
ENDBRANCH  12  14
ENDBRANCH  11  12
ENDBRANCH   1  11
TORSDOF 11
ENDMDL
MODEL 7
REMARK VINA RESULT:      -4.7      1.386      1.934
REMARK  Name = Succinylcholine
REMARK  17 active torsions:
REMARK  status: ('A' for Active; 'I' for Inactive)
REMARK    1  A    between atoms: C_1  and  N_2
REMARK    2  A    between atoms: N_2  and  C_3
REMARK    3  A    between atoms: N_2  and  C_4
REMARK    4  A    between atoms: N_2  and  C_5
REMARK    5  A    between atoms: C_5  and  C_6
REMARK    6  A    between atoms: C_6  and  O_7
REMARK    7  A    between atoms: O_7  and  C_8
REMARK    8  A    between atoms: C_8  and  C_10
REMARK    9  A    between atoms: C_10  and  C_11
REMARK   10  A    between atoms: C_11  and  C_12
REMARK   11  A    between atoms: C_12  and  O_14
REMARK   12  A    between atoms: O_14  and  C_15
REMARK   13  A    between atoms: C_15  and  C_16
REMARK   14  A    between atoms: C_16  and  N_17
REMARK   15  A    between atoms: N_17  and  C_18
REMARK   16  A    between atoms: N_17  and  C_19
REMARK   17  A    between atoms: N_17  and  C_20
REMARK                            x       y       z     vdW  Elec       q    Type
REMARK                         _______ _______ _______ _____ _____    ______ ____
ROOT
ATOM      1  C   UNL     1      -7.406   6.194 131.461  0.00  0.00    +0.000 C 
ENDROOT
BRANCH   1   2
ATOM      2  C   UNL     1      -8.806   6.705 131.255  0.00  0.00    +0.000 C 
ATOM      3  O   UNL     1      -9.721   6.575 132.058  0.00  0.00    +0.000 OA
BRANCH   2   4
ATOM      4  O   UNL     1      -8.929   7.339 130.048  0.00  0.00    +0.000 OA
BRANCH   4   5
ATOM      5  C   UNL     1     -10.065   6.868 129.311  0.00  0.00    +0.000 C 
BRANCH   5   6
ATOM      6  C   UNL     1     -10.776   8.015 128.574  0.00  0.00    +0.000 C 
BRANCH   6   8
ATOM      7  C   UNL     1     -12.754   6.608 129.219  0.00  0.00    +0.000 C 
ATOM      8  N   UNL     1     -12.264   7.706 128.270  0.00  0.00    +0.000 N 
ATOM      9  C   UNL     1     -12.433   7.202 126.840  0.00  0.00    +0.000 C 
ATOM     10  C   UNL     1     -13.132   8.941 128.492  0.00  0.00    +0.000 C 
ENDBRANCH   6   8
ENDBRANCH   5   6
ENDBRANCH   4   5
ENDBRANCH   2   4
ENDBRANCH   1   2
BRANCH   1  11
ATOM     11  C   UNL     1      -6.376   7.212 130.964  0.00  0.00    +0.000 C 
BRANCH  11  12
ATOM     12  C   UNL     1      -5.046   6.552 130.721  0.00  0.00    +0.000 C 
ATOM     13  O   UNL     1      -4.216   6.313 131.589  0.00  0.00    +0.000 OA
BRANCH  12  14
ATOM     14  O   UNL     1      -4.879   6.250 129.395  0.00  0.00    +0.000 OA
BRANCH  14  15
ATOM     15  C   UNL     1      -4.700   4.842 129.187  0.00  0.00    +0.000 C 
BRANCH  15  16
ATOM     16  C   UNL     1      -3.317   4.531 128.592  0.00  0.00    +0.000 C 
BRANCH  16  17
ATOM     17  N   UNL     1      -3.382   3.546 127.397  0.00  0.00    +0.000 N 
ATOM     18  C   UNL     1      -4.160   4.154 126.233  0.00  0.00    +0.000 C 
ATOM     19  C   UNL     1      -1.980   3.156 126.938  0.00  0.00    +0.000 C 
ATOM     20  C   UNL     1      -4.107   2.270 127.836  0.00  0.00    +0.000 C 
ENDBRANCH  16  17
ENDBRANCH  15  16
ENDBRANCH  14  15
ENDBRANCH  12  14
ENDBRANCH  11  12
ENDBRANCH   1  11
TORSDOF 11
ENDMDL
MODEL 8
REMARK VINA RESULT:      -4.6      1.867      7.916
REMARK  Name = Succinylcholine
REMARK  17 active torsions:
REMARK  status: ('A' for Active; 'I' for Inactive)
REMARK    1  A    between atoms: C_1  and  N_2
REMARK    2  A    between atoms: N_2  and  C_3
REMARK    3  A    between atoms: N_2  and  C_4
REMARK    4  A    between atoms: N_2  and  C_5
REMARK    5  A    between atoms: C_5  and  C_6
REMARK    6  A    between atoms: C_6  and  O_7
REMARK    7  A    between atoms: O_7  and  C_8
REMARK    8  A    between atoms: C_8  and  C_10
REMARK    9  A    between atoms: C_10  and  C_11
REMARK   10  A    between atoms: C_11  and  C_12
REMARK   11  A    between atoms: C_12  and  O_14
REMARK   12  A    between atoms: O_14  and  C_15
REMARK   13  A    between atoms: C_15  and  C_16
REMARK   14  A    between atoms: C_16  and  N_17
REMARK   15  A    between atoms: N_17  and  C_18
REMARK   16  A    between atoms: N_17  and  C_19
REMARK   17  A    between atoms: N_17  and  C_20
REMARK                            x       y       z     vdW  Elec       q    Type
REMARK                         _______ _______ _______ _____ _____    ______ ____
ROOT
ATOM      1  C   UNL     1      -8.229   4.481 130.082  0.00  0.00    +0.000 C 
ENDROOT
BRANCH   1   2
ATOM      2  C   UNL     1      -7.560   4.470 128.735  0.00  0.00    +0.000 C 
ATOM      3  O   UNL     1      -8.149   4.511 127.663  0.00  0.00    +0.000 OA
BRANCH   2   4
ATOM      4  O   UNL     1      -6.198   4.409 128.859  0.00  0.00    +0.000 OA
BRANCH   4   5
ATOM      5  C   UNL     1      -5.648   3.278 128.170  0.00  0.00    +0.000 C 
BRANCH   5   6
ATOM      6  C   UNL     1      -4.130   3.169 128.383  0.00  0.00    +0.000 C 
BRANCH   6   8
ATOM      7  C   UNL     1      -2.997   5.309 127.717  0.00  0.00    +0.000 C 
ATOM      8  N   UNL     1      -3.312   3.877 127.274  0.00  0.00    +0.000 N 
ATOM      9  C   UNL     1      -4.109   3.951 125.975  0.00  0.00    +0.000 C 
ATOM     10  C   UNL     1      -1.988   3.158 127.031  0.00  0.00    +0.000 C 
ENDBRANCH   6   8
ENDBRANCH   5   6
ENDBRANCH   4   5
ENDBRANCH   2   4
ENDBRANCH   1   2
BRANCH   1  11
ATOM     11  C   UNL     1      -7.865   5.747 130.862  0.00  0.00    +0.000 C 
BRANCH  11  12
ATOM     12  C   UNL     1      -9.046   6.671 130.965  0.00  0.00    +0.000 C 
ATOM     13  O   UNL     1      -9.810   6.725 131.921  0.00  0.00    +0.000 OA
BRANCH  12  14
ATOM     14  O   UNL     1      -9.163   7.451 129.845  0.00  0.00    +0.000 OA
BRANCH  14  15
ATOM     15  C   UNL     1     -10.338   7.127 129.089  0.00  0.00    +0.000 C 
BRANCH  15  16
ATOM     16  C   UNL     1     -11.091   8.392 128.645  0.00  0.00    +0.000 C 
BRANCH  16  17
ATOM     17  N   UNL     1     -12.600   8.352 128.996  0.00  0.00    +0.000 N 
ATOM     18  C   UNL     1     -13.147   9.760 129.205  0.00  0.00    +0.000 C 
ATOM     19  C   UNL     1     -13.393   7.643 127.903  0.00  0.00    +0.000 C 
ATOM     20  C   UNL     1     -12.791   7.571 130.301  0.00  0.00    +0.000 C 
ENDBRANCH  16  17
ENDBRANCH  15  16
ENDBRANCH  14  15
ENDBRANCH  12  14
ENDBRANCH  11  12
ENDBRANCH   1  11
TORSDOF 11
ENDMDL
MODEL 9
REMARK VINA RESULT:      -4.6      8.527      9.920
REMARK  Name = Succinylcholine
REMARK  17 active torsions:
REMARK  status: ('A' for Active; 'I' for Inactive)
REMARK    1  A    between atoms: C_1  and  N_2
REMARK    2  A    between atoms: N_2  and  C_3
REMARK    3  A    between atoms: N_2  and  C_4
REMARK    4  A    between atoms: N_2  and  C_5
REMARK    5  A    between atoms: C_5  and  C_6
REMARK    6  A    between atoms: C_6  and  O_7
REMARK    7  A    between atoms: O_7  and  C_8
REMARK    8  A    between atoms: C_8  and  C_10
REMARK    9  A    between atoms: C_10  and  C_11
REMARK   10  A    between atoms: C_11  and  C_12
REMARK   11  A    between atoms: C_12  and  O_14
REMARK   12  A    between atoms: O_14  and  C_15
REMARK   13  A    between atoms: C_15  and  C_16
REMARK   14  A    between atoms: C_16  and  N_17
REMARK   15  A    between atoms: N_17  and  C_18
REMARK   16  A    between atoms: N_17  and  C_19
REMARK   17  A    between atoms: N_17  and  C_20
REMARK                            x       y       z     vdW  Elec       q    Type
REMARK                         _______ _______ _______ _____ _____    ______ ____
ROOT
ATOM      1  C   UNL     1      -9.378  -2.586 125.922  0.00  0.00    +0.000 C 
ENDROOT
BRANCH   1   2
ATOM      2  C   UNL     1      -8.949  -3.149 124.595  0.00  0.00    +0.000 C 
ATOM      3  O   UNL     1      -8.065  -3.982 124.443  0.00  0.00    +0.000 OA
BRANCH   2   4
ATOM      4  O   UNL     1      -9.678  -2.609 123.570  0.00  0.00    +0.000 OA
BRANCH   4   5
ATOM      5  C   UNL     1      -8.927  -1.632 122.836  0.00  0.00    +0.000 C 
BRANCH   5   6
ATOM      6  C   UNL     1      -9.669  -0.287 122.764  0.00  0.00    +0.000 C 
BRANCH   6   8
ATOM      7  C   UNL     1      -9.062   2.147 122.880  0.00  0.00    +0.000 C 
ATOM      8  N   UNL     1      -9.008   0.814 123.632  0.00  0.00    +0.000 N 
ATOM      9  C   UNL     1      -7.542   0.486 123.902  0.00  0.00    +0.000 C 
ATOM     10  C   UNL     1      -9.753   0.988 124.951  0.00  0.00    +0.000 C 
ENDBRANCH   6   8
ENDBRANCH   5   6
ENDBRANCH   4   5
ENDBRANCH   2   4
ENDBRANCH   1   2
BRANCH   1  11
ATOM     11  C   UNL     1      -8.245  -2.683 126.948  0.00  0.00    +0.000 C 
BRANCH  11  12
ATOM     12  C   UNL     1      -8.692  -3.441 128.167  0.00  0.00    +0.000 C 
ATOM     13  O   UNL     1      -9.431  -4.416 128.152  0.00  0.00    +0.000 OA
BRANCH  12  14
ATOM     14  O   UNL     1      -8.162  -2.897 129.308  0.00  0.00    +0.000 OA
BRANCH  14  15
ATOM     15  C   UNL     1      -6.982  -3.593 129.733  0.00  0.00    +0.000 C 
BRANCH  15  16
ATOM     16  C   UNL     1      -6.062  -2.687 130.568  0.00  0.00    +0.000 C 
BRANCH  16  17
ATOM     17  N   UNL     1      -4.692  -2.428 129.891  0.00  0.00    +0.000 N 
ATOM     18  C   UNL     1      -3.696  -3.530 130.239  0.00  0.00    +0.000 C 
ATOM     19  C   UNL     1      -4.846  -2.326 128.376  0.00  0.00    +0.000 C 
ATOM     20  C   UNL     1      -4.124  -1.099 130.399  0.00  0.00    +0.000 C 
ENDBRANCH  16  17
ENDBRANCH  15  16
ENDBRANCH  14  15
ENDBRANCH  12  14
ENDBRANCH  11  12
ENDBRANCH   1  11
TORSDOF 11
ENDMDL
