MODEL 1
REMARK VINA RESULT:      -6.3      0.000      0.000
REMARK  Name = Sucrose
REMARK  13 active torsions:
REMARK  status: ('A' for Active; 'I' for Inactive)
REMARK    1  A    between atoms: O_1  and  C_2
REMARK    2  A    between atoms: C_2  and  C_3
REMARK    3  A    between atoms: C_5  and  C_6
REMARK    4  A    between atoms: C_5  and  O_8
REMARK    5  A    between atoms: C_6  and  O_7
REMARK    6  A    between atoms: O_8  and  C_9
REMARK    7  A    between atoms: C_11  and  C_12
REMARK    8  A    between atoms: C_12  and  O_13
REMARK    9  A    between atoms: C_14  and  O_15
REMARK   10  A    between atoms: C_16  and  O_17
REMARK   11  A    between atoms: C_18  and  O_19
REMARK   12  A    between atoms: C_20  and  O_21
REMARK   13  A    between atoms: C_22  and  O_23
REMARK                            x       y       z     vdW  Elec       q    Type
REMARK                         _______ _______ _______ _____ _____    ______ ____
ROOT
ATOM      1  O   UNL     1     -10.438   4.923 129.815  0.00  0.00    +0.000 OA
ENDROOT
BRANCH   1   2
ATOM      2  C   UNL     1      -9.031   4.782 129.984  0.00  0.00    +0.000 C 
ATOM      3  O   UNL     1      -8.687   4.379 131.306  0.00  0.00    +0.000 OA
ATOM      4  C   UNL     1      -9.246   3.133 131.728  0.00  0.00    +0.000 C 
ATOM      5  C   UNL     1      -8.621   2.024 130.926  0.00  0.00    +0.000 C 
ATOM      6  C   UNL     1      -8.805   2.329 129.420  0.00  0.00    +0.000 C 
ATOM      7  C   UNL     1      -8.374   3.759 129.044  0.00  0.00    +0.000 C 
BRANCH   5   8
ATOM      8  O   UNL     1      -9.233   0.782 131.262  0.00  0.00    +0.000 OA
ATOM      9  H   UNL     1      -9.044   0.589 132.197  0.00  0.00    +0.000 HD
ENDBRANCH   5   8
BRANCH   6  10
ATOM     10  O   UNL     1      -8.048   1.383 128.660  0.00  0.00    +0.000 OA
ATOM     11  H   UNL     1      -8.190   0.508 129.060  0.00  0.00    +0.000 HD
ENDBRANCH   6  10
BRANCH   7  12
ATOM     12  O   UNL     1      -8.622   4.065 127.672  0.00  0.00    +0.000 OA
ATOM     13  H   UNL     1      -8.840   3.232 127.219  0.00  0.00    +0.000 HD
ENDBRANCH   7  12
BRANCH   4  14
ATOM     14  C   UNL     1      -9.097   3.062 133.278  0.00  0.00    +0.000 C 
BRANCH  14  15
ATOM     15  O   UNL     1      -9.846   3.991 134.024  0.00  0.00    +0.000 OA
ATOM     16  H   UNL     1      -9.960   4.780 133.474  0.00  0.00    +0.000 HD
ENDBRANCH  14  15
ENDBRANCH   4  14
ENDBRANCH   1   2
BRANCH   1  19
ATOM     17  C   UNL     1     -12.053   7.395 128.355  0.00  0.00    +0.000 C 
ATOM     18  O   UNL     1     -12.283   6.392 129.400  0.00  0.00    +0.000 OA
ATOM     19  C   UNL     1     -11.061   6.200 130.145  0.00  0.00    +0.000 C 
ATOM     20  C   UNL     1     -10.285   7.485 129.828  0.00  0.00    +0.000 C 
ATOM     21  C   UNL     1     -10.561   7.716 128.349  0.00  0.00    +0.000 C 
BRANCH  20  22
ATOM     22  O   UNL     1      -8.972   7.489 130.296  0.00  0.00    +0.000 OA
ATOM     23  H   UNL     1      -9.044   6.899 131.056  0.00  0.00    +0.000 HD
ENDBRANCH  20  22
BRANCH  21  24
ATOM     24  O   UNL     1     -10.166   9.001 127.899  0.00  0.00    +0.000 OA
ATOM     25  H   UNL     1     -10.907   9.618 127.977  0.00  0.00    +0.000 HD
ENDBRANCH  21  24
BRANCH  17  26
ATOM     26  C   UNL     1     -12.561   6.848 127.022  0.00  0.00    +0.000 C 
BRANCH  26  27
ATOM     27  O   UNL     1     -11.452   6.685 126.149  0.00  0.00    +0.000 OA
ATOM     28  H   UNL     1     -10.753   6.238 126.656  0.00  0.00    +0.000 HD
ENDBRANCH  26  27
ENDBRANCH  17  26
BRANCH  19  29
ATOM     29  C   UNL     1     -11.337   6.119 131.684  0.00  0.00    +0.000 C 
BRANCH  29  30
ATOM     30  O   UNL     1     -10.252   6.502 132.536  0.00  0.00    +0.000 OA
ATOM     31  H   UNL     1      -9.415   6.255 132.114  0.00  0.00    +0.000 HD
ENDBRANCH  29  30
ENDBRANCH  19  29
ENDBRANCH   1  19
TORSDOF 13
ENDMDL
MODEL 2
REMARK VINA RESULT:      -6.3      1.712      5.851
REMARK  Name = Sucrose
REMARK  13 active torsions:
REMARK  status: ('A' for Active; 'I' for Inactive)
REMARK    1  A    between atoms: O_1  and  C_2
REMARK    2  A    between atoms: C_2  and  C_3
REMARK    3  A    between atoms: C_5  and  C_6
REMARK    4  A    between atoms: C_5  and  O_8
REMARK    5  A    between atoms: C_6  and  O_7
REMARK    6  A    between atoms: O_8  and  C_9
REMARK    7  A    between atoms: C_11  and  C_12
REMARK    8  A    between atoms: C_12  and  O_13
REMARK    9  A    between atoms: C_14  and  O_15
REMARK   10  A    between atoms: C_16  and  O_17
REMARK   11  A    between atoms: C_18  and  O_19
REMARK   12  A    between atoms: C_20  and  O_21
REMARK   13  A    between atoms: C_22  and  O_23
REMARK                            x       y       z     vdW  Elec       q    Type
REMARK                         _______ _______ _______ _____ _____    ______ ____
ROOT
ATOM      1  O   UNL     1     -10.038   4.626 129.973  0.00  0.00    +0.000 OA
ENDROOT
BRANCH   1   2
ATOM      2  C   UNL     1      -9.817   5.975 130.370  0.00  0.00    +0.000 C 
ATOM      3  O   UNL     1      -9.902   6.878 129.270  0.00  0.00    +0.000 OA
ATOM      4  C   UNL     1     -11.154   6.884 128.582  0.00  0.00    +0.000 C 
ATOM      5  C   UNL     1     -12.206   7.455 129.495  0.00  0.00    +0.000 C 
ATOM      6  C   UNL     1     -12.210   6.655 130.819  0.00  0.00    +0.000 C 
ATOM      7  C   UNL     1     -10.802   6.500 131.426  0.00  0.00    +0.000 C 
BRANCH   5   8
ATOM      8  O   UNL     1     -13.482   7.382 128.865  0.00  0.00    +0.000 OA
ATOM      9  H   UNL     1     -13.375   7.614 127.925  0.00  0.00    +0.000 HD
ENDBRANCH   5   8
BRANCH   6  10
ATOM     10  O   UNL     1     -13.067   7.312 131.756  0.00  0.00    +0.000 OA
ATOM     11  H   UNL     1     -13.530   8.022 131.278  0.00  0.00    +0.000 HD
ENDBRANCH   6  10
BRANCH   7  12
ATOM     12  O   UNL     1     -10.797   5.691 132.603  0.00  0.00    +0.000 OA
ATOM     13  H   UNL     1     -10.697   4.765 132.322  0.00  0.00    +0.000 HD
ENDBRANCH   7  12
BRANCH   4  14
ATOM     14  C   UNL     1     -10.928   7.604 127.219  0.00  0.00    +0.000 C 
BRANCH  14  15
ATOM     15  O   UNL     1     -11.225   6.863 126.061  0.00  0.00    +0.000 OA
ATOM     16  H   UNL     1     -11.479   5.972 126.343  0.00  0.00    +0.000 HD
ENDBRANCH  14  15
ENDBRANCH   4  14
ENDBRANCH   1   2
BRANCH   1  19
ATOM     17  C   UNL     1      -6.833   4.152 130.570  0.00  0.00    +0.000 C 
ATOM     18  O   UNL     1      -8.103   4.156 131.305  0.00  0.00    +0.000 OA
ATOM     19  C   UNL     1      -9.133   3.592 130.464  0.00  0.00    +0.000 C 
ATOM     20  C   UNL     1      -8.314   2.801 129.437  0.00  0.00    +0.000 C 
ATOM     21  C   UNL     1      -7.133   3.714 129.140  0.00  0.00    +0.000 C 
BRANCH  20  22
ATOM     22  O   UNL     1      -9.067   2.280 128.386  0.00  0.00    +0.000 OA
ATOM     23  H   UNL     1      -9.500   3.076 128.055  0.00  0.00    +0.000 HD
ENDBRANCH  20  22
BRANCH  21  24
ATOM     24  O   UNL     1      -6.096   3.071 128.417  0.00  0.00    +0.000 OA
ATOM     25  H   UNL     1      -6.288   3.104 127.469  0.00  0.00    +0.000 HD
ENDBRANCH  21  24
BRANCH  17  26
ATOM     26  C   UNL     1      -6.203   5.540 130.661  0.00  0.00    +0.000 C 
BRANCH  26  27
ATOM     27  O   UNL     1      -5.544   5.818 129.432  0.00  0.00    +0.000 OA
ATOM     28  H   UNL     1      -5.406   4.966 128.983  0.00  0.00    +0.000 HD
ENDBRANCH  26  27
ENDBRANCH  17  26
BRANCH  19  29
ATOM     29  C   UNL     1     -10.052   2.614 131.270  0.00  0.00    +0.000 C 
BRANCH  29  30
ATOM     30  O   UNL     1     -10.042   2.773 132.693  0.00  0.00    +0.000 OA
ATOM     31  H   UNL     1     -10.930   2.591 133.039  0.00  0.00    +0.000 HD
ENDBRANCH  29  30
ENDBRANCH  19  29
ENDBRANCH   1  19
TORSDOF 13
ENDMDL
MODEL 3
REMARK VINA RESULT:      -6.3      1.435      6.060
REMARK  Name = Sucrose
REMARK  13 active torsions:
REMARK  status: ('A' for Active; 'I' for Inactive)
REMARK    1  A    between atoms: O_1  and  C_2
REMARK    2  A    between atoms: C_2  and  C_3
REMARK    3  A    between atoms: C_5  and  C_6
REMARK    4  A    between atoms: C_5  and  O_8
REMARK    5  A    between atoms: C_6  and  O_7
REMARK    6  A    between atoms: O_8  and  C_9
REMARK    7  A    between atoms: C_11  and  C_12
REMARK    8  A    between atoms: C_12  and  O_13
REMARK    9  A    between atoms: C_14  and  O_15
REMARK   10  A    between atoms: C_16  and  O_17
REMARK   11  A    between atoms: C_18  and  O_19
REMARK   12  A    between atoms: C_20  and  O_21
REMARK   13  A    between atoms: C_22  and  O_23
REMARK                            x       y       z     vdW  Elec       q    Type
REMARK                         _______ _______ _______ _____ _____    ______ ____
ROOT
ATOM      1  O   UNL     1      -9.840   4.987 130.003  0.00  0.00    +0.000 OA
ENDROOT
BRANCH   1   2
ATOM      2  C   UNL     1      -9.860   6.367 130.351  0.00  0.00    +0.000 C 
ATOM      3  O   UNL     1      -9.986   7.207 129.207  0.00  0.00    +0.000 OA
ATOM      4  C   UNL     1     -11.163   6.996 128.423  0.00  0.00    +0.000 C 
ATOM      5  C   UNL     1     -12.362   7.429 129.222  0.00  0.00    +0.000 C 
ATOM      6  C   UNL     1     -12.357   6.685 130.578  0.00  0.00    +0.000 C 
ATOM      7  C   UNL     1     -10.999   6.770 131.301  0.00  0.00    +0.000 C 
BRANCH   5   8
ATOM      8  O   UNL     1     -13.554   7.139 128.498  0.00  0.00    +0.000 OA
ATOM      9  H   UNL     1     -13.732   6.184 128.569  0.00  0.00    +0.000 HD
ENDBRANCH   5   8
BRANCH   6  10
ATOM     10  O   UNL     1     -13.380   7.235 131.413  0.00  0.00    +0.000 OA
ATOM     11  H   UNL     1     -13.674   8.067 131.004  0.00  0.00    +0.000 HD
ENDBRANCH   6  10
BRANCH   7  12
ATOM     12  O   UNL     1     -10.971   6.014 132.511  0.00  0.00    +0.000 OA
ATOM     13  H   UNL     1     -11.173   5.089 132.285  0.00  0.00    +0.000 HD
ENDBRANCH   7  12
BRANCH   4  14
ATOM     14  C   UNL     1     -10.933   7.695 127.049  0.00  0.00    +0.000 C 
BRANCH  14  15
ATOM     15  O   UNL     1     -11.635   7.167 125.951  0.00  0.00    +0.000 OA
ATOM     16  H   UNL     1     -12.491   6.851 126.279  0.00  0.00    +0.000 HD
ENDBRANCH  14  15
ENDBRANCH   4  14
ENDBRANCH   1   2
BRANCH   1  19
ATOM     17  C   UNL     1      -8.148   3.258 132.239  0.00  0.00    +0.000 C 
ATOM     18  O   UNL     1      -8.766   3.054 130.925  0.00  0.00    +0.000 OA
ATOM     19  C   UNL     1      -8.589   4.248 130.132  0.00  0.00    +0.000 C 
ATOM     20  C   UNL     1      -7.414   4.934 130.840  0.00  0.00    +0.000 C 
ATOM     21  C   UNL     1      -7.710   4.718 132.317  0.00  0.00    +0.000 C 
BRANCH  20  22
ATOM     22  O   UNL     1      -7.135   6.217 130.371  0.00  0.00    +0.000 OA
ATOM     23  H   UNL     1      -6.335   6.427 130.869  0.00  0.00    +0.000 HD
ENDBRANCH  20  22
BRANCH  21  24
ATOM     24  O   UNL     1      -6.615   5.033 133.161  0.00  0.00    +0.000 OA
ATOM     25  H   UNL     1      -6.390   5.970 133.072  0.00  0.00    +0.000 HD
ENDBRANCH  21  24
BRANCH  17  26
ATOM     26  C   UNL     1      -9.148   2.865 133.324  0.00  0.00    +0.000 C 
BRANCH  26  27
ATOM     27  O   UNL     1      -9.580   4.045 133.989  0.00  0.00    +0.000 OA
ATOM     28  H   UNL     1     -10.361   3.807 134.516  0.00  0.00    +0.000 HD
ENDBRANCH  26  27
ENDBRANCH  17  26
BRANCH  19  29
ATOM     29  C   UNL     1      -8.183   3.899 128.660  0.00  0.00    +0.000 C 
BRANCH  29  30
ATOM     30  O   UNL     1      -8.362   4.944 127.696  0.00  0.00    +0.000 OA
ATOM     31  H   UNL     1      -7.945   4.680 126.861  0.00  0.00    +0.000 HD
ENDBRANCH  29  30
ENDBRANCH  19  29
ENDBRANCH   1  19
TORSDOF 13
ENDMDL
MODEL 4
REMARK VINA RESULT:      -6.3      1.364      5.894
REMARK  Name = Sucrose
REMARK  13 active torsions:
REMARK  status: ('A' for Active; 'I' for Inactive)
REMARK    1  A    between atoms: O_1  and  C_2
REMARK    2  A    between atoms: C_2  and  C_3
REMARK    3  A    between atoms: C_5  and  C_6
REMARK    4  A    between atoms: C_5  and  O_8
REMARK    5  A    between atoms: C_6  and  O_7
REMARK    6  A    between atoms: O_8  and  C_9
REMARK    7  A    between atoms: C_11  and  C_12
REMARK    8  A    between atoms: C_12  and  O_13
REMARK    9  A    between atoms: C_14  and  O_15
REMARK   10  A    between atoms: C_16  and  O_17
REMARK   11  A    between atoms: C_18  and  O_19
REMARK   12  A    between atoms: C_20  and  O_21
REMARK   13  A    between atoms: C_22  and  O_23
REMARK                            x       y       z     vdW  Elec       q    Type
REMARK                         _______ _______ _______ _____ _____    ______ ____
ROOT
ATOM      1  O   UNL     1      -9.533   4.801 130.406  0.00  0.00    +0.000 OA
ENDROOT
BRANCH   1   2
ATOM      2  C   UNL     1      -9.594   6.200 130.660  0.00  0.00    +0.000 C 
ATOM      3  O   UNL     1      -9.702   6.959 129.460  0.00  0.00    +0.000 OA
ATOM      4  C   UNL     1     -10.849   6.670 128.657  0.00  0.00    +0.000 C 
ATOM      5  C   UNL     1     -12.082   7.127 129.390  0.00  0.00    +0.000 C 
ATOM      6  C   UNL     1     -12.102   6.474 130.792  0.00  0.00    +0.000 C 
ATOM      7  C   UNL     1     -10.769   6.638 131.547  0.00  0.00    +0.000 C 
BRANCH   5   8
ATOM      8  O   UNL     1     -13.244   6.761 128.652  0.00  0.00    +0.000 OA
ATOM      9  H   UNL     1     -13.837   6.260 129.240  0.00  0.00    +0.000 HD
ENDBRANCH   5   8
BRANCH   6  10
ATOM     10  O   UNL     1     -13.163   7.054 131.558  0.00  0.00    +0.000 OA
ATOM     11  H   UNL     1     -13.949   6.493 131.437  0.00  0.00    +0.000 HD
ENDBRANCH   6  10
BRANCH   7  12
ATOM     12  O   UNL     1     -10.763   5.964 132.806  0.00  0.00    +0.000 OA
ATOM     13  H   UNL     1     -11.434   6.388 133.370  0.00  0.00    +0.000 HD
ENDBRANCH   7  12
BRANCH   4  14
ATOM     14  C   UNL     1     -10.591   7.281 127.247  0.00  0.00    +0.000 C 
BRANCH  14  15
ATOM     15  O   UNL     1     -11.352   6.757 126.187  0.00  0.00    +0.000 OA
ATOM     16  H   UNL     1     -10.848   6.897 125.371  0.00  0.00    +0.000 HD
ENDBRANCH  14  15
ENDBRANCH   4  14
ENDBRANCH   1   2
BRANCH   1  19
ATOM     17  C   UNL     1      -8.039   1.878 130.120  0.00  0.00    +0.000 C 
ATOM     18  O   UNL     1      -7.694   3.303 130.067  0.00  0.00    +0.000 OA
ATOM     19  C   UNL     1      -8.484   4.015 131.045  0.00  0.00    +0.000 C 
ATOM     20  C   UNL     1      -8.904   2.890 132.000  0.00  0.00    +0.000 C 
ATOM     21  C   UNL     1      -9.225   1.730 131.068  0.00  0.00    +0.000 C 
BRANCH  20  22
ATOM     22  O   UNL     1      -9.831   3.277 132.966  0.00  0.00    +0.000 OA
ATOM     23  H   UNL     1     -10.626   3.385 132.429  0.00  0.00    +0.000 HD
ENDBRANCH  20  22
BRANCH  21  24
ATOM     24  O   UNL     1      -9.377   0.493 131.744  0.00  0.00    +0.000 OA
ATOM     25  H   UNL     1     -10.069   0.569 132.417  0.00  0.00    +0.000 HD
ENDBRANCH  21  24
BRANCH  17  26
ATOM     26  C   UNL     1      -8.327   1.385 128.704  0.00  0.00    +0.000 C 
BRANCH  26  27
ATOM     27  O   UNL     1      -8.749   2.493 127.918  0.00  0.00    +0.000 OA
ATOM     28  H   UNL     1      -7.996   2.751 127.360  0.00  0.00    +0.000 HD
ENDBRANCH  26  27
ENDBRANCH  17  26
BRANCH  19  29
ATOM     29  C   UNL     1      -7.620   5.065 131.820  0.00  0.00    +0.000 C 
BRANCH  29  30
ATOM     30  O   UNL     1      -7.804   5.103 133.240  0.00  0.00    +0.000 OA
ATOM     31  H   UNL     1      -7.966   6.019 133.515  0.00  0.00    +0.000 HD
ENDBRANCH  29  30
ENDBRANCH  19  29
ENDBRANCH   1  19
TORSDOF 13
ENDMDL
MODEL 5
REMARK VINA RESULT:      -6.2      1.645      5.630
REMARK  Name = Sucrose
REMARK  13 active torsions:
REMARK  status: ('A' for Active; 'I' for Inactive)
REMARK    1  A    between atoms: O_1  and  C_2
REMARK    2  A    between atoms: C_2  and  C_3
REMARK    3  A    between atoms: C_5  and  C_6
REMARK    4  A    between atoms: C_5  and  O_8
REMARK    5  A    between atoms: C_6  and  O_7
REMARK    6  A    between atoms: O_8  and  C_9
REMARK    7  A    between atoms: C_11  and  C_12
REMARK    8  A    between atoms: C_12  and  O_13
REMARK    9  A    between atoms: C_14  and  O_15
REMARK   10  A    between atoms: C_16  and  O_17
REMARK   11  A    between atoms: C_18  and  O_19
REMARK   12  A    between atoms: C_20  and  O_21
REMARK   13  A    between atoms: C_22  and  O_23
REMARK                            x       y       z     vdW  Elec       q    Type
REMARK                         _______ _______ _______ _____ _____    ______ ____
ROOT
ATOM      1  O   UNL     1      -9.515   5.019 129.466  0.00  0.00    +0.000 OA
ENDROOT
BRANCH   1   2
ATOM      2  C   UNL     1      -9.559   6.321 130.040  0.00  0.00    +0.000 C 
ATOM      3  O   UNL     1      -9.824   7.327 129.067  0.00  0.00    +0.000 OA
ATOM      4  C   UNL     1     -11.059   7.182 128.361  0.00  0.00    +0.000 C 
ATOM      5  C   UNL     1     -12.196   7.412 129.320  0.00  0.00    +0.000 C 
ATOM      6  C   UNL     1     -12.035   6.458 130.528  0.00  0.00    +0.000 C 
ATOM      7  C   UNL     1     -10.620   6.500 131.136  0.00  0.00    +0.000 C 
BRANCH   5   8
ATOM      8  O   UNL     1     -13.437   7.177 128.661  0.00  0.00    +0.000 OA
ATOM      9  H   UNL     1     -13.753   8.020 128.290  0.00  0.00    +0.000 HD
ENDBRANCH   5   8
BRANCH   6  10
ATOM     10  O   UNL     1     -12.998   6.807 131.526  0.00  0.00    +0.000 OA
ATOM     11  H   UNL     1     -12.727   6.377 132.355  0.00  0.00    +0.000 HD
ENDBRANCH   6  10
BRANCH   7  12
ATOM     12  O   UNL     1     -10.450   5.559 132.197  0.00  0.00    +0.000 OA
ATOM     13  H   UNL     1     -11.249   5.005 132.230  0.00  0.00    +0.000 HD
ENDBRANCH   7  12
BRANCH   4  14
ATOM     14  C   UNL     1     -10.985   8.106 127.109  0.00  0.00    +0.000 C 
BRANCH  14  15
ATOM     15  O   UNL     1     -11.068   7.472 125.856  0.00  0.00    +0.000 OA
ATOM     16  H   UNL     1     -11.227   6.531 126.016  0.00  0.00    +0.000 HD
ENDBRANCH  14  15
ENDBRANCH   4  14
ENDBRANCH   1   2
BRANCH   1  19
ATOM     17  C   UNL     1      -7.526   3.819 127.129  0.00  0.00    +0.000 C 
ATOM     18  O   UNL     1      -7.502   4.844 128.179  0.00  0.00    +0.000 OA
ATOM     19  C   UNL     1      -8.224   4.354 129.330  0.00  0.00    +0.000 C 
ATOM     20  C   UNL     1      -8.212   2.838 129.096  0.00  0.00    +0.000 C 
ATOM     21  C   UNL     1      -8.455   2.704 127.600  0.00  0.00    +0.000 C 
BRANCH  20  22
ATOM     22  O   UNL     1      -9.000   2.117 129.992  0.00  0.00    +0.000 OA
ATOM     23  H   UNL     1      -8.336   1.823 130.628  0.00  0.00    +0.000 HD
ENDBRANCH  20  22
BRANCH  21  24
ATOM     24  O   UNL     1      -8.214   1.396 127.108  0.00  0.00    +0.000 OA
ATOM     25  H   UNL     1      -8.974   0.828 127.300  0.00  0.00    +0.000 HD
ENDBRANCH  21  24
BRANCH  17  26
ATOM     26  C   UNL     1      -7.968   4.465 125.817  0.00  0.00    +0.000 C 
BRANCH  26  27
ATOM     27  O   UNL     1      -8.866   5.525 126.116  0.00  0.00    +0.000 OA
ATOM     28  H   UNL     1      -9.210   5.365 127.011  0.00  0.00    +0.000 HD
ENDBRANCH  26  27
ENDBRANCH  17  26
BRANCH  19  29
ATOM     29  C   UNL     1      -7.467   4.686 130.660  0.00  0.00    +0.000 C 
BRANCH  29  30
ATOM     30  O   UNL     1      -7.885   3.954 131.818  0.00  0.00    +0.000 OA
ATOM     31  H   UNL     1      -7.685   3.013 131.687  0.00  0.00    +0.000 HD
ENDBRANCH  29  30
ENDBRANCH  19  29
ENDBRANCH   1  19
TORSDOF 13
ENDMDL
MODEL 6
REMARK VINA RESULT:      -6.1      5.865      8.751
REMARK  Name = Sucrose
REMARK  13 active torsions:
REMARK  status: ('A' for Active; 'I' for Inactive)
REMARK    1  A    between atoms: O_1  and  C_2
REMARK    2  A    between atoms: C_2  and  C_3
REMARK    3  A    between atoms: C_5  and  C_6
REMARK    4  A    between atoms: C_5  and  O_8
REMARK    5  A    between atoms: C_6  and  O_7
REMARK    6  A    between atoms: O_8  and  C_9
REMARK    7  A    between atoms: C_11  and  C_12
REMARK    8  A    between atoms: C_12  and  O_13
REMARK    9  A    between atoms: C_14  and  O_15
REMARK   10  A    between atoms: C_16  and  O_17
REMARK   11  A    between atoms: C_18  and  O_19
REMARK   12  A    between atoms: C_20  and  O_21
REMARK   13  A    between atoms: C_22  and  O_23
REMARK                            x       y       z     vdW  Elec       q    Type
REMARK                         _______ _______ _______ _____ _____    ______ ____
ROOT
ATOM      1  O   UNL     1      -7.411   0.506 124.352  0.00  0.00    +0.000 OA
ENDROOT
BRANCH   1   2
ATOM      2  C   UNL     1      -7.600  -0.131 123.093  0.00  0.00    +0.000 C 
ATOM      3  O   UNL     1      -6.574  -1.080 122.814  0.00  0.00    +0.000 OA
ATOM      4  C   UNL     1      -6.453  -2.143 123.762  0.00  0.00    +0.000 C 
ATOM      5  C   UNL     1      -7.675  -3.016 123.672  0.00  0.00    +0.000 C 
ATOM      6  C   UNL     1      -8.935  -2.137 123.857  0.00  0.00    +0.000 C 
ATOM      7  C   UNL     1      -8.929  -0.889 122.953  0.00  0.00    +0.000 C 
BRANCH   5   8
ATOM      8  O   UNL     1      -7.621  -4.026 124.674  0.00  0.00    +0.000 OA
ATOM      9  H   UNL     1      -8.446  -4.542 124.637  0.00  0.00    +0.000 HD
ENDBRANCH   5   8
BRANCH   6  10
ATOM     10  O   UNL     1     -10.095  -2.926 123.580  0.00  0.00    +0.000 OA
ATOM     11  H   UNL     1     -10.252  -3.495 124.353  0.00  0.00    +0.000 HD
ENDBRANCH   6  10
BRANCH   7  12
ATOM     12  O   UNL     1     -10.051  -0.037 123.185  0.00  0.00    +0.000 OA
ATOM     13  H   UNL     1     -10.133   0.087 124.147  0.00  0.00    +0.000 HD
ENDBRANCH   7  12
BRANCH   4  14
ATOM     14  C   UNL     1      -5.072  -2.823 123.518  0.00  0.00    +0.000 C 
BRANCH  14  15
ATOM     15  O   UNL     1      -4.954  -4.166 123.920  0.00  0.00    +0.000 OA
ATOM     16  H   UNL     1      -4.163  -4.234 124.475  0.00  0.00    +0.000 HD
ENDBRANCH  14  15
ENDBRANCH   4  14
ENDBRANCH   1   2
BRANCH   1  19
ATOM     17  C   UNL     1      -6.270   2.885 126.325  0.00  0.00    +0.000 C 
ATOM     18  O   UNL     1      -6.024   2.355 124.979  0.00  0.00    +0.000 OA
ATOM     19  C   UNL     1      -7.283   1.958 124.393  0.00  0.00    +0.000 C 
ATOM     20  C   UNL     1      -8.293   2.749 125.233  0.00  0.00    +0.000 C 
ATOM     21  C   UNL     1      -7.742   2.647 126.648  0.00  0.00    +0.000 C 
BRANCH  20  22
ATOM     22  O   UNL     1      -9.625   2.420 124.984  0.00  0.00    +0.000 OA
ATOM     23  H   UNL     1     -10.046   2.719 125.799  0.00  0.00    +0.000 HD
ENDBRANCH  20  22
BRANCH  21  24
ATOM     24  O   UNL     1      -8.368   3.535 127.559  0.00  0.00    +0.000 OA
ATOM     25  H   UNL     1      -9.267   3.230 127.750  0.00  0.00    +0.000 HD
ENDBRANCH  21  24
BRANCH  17  26
ATOM     26  C   UNL     1      -5.315   2.208 127.306  0.00  0.00    +0.000 C 
BRANCH  26  27
ATOM     27  O   UNL     1      -4.247   1.628 126.569  0.00  0.00    +0.000 OA
ATOM     28  H   UNL     1      -4.474   1.708 125.627  0.00  0.00    +0.000 HD
ENDBRANCH  26  27
ENDBRANCH  17  26
BRANCH  19  29
ATOM     29  C   UNL     1      -7.380   2.405 122.896  0.00  0.00    +0.000 C 
BRANCH  29  30
ATOM     30  O   UNL     1      -8.254   3.508 122.627  0.00  0.00    +0.000 OA
ATOM     31  H   UNL     1      -9.069   3.400 123.142  0.00  0.00    +0.000 HD
ENDBRANCH  29  30
ENDBRANCH  19  29
ENDBRANCH   1  19
TORSDOF 13
ENDMDL
MODEL 7
REMARK VINA RESULT:      -6.0      6.249      9.259
REMARK  Name = Sucrose
REMARK  13 active torsions:
REMARK  status: ('A' for Active; 'I' for Inactive)
REMARK    1  A    between atoms: O_1  and  C_2
REMARK    2  A    between atoms: C_2  and  C_3
REMARK    3  A    between atoms: C_5  and  C_6
REMARK    4  A    between atoms: C_5  and  O_8
REMARK    5  A    between atoms: C_6  and  O_7
REMARK    6  A    between atoms: O_8  and  C_9
REMARK    7  A    between atoms: C_11  and  C_12
REMARK    8  A    between atoms: C_12  and  O_13
REMARK    9  A    between atoms: C_14  and  O_15
REMARK   10  A    between atoms: C_16  and  O_17
REMARK   11  A    between atoms: C_18  and  O_19
REMARK   12  A    between atoms: C_20  and  O_21
REMARK   13  A    between atoms: C_22  and  O_23
REMARK                            x       y       z     vdW  Elec       q    Type
REMARK                         _______ _______ _______ _____ _____    ______ ____
ROOT
ATOM      1  O   UNL     1      -8.172   0.198 123.876  0.00  0.00    +0.000 OA
ENDROOT
BRANCH   1   2
ATOM      2  C   UNL     1      -8.443   0.763 125.154  0.00  0.00    +0.000 C 
ATOM      3  O   UNL     1      -7.292   0.763 125.995  0.00  0.00    +0.000 OA
ATOM      4  C   UNL     1      -6.169   1.488 125.490  0.00  0.00    +0.000 C 
ATOM      5  C   UNL     1      -6.505   2.955 125.475  0.00  0.00    +0.000 C 
ATOM      6  C   UNL     1      -7.811   3.162 124.672  0.00  0.00    +0.000 C 
ATOM      7  C   UNL     1      -8.942   2.216 125.118  0.00  0.00    +0.000 C 
BRANCH   5   8
ATOM      8  O   UNL     1      -5.435   3.688 124.885  0.00  0.00    +0.000 OA
ATOM      9  H   UNL     1      -5.813   4.415 124.358  0.00  0.00    +0.000 HD
ENDBRANCH   5   8
BRANCH   6  10
ATOM     10  O   UNL     1      -8.235   4.520 124.819  0.00  0.00    +0.000 OA
ATOM     11  H   UNL     1      -8.663   4.783 123.986  0.00  0.00    +0.000 HD
ENDBRANCH   6  10
BRANCH   7  12
ATOM     12  O   UNL     1     -10.119   2.352 124.322  0.00  0.00    +0.000 OA
ATOM     13  H   UNL     1     -10.758   1.684 124.626  0.00  0.00    +0.000 HD
ENDBRANCH   7  12
BRANCH   4  14
ATOM     14  C   UNL     1      -4.926   1.051 126.322  0.00  0.00    +0.000 C 
BRANCH  14  15
ATOM     15  O   UNL     1      -4.990  -0.217 126.927  0.00  0.00    +0.000 OA
ATOM     16  H   UNL     1      -4.468  -0.177 127.742  0.00  0.00    +0.000 HD
ENDBRANCH  14  15
ENDBRANCH   4  14
ENDBRANCH   1   2
BRANCH   1  19
ATOM     17  C   UNL     1      -8.775  -2.766 125.181  0.00  0.00    +0.000 C 
ATOM     18  O   UNL     1      -9.523  -1.626 124.641  0.00  0.00    +0.000 OA
ATOM     19  C   UNL     1      -8.795  -1.073 123.523  0.00  0.00    +0.000 C 
ATOM     20  C   UNL     1      -7.883  -2.239 123.124  0.00  0.00    +0.000 C 
ATOM     21  C   UNL     1      -7.432  -2.814 124.459  0.00  0.00    +0.000 C 
BRANCH  20  22
ATOM     22  O   UNL     1      -6.935  -1.916 122.155  0.00  0.00    +0.000 OA
ATOM     23  H   UNL     1      -6.730  -1.003 122.391  0.00  0.00    +0.000 HD
ENDBRANCH  20  22
BRANCH  21  24
ATOM     24  O   UNL     1      -6.793  -4.075 124.339  0.00  0.00    +0.000 OA
ATOM     25  H   UNL     1      -5.836  -3.953 124.260  0.00  0.00    +0.000 HD
ENDBRANCH  21  24
BRANCH  17  26
ATOM     26  C   UNL     1      -8.646  -2.603 126.694  0.00  0.00    +0.000 C 
BRANCH  26  27
ATOM     27  O   UNL     1      -7.325  -2.170 126.990  0.00  0.00    +0.000 OA
ATOM     28  H   UNL     1      -6.744  -2.945 126.904  0.00  0.00    +0.000 HD
ENDBRANCH  26  27
ENDBRANCH  17  26
BRANCH  19  29
ATOM     29  C   UNL     1      -9.754  -0.726 122.335  0.00  0.00    +0.000 C 
BRANCH  29  30
ATOM     30  O   UNL     1     -10.833   0.166 122.640  0.00  0.00    +0.000 OA
ATOM     31  H   UNL     1     -11.439   0.201 121.884  0.00  0.00    +0.000 HD
ENDBRANCH  29  30
ENDBRANCH  19  29
ENDBRANCH   1  19
TORSDOF 13
ENDMDL
MODEL 8
REMARK VINA RESULT:      -5.9      2.228      5.960
REMARK  Name = Sucrose
REMARK  13 active torsions:
REMARK  status: ('A' for Active; 'I' for Inactive)
REMARK    1  A    between atoms: O_1  and  C_2
REMARK    2  A    between atoms: C_2  and  C_3
REMARK    3  A    between atoms: C_5  and  C_6
REMARK    4  A    between atoms: C_5  and  O_8
REMARK    5  A    between atoms: C_6  and  O_7
REMARK    6  A    between atoms: O_8  and  C_9
REMARK    7  A    between atoms: C_11  and  C_12
REMARK    8  A    between atoms: C_12  and  O_13
REMARK    9  A    between atoms: C_14  and  O_15
REMARK   10  A    between atoms: C_16  and  O_17
REMARK   11  A    between atoms: C_18  and  O_19
REMARK   12  A    between atoms: C_20  and  O_21
REMARK   13  A    between atoms: C_22  and  O_23
REMARK                            x       y       z     vdW  Elec       q    Type
REMARK                         _______ _______ _______ _____ _____    ______ ____
ROOT
ATOM      1  O   UNL     1      -8.208   5.760 130.060  0.00  0.00    +0.000 OA
ENDROOT
BRANCH   1   2
ATOM      2  C   UNL     1      -8.855   6.972 130.431  0.00  0.00    +0.000 C 
ATOM      3  O   UNL     1      -9.462   7.619 129.315  0.00  0.00    +0.000 OA
ATOM      4  C   UNL     1     -10.457   6.851 128.633  0.00  0.00    +0.000 C 
ATOM      5  C   UNL     1     -11.646   6.682 129.541  0.00  0.00    +0.000 C 
ATOM      6  C   UNL     1     -11.172   6.067 130.879  0.00  0.00    +0.000 C 
ATOM      7  C   UNL     1      -9.964   6.810 131.482  0.00  0.00    +0.000 C 
BRANCH   5   8
ATOM      8  O   UNL     1     -12.610   5.838 128.918  0.00  0.00    +0.000 OA
ATOM      9  H   UNL     1     -13.325   5.665 129.556  0.00  0.00    +0.000 HD
ENDBRANCH   5   8
BRANCH   6  10
ATOM     10  O   UNL     1     -12.259   6.085 131.808  0.00  0.00    +0.000 OA
ATOM     11  H   UNL     1     -12.374   7.005 132.103  0.00  0.00    +0.000 HD
ENDBRANCH   6  10
BRANCH   7  12
ATOM     12  O   UNL     1      -9.477   6.191 132.673  0.00  0.00    +0.000 OA
ATOM     13  H   UNL     1      -9.064   6.885 133.217  0.00  0.00    +0.000 HD
ENDBRANCH   7  12
BRANCH   4  14
ATOM     14  C   UNL     1     -10.704   7.537 127.256  0.00  0.00    +0.000 C 
BRANCH  14  15
ATOM     15  O   UNL     1     -11.333   6.756 126.270  0.00  0.00    +0.000 OA
ATOM     16  H   UNL     1     -10.859   5.912 126.222  0.00  0.00    +0.000 HD
ENDBRANCH  14  15
ENDBRANCH   4  14
ENDBRANCH   1   2
BRANCH   1  19
ATOM     17  C   UNL     1      -5.642   3.832 129.318  0.00  0.00    +0.000 C 
ATOM     18  O   UNL     1      -6.002   5.253 129.275  0.00  0.00    +0.000 OA
ATOM     19  C   UNL     1      -6.810   5.568 130.430  0.00  0.00    +0.000 C 
ATOM     20  C   UNL     1      -6.468   4.418 131.386  0.00  0.00    +0.000 C 
ATOM     21  C   UNL     1      -6.409   3.200 130.475  0.00  0.00    +0.000 C 
BRANCH  20  22
ATOM     22  O   UNL     1      -7.250   4.382 132.539  0.00  0.00    +0.000 OA
ATOM     23  H   UNL     1      -8.052   3.961 132.207  0.00  0.00    +0.000 HD
ENDBRANCH  20  22
BRANCH  21  24
ATOM     24  O   UNL     1      -5.839   2.061 131.099  0.00  0.00    +0.000 OA
ATOM     25  H   UNL     1      -6.516   1.380 131.221  0.00  0.00    +0.000 HD
ENDBRANCH  21  24
BRANCH  17  26
ATOM     26  C   UNL     1      -5.957   3.200 127.963  0.00  0.00    +0.000 C 
BRANCH  26  27
ATOM     27  O   UNL     1      -6.401   1.867 128.180  0.00  0.00    +0.000 OA
ATOM     28  H   UNL     1      -6.613   1.787 129.125  0.00  0.00    +0.000 HD
ENDBRANCH  26  27
ENDBRANCH  17  26
BRANCH  19  29
ATOM     29  C   UNL     1      -6.381   6.930 131.072  0.00  0.00    +0.000 C 
BRANCH  29  30
ATOM     30  O   UNL     1      -4.999   7.045 131.432  0.00  0.00    +0.000 OA
ATOM     31  H   UNL     1      -4.510   7.435 130.690  0.00  0.00    +0.000 HD
ENDBRANCH  29  30
ENDBRANCH  19  29
ENDBRANCH   1  19
TORSDOF 13
ENDMDL
MODEL 9
REMARK VINA RESULT:      -5.8      2.595      5.445
REMARK  Name = Sucrose
REMARK  13 active torsions:
REMARK  status: ('A' for Active; 'I' for Inactive)
REMARK    1  A    between atoms: O_1  and  C_2
REMARK    2  A    between atoms: C_2  and  C_3
REMARK    3  A    between atoms: C_5  and  C_6
REMARK    4  A    between atoms: C_5  and  O_8
REMARK    5  A    between atoms: C_6  and  O_7
REMARK    6  A    between atoms: O_8  and  C_9
REMARK    7  A    between atoms: C_11  and  C_12
REMARK    8  A    between atoms: C_12  and  O_13
REMARK    9  A    between atoms: C_14  and  O_15
REMARK   10  A    between atoms: C_16  and  O_17
REMARK   11  A    between atoms: C_18  and  O_19
REMARK   12  A    between atoms: C_20  and  O_21
REMARK   13  A    between atoms: C_22  and  O_23
REMARK                            x       y       z     vdW  Elec       q    Type
REMARK                         _______ _______ _______ _____ _____    ______ ____
ROOT
ATOM      1  O   UNL     1      -8.580   3.585 128.011  0.00  0.00    +0.000 OA
ENDROOT
BRANCH   1   2
ATOM      2  C   UNL     1      -7.944   3.937 129.235  0.00  0.00    +0.000 C 
ATOM      3  O   UNL     1      -8.195   5.291 129.600  0.00  0.00    +0.000 OA
ATOM      4  C   UNL     1      -9.573   5.629 129.777  0.00  0.00    +0.000 C 
ATOM      5  C   UNL     1     -10.097   4.909 130.991  0.00  0.00    +0.000 C 
ATOM      6  C   UNL     1      -9.827   3.394 130.832  0.00  0.00    +0.000 C 
ATOM      7  C   UNL     1      -8.368   3.086 130.442  0.00  0.00    +0.000 C 
BRANCH   5   8
ATOM      8  O   UNL     1     -11.493   5.155 131.131  0.00  0.00    +0.000 OA
ATOM      9  H   UNL     1     -11.748   4.968 132.052  0.00  0.00    +0.000 HD
ENDBRANCH   5   8
BRANCH   6  10
ATOM     10  O   UNL     1     -10.145   2.735 132.060  0.00  0.00    +0.000 OA
ATOM     11  H   UNL     1      -9.328   2.690 132.587  0.00  0.00    +0.000 HD
ENDBRANCH   6  10
BRANCH   7  12
ATOM     12  O   UNL     1      -8.142   1.695 130.215  0.00  0.00    +0.000 OA
ATOM     13  H   UNL     1      -7.396   1.615 129.595  0.00  0.00    +0.000 HD
ENDBRANCH   7  12
BRANCH   4  14
ATOM     14  C   UNL     1      -9.670   7.184 129.774  0.00  0.00    +0.000 C 
BRANCH  14  15
ATOM     15  O   UNL     1     -10.966   7.732 129.799  0.00  0.00    +0.000 OA
ATOM     16  H   UNL     1     -10.983   8.465 129.167  0.00  0.00    +0.000 HD
ENDBRANCH  14  15
ENDBRANCH   4  14
ENDBRANCH   1   2
BRANCH   1  19
ATOM     17  C   UNL     1      -5.645   3.934 126.554  0.00  0.00    +0.000 C 
ATOM     18  O   UNL     1      -6.384   2.924 127.319  0.00  0.00    +0.000 OA
ATOM     19  C   UNL     1      -7.779   2.982 126.951  0.00  0.00    +0.000 C 
ATOM     20  C   UNL     1      -7.724   3.692 125.593  0.00  0.00    +0.000 C 
ATOM     21  C   UNL     1      -6.670   4.772 125.795  0.00  0.00    +0.000 C 
BRANCH  20  22
ATOM     22  O   UNL     1      -8.973   4.033 125.077  0.00  0.00    +0.000 OA
ATOM     23  H   UNL     1      -9.039   3.424 124.331  0.00  0.00    +0.000 HD
ENDBRANCH  20  22
BRANCH  21  24
ATOM     24  O   UNL     1      -6.254   5.382 124.584  0.00  0.00    +0.000 OA
ATOM     25  H   UNL     1      -5.319   5.190 124.424  0.00  0.00    +0.000 HD
ENDBRANCH  21  24
BRANCH  17  26
ATOM     26  C   UNL     1      -4.784   4.752 127.514  0.00  0.00    +0.000 C 
BRANCH  26  27
ATOM     27  O   UNL     1      -4.731   6.092 127.042  0.00  0.00    +0.000 OA
ATOM     28  H   UNL     1      -4.664   6.668 127.823  0.00  0.00    +0.000 HD
ENDBRANCH  26  27
ENDBRANCH  17  26
BRANCH  19  29
ATOM     29  C   UNL     1      -8.381   1.548 126.770  0.00  0.00    +0.000 C 
BRANCH  29  30
ATOM     30  O   UNL     1      -9.476   1.439 125.853  0.00  0.00    +0.000 OA
ATOM     31  H   UNL     1      -9.258   0.779 125.177  0.00  0.00    +0.000 HD
ENDBRANCH  29  30
ENDBRANCH  19  29
ENDBRANCH   1  19
TORSDOF 13
ENDMDL
