MODEL 1
REMARK VINA RESULT:      -7.1      0.000      0.000
REMARK  Name = Sufentanil
REMARK  10 active torsions:
REMARK  status: ('A' for Active; 'I' for Inactive)
REMARK    1  A    between atoms: C_1  and  C_2
REMARK    2  A    between atoms: C_2  and  C_3
REMARK    3  A    between atoms: N_5  and  C_6
REMARK    4  A    between atoms: N_5  and  C_12
REMARK    5  A    between atoms: C_12  and  C_13
REMARK    6  A    between atoms: C_13  and  O_14
REMARK    7  A    between atoms: O_14  and  C_15
REMARK    8  A    between atoms: N_18  and  C_19
REMARK    9  A    between atoms: C_19  and  C_20
REMARK   10  A    between atoms: C_20  and  C_21
REMARK                            x       y       z     vdW  Elec       q    Type
REMARK                         _______ _______ _______ _____ _____    ______ ____
ROOT
ATOM      1  C   UNL     1      -8.248   1.252 125.976  0.00  0.00    +0.000 C 
ATOM      2  C   UNL     1      -9.633   1.424 125.279  0.00  0.00    +0.000 C 
ATOM      3  C   UNL     1      -9.510   1.947 123.864  0.00  0.00    +0.000 C 
ATOM      4  N   UNL     1      -8.565   3.039 123.627  0.00  0.00    +0.000 NA
ATOM      5  C   UNL     1      -7.269   2.828 124.297  0.00  0.00    +0.000 C 
ATOM      6  C   UNL     1      -7.461   2.566 125.762  0.00  0.00    +0.000 C 
ENDROOT
BRANCH   1   9
ATOM      7  C   UNL     1      -6.054  -0.040 125.994  0.00  0.00    +0.000 C 
ATOM      8  O   UNL     1      -5.556   0.826 126.689  0.00  0.00    +0.000 OA
ATOM      9  N   UNL     1      -7.387   0.019 125.522  0.00  0.00    +0.000 N 
BRANCH   9  10
ATOM     10  C   UNL     1      -7.953  -1.086 124.770  0.00  0.00    +0.000 A 
ATOM     11  C   UNL     1      -7.784  -1.264 123.397  0.00  0.00    +0.000 A 
ATOM     12  C   UNL     1      -8.677  -2.035 122.645  0.00  0.00    +0.000 A 
ATOM     13  C   UNL     1      -9.363  -3.042 123.284  0.00  0.00    +0.000 A 
ATOM     14  C   UNL     1      -9.275  -3.125 124.668  0.00  0.00    +0.000 A 
ATOM     15  C   UNL     1      -8.676  -2.092 125.401  0.00  0.00    +0.000 A 
ENDBRANCH   9  10
BRANCH   7  17
ATOM     16  C   UNL     1      -5.215  -2.329 126.613  0.00  0.00    +0.000 C 
ATOM     17  C   UNL     1      -5.204  -1.233 125.566  0.00  0.00    +0.000 C 
ENDBRANCH   7  17
ENDBRANCH   1   9
BRANCH   1  18
ATOM     18  C   UNL     1      -8.567   1.192 127.515  0.00  0.00    +0.000 C 
BRANCH  18  19
ATOM     19  O   UNL     1      -8.121   2.396 128.168  0.00  0.00    +0.000 OA
ATOM     20  C   UNL     1      -8.894   2.698 129.315  0.00  0.00    +0.000 C 
ENDBRANCH  18  19
ENDBRANCH   1  18
BRANCH   4  21
ATOM     21  C   UNL     1      -8.320   3.169 122.180  0.00  0.00    +0.000 C 
BRANCH  21  22
ATOM     22  C   UNL     1      -6.831   3.026 121.870  0.00  0.00    +0.000 C 
BRANCH  22  23
ATOM     23  C   UNL     1      -6.386   3.928 120.770  0.00  0.00    +0.000 A 
ATOM     24  C   UNL     1      -5.245   4.698 120.682  0.00  0.00    +0.000 A 
ATOM     25  C   UNL     1      -5.232   5.504 119.516  0.00  0.00    +0.000 A 
ATOM     26  C   UNL     1      -6.355   5.310 118.745  0.00  0.00    +0.000 A 
ATOM     27  S   UNL     1      -7.414   4.155 119.422  0.00  0.00    +0.000 S 
ENDBRANCH  22  23
ENDBRANCH  21  22
ENDBRANCH   4  21
TORSDOF 8
ENDMDL
MODEL 2
REMARK VINA RESULT:      -6.9      3.366      6.869
REMARK  Name = Sufentanil
REMARK  10 active torsions:
REMARK  status: ('A' for Active; 'I' for Inactive)
REMARK    1  A    between atoms: C_1  and  C_2
REMARK    2  A    between atoms: C_2  and  C_3
REMARK    3  A    between atoms: N_5  and  C_6
REMARK    4  A    between atoms: N_5  and  C_12
REMARK    5  A    between atoms: C_12  and  C_13
REMARK    6  A    between atoms: C_13  and  O_14
REMARK    7  A    between atoms: O_14  and  C_15
REMARK    8  A    between atoms: N_18  and  C_19
REMARK    9  A    between atoms: C_19  and  C_20
REMARK   10  A    between atoms: C_20  and  C_21
REMARK                            x       y       z     vdW  Elec       q    Type
REMARK                         _______ _______ _______ _____ _____    ______ ____
ROOT
ATOM      1  C   UNL     1      -7.716   0.836 124.359  0.00  0.00    +0.000 C 
ATOM      2  C   UNL     1      -6.340   1.280 124.944  0.00  0.00    +0.000 C 
ATOM      3  C   UNL     1      -6.128   0.794 126.362  0.00  0.00    +0.000 C 
ATOM      4  N   UNL     1      -7.255   0.907 127.290  0.00  0.00    +0.000 NA
ATOM      5  C   UNL     1      -8.531   0.467 126.696  0.00  0.00    +0.000 C 
ATOM      6  C   UNL     1      -8.796   1.189 125.407  0.00  0.00    +0.000 C 
ENDROOT
BRANCH   1   9
ATOM      7  C   UNL     1      -9.080  -1.085 123.392  0.00  0.00    +0.000 C 
ATOM      8  O   UNL     1     -10.038  -0.342 123.284  0.00  0.00    +0.000 OA
ATOM      9  N   UNL     1      -7.839  -0.671 123.933  0.00  0.00    +0.000 N 
BRANCH   9  10
ATOM     10  C   UNL     1      -6.705  -1.578 123.956  0.00  0.00    +0.000 A 
ATOM     11  C   UNL     1      -5.870  -1.811 122.863  0.00  0.00    +0.000 A 
ATOM     12  C   UNL     1      -5.105  -2.978 122.764  0.00  0.00    +0.000 A 
ATOM     13  C   UNL     1      -4.736  -3.613 123.928  0.00  0.00    +0.000 A 
ATOM     14  C   UNL     1      -5.288  -3.173 125.124  0.00  0.00    +0.000 A 
ATOM     15  C   UNL     1      -6.343  -2.250 125.117  0.00  0.00    +0.000 A 
ENDBRANCH   9  10
BRANCH   7  17
ATOM     16  C   UNL     1      -9.543  -3.438 124.151  0.00  0.00    +0.000 C 
ATOM     17  C   UNL     1      -9.217  -2.545 122.970  0.00  0.00    +0.000 C 
ENDBRANCH   7  17
ENDBRANCH   1   9
BRANCH   1  18
ATOM     18  C   UNL     1      -7.973   1.797 123.140  0.00  0.00    +0.000 C 
BRANCH  18  19
ATOM     19  O   UNL     1      -6.723   2.270 122.602  0.00  0.00    +0.000 OA
ATOM     20  C   UNL     1      -6.892   3.419 121.792  0.00  0.00    +0.000 C 
ENDBRANCH  18  19
ENDBRANCH   1  18
BRANCH   4  21
ATOM     21  C   UNL     1      -6.993   0.079 128.481  0.00  0.00    +0.000 C 
BRANCH  21  22
ATOM     22  C   UNL     1      -7.639  -1.297 128.334  0.00  0.00    +0.000 C 
BRANCH  22  23
ATOM     23  C   UNL     1      -6.826  -2.381 128.958  0.00  0.00    +0.000 A 
ATOM     24  C   UNL     1      -7.245  -3.480 129.678  0.00  0.00    +0.000 A 
ATOM     25  C   UNL     1      -6.157  -4.226 130.196  0.00  0.00    +0.000 A 
ATOM     26  C   UNL     1      -4.945  -3.681 129.841  0.00  0.00    +0.000 A 
ATOM     27  S   UNL     1      -5.120  -2.281 128.880  0.00  0.00    +0.000 S 
ENDBRANCH  22  23
ENDBRANCH  21  22
ENDBRANCH   4  21
TORSDOF 8
ENDMDL
MODEL 3
REMARK VINA RESULT:      -6.9      3.694      5.304
REMARK  Name = Sufentanil
REMARK  10 active torsions:
REMARK  status: ('A' for Active; 'I' for Inactive)
REMARK    1  A    between atoms: C_1  and  C_2
REMARK    2  A    between atoms: C_2  and  C_3
REMARK    3  A    between atoms: N_5  and  C_6
REMARK    4  A    between atoms: N_5  and  C_12
REMARK    5  A    between atoms: C_12  and  C_13
REMARK    6  A    between atoms: C_13  and  O_14
REMARK    7  A    between atoms: O_14  and  C_15
REMARK    8  A    between atoms: N_18  and  C_19
REMARK    9  A    between atoms: C_19  and  C_20
REMARK   10  A    between atoms: C_20  and  C_21
REMARK                            x       y       z     vdW  Elec       q    Type
REMARK                         _______ _______ _______ _____ _____    ______ ____
ROOT
ATOM      1  C   UNL     1      -7.969  -0.731 124.365  0.00  0.00    +0.000 C 
ATOM      2  C   UNL     1      -7.172   0.500 123.832  0.00  0.00    +0.000 C 
ATOM      3  C   UNL     1      -6.582   1.336 124.947  0.00  0.00    +0.000 C 
ATOM      4  N   UNL     1      -7.429   1.610 126.108  0.00  0.00    +0.000 NA
ATOM      5  C   UNL     1      -8.153   0.416 126.581  0.00  0.00    +0.000 C 
ATOM      6  C   UNL     1      -8.929  -0.217 125.462  0.00  0.00    +0.000 C 
ENDROOT
BRANCH   1   9
ATOM      7  C   UNL     1      -6.050  -2.381 124.087  0.00  0.00    +0.000 C 
ATOM      8  O   UNL     1      -5.806  -1.904 122.994  0.00  0.00    +0.000 OA
ATOM      9  N   UNL     1      -7.114  -1.933 124.906  0.00  0.00    +0.000 N 
BRANCH   9  10
ATOM     10  C   UNL     1      -7.301  -2.480 126.237  0.00  0.00    +0.000 A 
ATOM     11  C   UNL     1      -8.301  -3.393 126.574  0.00  0.00    +0.000 A 
ATOM     12  C   UNL     1      -8.738  -3.544 127.894  0.00  0.00    +0.000 A 
ATOM     13  C   UNL     1      -7.857  -3.244 128.907  0.00  0.00    +0.000 A 
ATOM     14  C   UNL     1      -6.652  -2.637 128.577  0.00  0.00    +0.000 A 
ATOM     15  C   UNL     1      -6.436  -2.158 127.277  0.00  0.00    +0.000 A 
ENDBRANCH   9  10
BRANCH   7  17
ATOM     16  C   UNL     1      -4.346  -4.134 123.496  0.00  0.00    +0.000 C 
ATOM     17  C   UNL     1      -5.205  -3.546 124.597  0.00  0.00    +0.000 C 
ENDBRANCH   7  17
ENDBRANCH   1   9
BRANCH   1  18
ATOM     18  C   UNL     1      -8.888  -1.176 123.168  0.00  0.00    +0.000 C 
BRANCH  18  19
ATOM     19  O   UNL     1      -9.873  -2.126 123.618  0.00  0.00    +0.000 OA
ATOM     20  C   UNL     1      -9.614  -3.431 123.135  0.00  0.00    +0.000 C 
ENDBRANCH  18  19
ENDBRANCH   1  18
BRANCH   4  21
ATOM     21  C   UNL     1      -6.596   2.111 127.215  0.00  0.00    +0.000 C 
BRANCH  21  22
ATOM     22  C   UNL     1      -5.130   1.742 126.997  0.00  0.00    +0.000 C 
BRANCH  22  23
ATOM     23  C   UNL     1      -4.216   2.910 127.146  0.00  0.00    +0.000 A 
ATOM     24  C   UNL     1      -2.838   2.951 127.100  0.00  0.00    +0.000 A 
ATOM     25  C   UNL     1      -2.332   4.243 127.392  0.00  0.00    +0.000 A 
ATOM     26  C   UNL     1      -3.339   5.147 127.635  0.00  0.00    +0.000 A 
ATOM     27  S   UNL     1      -4.888   4.443 127.502  0.00  0.00    +0.000 S 
ENDBRANCH  22  23
ENDBRANCH  21  22
ENDBRANCH   4  21
TORSDOF 8
ENDMDL
MODEL 4
REMARK VINA RESULT:      -6.7      4.012      7.644
REMARK  Name = Sufentanil
REMARK  10 active torsions:
REMARK  status: ('A' for Active; 'I' for Inactive)
REMARK    1  A    between atoms: C_1  and  C_2
REMARK    2  A    between atoms: C_2  and  C_3
REMARK    3  A    between atoms: N_5  and  C_6
REMARK    4  A    between atoms: N_5  and  C_12
REMARK    5  A    between atoms: C_12  and  C_13
REMARK    6  A    between atoms: C_13  and  O_14
REMARK    7  A    between atoms: O_14  and  C_15
REMARK    8  A    between atoms: N_18  and  C_19
REMARK    9  A    between atoms: C_19  and  C_20
REMARK   10  A    between atoms: C_20  and  C_21
REMARK                            x       y       z     vdW  Elec       q    Type
REMARK                         _______ _______ _______ _____ _____    ______ ____
ROOT
ATOM      1  C   UNL     1      -6.776   0.898 126.382  0.00  0.00    +0.000 C 
ATOM      2  C   UNL     1      -5.815  -0.276 126.746  0.00  0.00    +0.000 C 
ATOM      3  C   UNL     1      -6.353  -1.142 127.864  0.00  0.00    +0.000 C 
ATOM      4  N   UNL     1      -6.955  -0.464 129.013  0.00  0.00    +0.000 NA
ATOM      5  C   UNL     1      -7.862   0.630 128.620  0.00  0.00    +0.000 C 
ATOM      6  C   UNL     1      -7.168   1.596 127.704  0.00  0.00    +0.000 C 
ENDROOT
BRANCH   1   9
ATOM      7  C   UNL     1      -8.914   1.580 125.179  0.00  0.00    +0.000 C 
ATOM      8  O   UNL     1      -8.710   2.740 125.489  0.00  0.00    +0.000 OA
ATOM      9  N   UNL     1      -8.060   0.518 125.562  0.00  0.00    +0.000 N 
BRANCH   9  10
ATOM     10  C   UNL     1      -8.307  -0.832 125.089  0.00  0.00    +0.000 A 
ATOM     11  C   UNL     1      -7.769  -1.359 123.914  0.00  0.00    +0.000 A 
ATOM     12  C   UNL     1      -8.360  -2.447 123.263  0.00  0.00    +0.000 A 
ATOM     13  C   UNL     1      -9.096  -3.332 124.017  0.00  0.00    +0.000 A 
ATOM     14  C   UNL     1      -9.366  -3.008 125.340  0.00  0.00    +0.000 A 
ATOM     15  C   UNL     1      -9.076  -1.725 125.826  0.00  0.00    +0.000 A 
ENDBRANCH   9  10
BRANCH   7  17
ATOM     16  C   UNL     1      -9.954   1.445 122.893  0.00  0.00    +0.000 C 
ATOM     17  C   UNL     1     -10.165   1.231 124.379  0.00  0.00    +0.000 C 
ENDBRANCH   7  17
ENDBRANCH   1   9
BRANCH   1  18
ATOM     18  C   UNL     1      -5.883   1.932 125.601  0.00  0.00    +0.000 C 
BRANCH  18  19
ATOM     19  O   UNL     1      -4.572   2.009 126.192  0.00  0.00    +0.000 OA
ATOM     20  C   UNL     1      -4.073   3.334 126.211  0.00  0.00    +0.000 C 
ENDBRANCH  18  19
ENDBRANCH   1  18
BRANCH   4  21
ATOM     21  C   UNL     1      -7.726  -1.438 129.807  0.00  0.00    +0.000 C 
BRANCH  21  22
ATOM     22  C   UNL     1      -7.327  -2.867 129.443  0.00  0.00    +0.000 C 
BRANCH  22  23
ATOM     23  C   UNL     1      -6.607  -3.560 130.549  0.00  0.00    +0.000 A 
ATOM     24  C   UNL     1      -5.757  -4.645 130.491  0.00  0.00    +0.000 A 
ATOM     25  C   UNL     1      -5.352  -5.076 131.779  0.00  0.00    +0.000 A 
ATOM     26  C   UNL     1      -5.892  -4.297 132.776  0.00  0.00    +0.000 A 
ATOM     27  S   UNL     1      -6.876  -3.045 132.159  0.00  0.00    +0.000 S 
ENDBRANCH  22  23
ENDBRANCH  21  22
ENDBRANCH   4  21
TORSDOF 8
ENDMDL
MODEL 5
REMARK VINA RESULT:      -6.7      6.280      8.983
REMARK  Name = Sufentanil
REMARK  10 active torsions:
REMARK  status: ('A' for Active; 'I' for Inactive)
REMARK    1  A    between atoms: C_1  and  C_2
REMARK    2  A    between atoms: C_2  and  C_3
REMARK    3  A    between atoms: N_5  and  C_6
REMARK    4  A    between atoms: N_5  and  C_12
REMARK    5  A    between atoms: C_12  and  C_13
REMARK    6  A    between atoms: C_13  and  O_14
REMARK    7  A    between atoms: O_14  and  C_15
REMARK    8  A    between atoms: N_18  and  C_19
REMARK    9  A    between atoms: C_19  and  C_20
REMARK   10  A    between atoms: C_20  and  C_21
REMARK                            x       y       z     vdW  Elec       q    Type
REMARK                         _______ _______ _______ _____ _____    ______ ____
ROOT
ATOM      1  C   UNL     1      -7.371   5.715 131.825  0.00  0.00    +0.000 C 
ATOM      2  C   UNL     1      -8.168   5.647 133.164  0.00  0.00    +0.000 C 
ATOM      3  C   UNL     1      -9.666   5.639 132.948  0.00  0.00    +0.000 C 
ATOM      4  N   UNL     1     -10.211   6.567 131.957  0.00  0.00    +0.000 NA
ATOM      5  C   UNL     1      -9.431   6.589 130.706  0.00  0.00    +0.000 C 
ATOM      6  C   UNL     1      -7.981   6.860 130.985  0.00  0.00    +0.000 C 
ENDROOT
BRANCH   1   9
ATOM      7  C   UNL     1      -6.587   4.437 129.766  0.00  0.00    +0.000 C 
ATOM      8  O   UNL     1      -6.057   5.449 129.347  0.00  0.00    +0.000 OA
ATOM      9  N   UNL     1      -7.311   4.391 130.982  0.00  0.00    +0.000 N 
BRANCH   9  10
ATOM     10  C   UNL     1      -7.847   3.134 131.473  0.00  0.00    +0.000 A 
ATOM     11  C   UNL     1      -7.150   2.261 132.309  0.00  0.00    +0.000 A 
ATOM     12  C   UNL     1      -7.483   0.905 132.391  0.00  0.00    +0.000 A 
ATOM     13  C   UNL     1      -8.779   0.538 132.114  0.00  0.00    +0.000 A 
ATOM     14  C   UNL     1      -9.641   1.495 131.595  0.00  0.00    +0.000 A 
ATOM     15  C   UNL     1      -9.145   2.737 131.173  0.00  0.00    +0.000 A 
ENDBRANCH   9  10
BRANCH   7  17
ATOM     16  C   UNL     1      -7.448   3.218 127.741  0.00  0.00    +0.000 C 
ATOM     17  C   UNL     1      -6.516   3.159 128.935  0.00  0.00    +0.000 C 
ENDBRANCH   7  17
ENDBRANCH   1   9
BRANCH   1  18
ATOM     18  C   UNL     1      -5.930   6.201 132.228  0.00  0.00    +0.000 C 
BRANCH  18  19
ATOM     19  O   UNL     1      -5.439   5.439 133.347  0.00  0.00    +0.000 OA
ATOM     20  C   UNL     1      -4.317   4.647 133.001  0.00  0.00    +0.000 C 
ENDBRANCH  18  19
ENDBRANCH   1  18
BRANCH   4  21
ATOM     21  C   UNL     1     -11.594   6.178 131.630  0.00  0.00    +0.000 C 
BRANCH  21  22
ATOM     22  C   UNL     1     -12.468   7.415 131.423  0.00  0.00    +0.000 C 
BRANCH  22  23
ATOM     23  C   UNL     1     -12.858   7.608 129.997  0.00  0.00    +0.000 A 
ATOM     24  C   UNL     1     -13.167   6.662 129.042  0.00  0.00    +0.000 A 
ATOM     25  C   UNL     1     -13.387   7.241 127.768  0.00  0.00    +0.000 A 
ATOM     26  C   UNL     1     -13.255   8.610 127.795  0.00  0.00    +0.000 A 
ATOM     27  S   UNL     1     -12.876   9.193 129.354  0.00  0.00    +0.000 S 
ENDBRANCH  22  23
ENDBRANCH  21  22
ENDBRANCH   4  21
TORSDOF 8
ENDMDL
MODEL 6
REMARK VINA RESULT:      -6.6      3.634      4.826
REMARK  Name = Sufentanil
REMARK  10 active torsions:
REMARK  status: ('A' for Active; 'I' for Inactive)
REMARK    1  A    between atoms: C_1  and  C_2
REMARK    2  A    between atoms: C_2  and  C_3
REMARK    3  A    between atoms: N_5  and  C_6
REMARK    4  A    between atoms: N_5  and  C_12
REMARK    5  A    between atoms: C_12  and  C_13
REMARK    6  A    between atoms: C_13  and  O_14
REMARK    7  A    between atoms: O_14  and  C_15
REMARK    8  A    between atoms: N_18  and  C_19
REMARK    9  A    between atoms: C_19  and  C_20
REMARK   10  A    between atoms: C_20  and  C_21
REMARK                            x       y       z     vdW  Elec       q    Type
REMARK                         _______ _______ _______ _____ _____    ______ ____
ROOT
ATOM      1  C   UNL     1      -6.573   0.277 129.584  0.00  0.00    +0.000 C 
ATOM      2  C   UNL     1      -8.049   0.668 129.259  0.00  0.00    +0.000 C 
ATOM      3  C   UNL     1      -8.248   1.020 127.800  0.00  0.00    +0.000 C 
ATOM      4  N   UNL     1      -7.236   1.864 127.165  0.00  0.00    +0.000 NA
ATOM      5  C   UNL     1      -5.859   1.451 127.493  0.00  0.00    +0.000 C 
ATOM      6  C   UNL     1      -5.665   1.372 128.980  0.00  0.00    +0.000 C 
ENDROOT
BRANCH   1   9
ATOM      7  C   UNL     1      -4.785  -1.528 129.430  0.00  0.00    +0.000 C 
ATOM      8  O   UNL     1      -4.006  -0.798 130.015  0.00  0.00    +0.000 OA
ATOM      9  N   UNL     1      -6.108  -1.145 129.106  0.00  0.00    +0.000 N 
BRANCH   9  10
ATOM     10  C   UNL     1      -7.018  -2.090 128.485  0.00  0.00    +0.000 A 
ATOM     11  C   UNL     1      -7.096  -2.312 127.110  0.00  0.00    +0.000 A 
ATOM     12  C   UNL     1      -8.242  -2.855 126.521  0.00  0.00    +0.000 A 
ATOM     13  C   UNL     1      -9.044  -3.667 127.289  0.00  0.00    +0.000 A 
ATOM     14  C   UNL     1      -8.779  -3.761 128.649  0.00  0.00    +0.000 A 
ATOM     15  C   UNL     1      -7.856  -2.893 129.250  0.00  0.00    +0.000 A 
ENDBRANCH   9  10
BRANCH   7  17
ATOM     16  C   UNL     1      -4.254  -3.883 130.136  0.00  0.00    +0.000 C 
ATOM     17  C   UNL     1      -4.315  -2.908 128.977  0.00  0.00    +0.000 C 
ENDBRANCH   7  17
ENDBRANCH   1   9
BRANCH   1  18
ATOM     18  C   UNL     1      -6.443   0.428 131.145  0.00  0.00    +0.000 C 
BRANCH  18  19
ATOM     19  O   UNL     1      -7.366  -0.454 131.812  0.00  0.00    +0.000 OA
ATOM     20  C   UNL     1      -6.709  -1.344 132.696  0.00  0.00    +0.000 C 
ENDBRANCH  18  19
ENDBRANCH   1  18
BRANCH   4  21
ATOM     21  C   UNL     1      -7.397   1.805 125.702  0.00  0.00    +0.000 C 
BRANCH  21  22
ATOM     22  C   UNL     1      -6.397   0.827 125.087  0.00  0.00    +0.000 C 
BRANCH  22  23
ATOM     23  C   UNL     1      -7.052  -0.196 124.223  0.00  0.00    +0.000 A 
ATOM     24  C   UNL     1      -6.484  -1.244 123.529  0.00  0.00    +0.000 A 
ATOM     25  C   UNL     1      -7.433  -1.935 122.734  0.00  0.00    +0.000 A 
ATOM     26  C   UNL     1      -8.694  -1.403 122.860  0.00  0.00    +0.000 A 
ATOM     27  S   UNL     1      -8.736  -0.081 123.940  0.00  0.00    +0.000 S 
ENDBRANCH  22  23
ENDBRANCH  21  22
ENDBRANCH   4  21
TORSDOF 8
ENDMDL
MODEL 7
REMARK VINA RESULT:      -6.5      4.589      5.785
REMARK  Name = Sufentanil
REMARK  10 active torsions:
REMARK  status: ('A' for Active; 'I' for Inactive)
REMARK    1  A    between atoms: C_1  and  C_2
REMARK    2  A    between atoms: C_2  and  C_3
REMARK    3  A    between atoms: N_5  and  C_6
REMARK    4  A    between atoms: N_5  and  C_12
REMARK    5  A    between atoms: C_12  and  C_13
REMARK    6  A    between atoms: C_13  and  O_14
REMARK    7  A    between atoms: O_14  and  C_15
REMARK    8  A    between atoms: N_18  and  C_19
REMARK    9  A    between atoms: C_19  and  C_20
REMARK   10  A    between atoms: C_20  and  C_21
REMARK                            x       y       z     vdW  Elec       q    Type
REMARK                         _______ _______ _______ _____ _____    ______ ____
ROOT
ATOM      1  C   UNL     1      -6.689  -0.507 130.616  0.00  0.00    +0.000 C 
ATOM      2  C   UNL     1      -7.930   0.213 130.004  0.00  0.00    +0.000 C 
ATOM      3  C   UNL     1      -7.655   0.776 128.627  0.00  0.00    +0.000 C 
ATOM      4  N   UNL     1      -6.382   1.469 128.423  0.00  0.00    +0.000 NA
ATOM      5  C   UNL     1      -5.238   0.747 129.009  0.00  0.00    +0.000 C 
ATOM      6  C   UNL     1      -5.482   0.446 130.460  0.00  0.00    +0.000 C 
ENDROOT
BRANCH   1   9
ATOM      7  C   UNL     1      -5.307  -2.646 130.665  0.00  0.00    +0.000 C 
ATOM      8  O   UNL     1      -4.664  -2.202 131.599  0.00  0.00    +0.000 OA
ATOM      9  N   UNL     1      -6.346  -1.924 130.030  0.00  0.00    +0.000 N 
BRANCH   9  10
ATOM     10  C   UNL     1      -7.135  -2.540 128.979  0.00  0.00    +0.000 A 
ATOM     11  C   UNL     1      -6.839  -2.439 127.619  0.00  0.00    +0.000 A 
ATOM     12  C   UNL     1      -7.821  -2.634 126.641  0.00  0.00    +0.000 A 
ATOM     13  C   UNL     1      -8.890  -3.444 126.948  0.00  0.00    +0.000 A 
ATOM     14  C   UNL     1      -9.036  -3.877 128.260  0.00  0.00    +0.000 A 
ATOM     15  C   UNL     1      -8.237  -3.333 129.275  0.00  0.00    +0.000 A 
ENDBRANCH   9  10
BRANCH   7  17
ATOM     16  C   UNL     1      -5.460  -5.131 131.022  0.00  0.00    +0.000 C 
ATOM     17  C   UNL     1      -4.962  -4.025 130.112  0.00  0.00    +0.000 C 
ENDBRANCH   7  17
ENDBRANCH   1   9
BRANCH   1  18
ATOM     18  C   UNL     1      -6.977  -0.581 132.161  0.00  0.00    +0.000 C 
BRANCH  18  19
ATOM     19  O   UNL     1      -8.108  -1.435 132.419  0.00  0.00    +0.000 OA
ATOM     20  C   UNL     1      -7.830  -2.401 133.417  0.00  0.00    +0.000 C 
ENDBRANCH  18  19
ENDBRANCH   1  18
BRANCH   4  21
ATOM     21  C   UNL     1      -6.136   1.626 126.979  0.00  0.00    +0.000 C 
BRANCH  21  22
ATOM     22  C   UNL     1      -5.901   3.095 126.628  0.00  0.00    +0.000 C 
BRANCH  22  23
ATOM     23  C   UNL     1      -4.494   3.523 126.871  0.00  0.00    +0.000 A 
ATOM     24  C   UNL     1      -3.318   2.863 126.578  0.00  0.00    +0.000 A 
ATOM     25  C   UNL     1      -2.181   3.557 127.062  0.00  0.00    +0.000 A 
ATOM     26  C   UNL     1      -2.524   4.730 127.692  0.00  0.00    +0.000 A 
ATOM     27  S   UNL     1      -4.210   4.997 127.692  0.00  0.00    +0.000 S 
ENDBRANCH  22  23
ENDBRANCH  21  22
ENDBRANCH   4  21
TORSDOF 8
ENDMDL
MODEL 8
REMARK VINA RESULT:      -6.4      7.110      9.339
REMARK  Name = Sufentanil
REMARK  10 active torsions:
REMARK  status: ('A' for Active; 'I' for Inactive)
REMARK    1  A    between atoms: C_1  and  C_2
REMARK    2  A    between atoms: C_2  and  C_3
REMARK    3  A    between atoms: N_5  and  C_6
REMARK    4  A    between atoms: N_5  and  C_12
REMARK    5  A    between atoms: C_12  and  C_13
REMARK    6  A    between atoms: C_13  and  O_14
REMARK    7  A    between atoms: O_14  and  C_15
REMARK    8  A    between atoms: N_18  and  C_19
REMARK    9  A    between atoms: C_19  and  C_20
REMARK   10  A    between atoms: C_20  and  C_21
REMARK                            x       y       z     vdW  Elec       q    Type
REMARK                         _______ _______ _______ _____ _____    ______ ____
ROOT
ATOM      1  C   UNL     1      -8.276   4.574 130.374  0.00  0.00    +0.000 C 
ATOM      2  C   UNL     1      -8.149   6.065 130.817  0.00  0.00    +0.000 C 
ATOM      3  C   UNL     1      -9.415   6.591 131.457  0.00  0.00    +0.000 C 
ATOM      4  N   UNL     1     -10.687   6.247 130.819  0.00  0.00    +0.000 NA
ATOM      5  C   UNL     1     -10.765   4.828 130.428  0.00  0.00    +0.000 C 
ATOM      6  C   UNL     1      -9.592   4.445 129.573  0.00  0.00    +0.000 C 
ENDROOT
BRANCH   1   9
ATOM      7  C   UNL     1      -8.525   2.165 131.159  0.00  0.00    +0.000 C 
ATOM      8  O   UNL     1      -8.848   1.837 130.032  0.00  0.00    +0.000 OA
ATOM      9  N   UNL     1      -8.225   3.501 131.519  0.00  0.00    +0.000 N 
BRANCH   9  10
ATOM     10  C   UNL     1      -7.761   3.817 132.858  0.00  0.00    +0.000 A 
ATOM     11  C   UNL     1      -8.606   4.071 133.938  0.00  0.00    +0.000 A 
ATOM     12  C   UNL     1      -8.170   4.797 135.052  0.00  0.00    +0.000 A 
ATOM     13  C   UNL     1      -6.827   4.779 135.352  0.00  0.00    +0.000 A 
ATOM     14  C   UNL     1      -5.954   4.200 134.441  0.00  0.00    +0.000 A 
ATOM     15  C   UNL     1      -6.405   3.835 133.165  0.00  0.00    +0.000 A 
ENDBRANCH   9  10
BRANCH   7  17
ATOM     16  C   UNL     1      -8.864  -0.261 131.731  0.00  0.00    +0.000 C 
ATOM     17  C   UNL     1      -8.477   1.107 132.258  0.00  0.00    +0.000 C 
ENDBRANCH   7  17
ENDBRANCH   1   9
BRANCH   1  18
ATOM     18  C   UNL     1      -7.118   4.355 129.332  0.00  0.00    +0.000 C 
BRANCH  18  19
ATOM     19  O   UNL     1      -6.151   5.418 129.426  0.00  0.00    +0.000 OA
ATOM     20  C   UNL     1      -4.895   5.044 128.890  0.00  0.00    +0.000 C 
ENDBRANCH  18  19
ENDBRANCH   1  18
BRANCH   4  21
ATOM     21  C   UNL     1     -11.793   6.529 131.751  0.00  0.00    +0.000 C 
BRANCH  21  22
ATOM     22  C   UNL     1     -12.846   7.415 131.086  0.00  0.00    +0.000 C 
BRANCH  22  23
ATOM     23  C   UNL     1     -12.685   7.483 129.606  0.00  0.00    +0.000 A 
ATOM     24  C   UNL     1     -13.361   6.791 128.622  0.00  0.00    +0.000 A 
ATOM     25  C   UNL     1     -12.845   7.058 127.330  0.00  0.00    +0.000 A 
ATOM     26  C   UNL     1     -11.805   7.957 127.367  0.00  0.00    +0.000 A 
ATOM     27  S   UNL     1     -11.459   8.482 128.954  0.00  0.00    +0.000 S 
ENDBRANCH  22  23
ENDBRANCH  21  22
ENDBRANCH   4  21
TORSDOF 8
ENDMDL
MODEL 9
REMARK VINA RESULT:      -6.3      3.093      6.448
REMARK  Name = Sufentanil
REMARK  10 active torsions:
REMARK  status: ('A' for Active; 'I' for Inactive)
REMARK    1  A    between atoms: C_1  and  C_2
REMARK    2  A    between atoms: C_2  and  C_3
REMARK    3  A    between atoms: N_5  and  C_6
REMARK    4  A    between atoms: N_5  and  C_12
REMARK    5  A    between atoms: C_12  and  C_13
REMARK    6  A    between atoms: C_13  and  O_14
REMARK    7  A    between atoms: O_14  and  C_15
REMARK    8  A    between atoms: N_18  and  C_19
REMARK    9  A    between atoms: C_19  and  C_20
REMARK   10  A    between atoms: C_20  and  C_21
REMARK                            x       y       z     vdW  Elec       q    Type
REMARK                         _______ _______ _______ _____ _____    ______ ____
ROOT
ATOM      1  C   UNL     1      -7.096   3.037 128.378  0.00  0.00    +0.000 C 
ATOM      2  C   UNL     1      -6.229   2.178 129.349  0.00  0.00    +0.000 C 
ATOM      3  C   UNL     1      -5.898   0.814 128.780  0.00  0.00    +0.000 C 
ATOM      4  N   UNL     1      -6.974   0.084 128.109  0.00  0.00    +0.000 NA
ATOM      5  C   UNL     1      -7.759   0.934 127.195  0.00  0.00    +0.000 C 
ATOM      6  C   UNL     1      -8.273   2.152 127.908  0.00  0.00    +0.000 C 
ENDROOT
BRANCH   1   9
ATOM      7  C   UNL     1      -7.155   4.260 126.145  0.00  0.00    +0.000 C 
ATOM      8  O   UNL     1      -8.372   4.278 126.194  0.00  0.00    +0.000 OA
ATOM      9  N   UNL     1      -6.351   3.658 127.143  0.00  0.00    +0.000 N 
BRANCH   9  10
ATOM     10  C   UNL     1      -4.903   3.745 127.074  0.00  0.00    +0.000 A 
ATOM     11  C   UNL     1      -4.101   2.859 126.354  0.00  0.00    +0.000 A 
ATOM     12  C   UNL     1      -2.748   2.685 126.661  0.00  0.00    +0.000 A 
ATOM     13  C   UNL     1      -2.077   3.728 127.256  0.00  0.00    +0.000 A 
ATOM     14  C   UNL     1      -2.812   4.826 127.685  0.00  0.00    +0.000 A 
ATOM     15  C   UNL     1      -4.213   4.777 127.699  0.00  0.00    +0.000 A 
ENDBRANCH   9  10
BRANCH   7  17
ATOM     16  C   UNL     1      -6.411   3.909 123.768  0.00  0.00    +0.000 C 
ATOM     17  C   UNL     1      -6.448   4.871 124.939  0.00  0.00    +0.000 C 
ENDBRANCH   7  17
ENDBRANCH   1   9
BRANCH   1  18
ATOM     18  C   UNL     1      -7.737   4.155 129.281  0.00  0.00    +0.000 C 
BRANCH  18  19
ATOM     19  O   UNL     1      -9.165   3.979 129.359  0.00  0.00    +0.000 OA
ATOM     20  C   UNL     1      -9.803   5.075 129.989  0.00  0.00    +0.000 C 
ENDBRANCH  18  19
ENDBRANCH   1  18
BRANCH   4  21
ATOM     21  C   UNL     1      -6.399  -1.024 127.326  0.00  0.00    +0.000 C 
BRANCH  21  22
ATOM     22  C   UNL     1      -5.541  -0.487 126.181  0.00  0.00    +0.000 C 
BRANCH  22  23
ATOM     23  C   UNL     1      -5.774  -1.215 124.901  0.00  0.00    +0.000 A 
ATOM     24  C   UNL     1      -5.168  -2.359 124.426  0.00  0.00    +0.000 A 
ATOM     25  C   UNL     1      -5.592  -2.682 123.112  0.00  0.00    +0.000 A 
ATOM     26  C   UNL     1      -6.517  -1.784 122.635  0.00  0.00    +0.000 A 
ATOM     27  S   UNL     1      -6.881  -0.562 123.771  0.00  0.00    +0.000 S 
ENDBRANCH  22  23
ENDBRANCH  21  22
ENDBRANCH   4  21
TORSDOF 8
ENDMDL
