MODEL 1
REMARK VINA RESULT:      -5.5      0.000      0.000
REMARK  Name = Sulbactam
REMARK  4 active torsions:
REMARK  status: ('A' for Active; 'I' for Inactive)
REMARK    1  A    between atoms: C_7  and  C_9
REMARK    2  A    between atoms: C_9  and  O_10
REMARK    3  A    between atoms: C_12  and  C_13
REMARK    4  A    between atoms: C_12  and  C_14
REMARK                            x       y       z     vdW  Elec       q    Type
REMARK                         _______ _______ _______ _____ _____    ______ ____
ROOT
ATOM      1  C   UNL     1      -6.663  -0.927 123.856  0.00  0.00    +0.000 C 
ATOM      2  C   UNL     1      -6.468  -1.760 122.583  0.00  0.00    +0.000 C 
ATOM      3  C   UNL     1      -5.504  -2.614 123.427  0.00  0.00    +0.000 C 
ATOM      4  O   UNL     1      -4.972  -3.689 123.301  0.00  0.00    +0.000 OA
ATOM      5  N   UNL     1      -5.716  -1.848 124.540  0.00  0.00    +0.000 N 
ATOM      6  C   UNL     1      -6.137  -2.430 125.842  0.00  0.00    +0.000 C 
ATOM      7  C   UNL     1      -7.657  -2.688 125.709  0.00  0.00    +0.000 C 
ATOM      8  C   UNL     1      -8.454  -2.997 126.988  0.00  0.00    +0.000 C 
ATOM      9  C   UNL     1      -7.974  -3.923 124.831  0.00  0.00    +0.000 C 
ATOM     10  S   UNL     1      -8.152  -1.164 124.862  0.00  0.00    +0.000 S 
ATOM     11  O   UNL     1      -9.297  -1.418 124.013  0.00  0.00    +0.000 OA
ATOM     12  O   UNL     1      -8.206  -0.138 125.890  0.00  0.00    +0.000 OA
ENDROOT
BRANCH   6  13
ATOM     13  C   UNL     1      -5.580  -1.441 126.906  0.00  0.00    +0.000 C 
ATOM     14  O   UNL     1      -5.672  -1.666 128.108  0.00  0.00    +0.000 OA
BRANCH  13  15
ATOM     15  O   UNL     1      -5.048  -0.273 126.512  0.00  0.00    +0.000 OA
ATOM     16  H   UNL     1      -5.266   0.074 125.631  0.00  0.00    +0.000 HD
ENDBRANCH  13  15
ENDBRANCH   6  13
TORSDOF 2
ENDMDL
MODEL 2
REMARK VINA RESULT:      -5.4      2.378      4.125
REMARK  Name = Sulbactam
REMARK  4 active torsions:
REMARK  status: ('A' for Active; 'I' for Inactive)
REMARK    1  A    between atoms: C_7  and  C_9
REMARK    2  A    between atoms: C_9  and  O_10
REMARK    3  A    between atoms: C_12  and  C_13
REMARK    4  A    between atoms: C_12  and  C_14
REMARK                            x       y       z     vdW  Elec       q    Type
REMARK                         _______ _______ _______ _____ _____    ______ ____
ROOT
ATOM      1  C   UNL     1      -8.967  -2.018 124.178  0.00  0.00    +0.000 C 
ATOM      2  C   UNL     1      -7.809  -3.007 123.988  0.00  0.00    +0.000 C 
ATOM      3  C   UNL     1      -7.314  -2.037 122.899  0.00  0.00    +0.000 C 
ATOM      4  O   UNL     1      -6.289  -1.891 122.279  0.00  0.00    +0.000 OA
ATOM      5  N   UNL     1      -8.358  -1.181 123.111  0.00  0.00    +0.000 N 
ATOM      6  C   UNL     1      -8.162   0.266 123.395  0.00  0.00    +0.000 C 
ATOM      7  C   UNL     1      -7.771   0.345 124.890  0.00  0.00    +0.000 C 
ATOM      8  C   UNL     1      -7.801   1.722 125.574  0.00  0.00    +0.000 C 
ATOM      9  C   UNL     1      -6.312  -0.106 125.147  0.00  0.00    +0.000 C 
ATOM     10  S   UNL     1      -8.937  -0.863 125.574  0.00  0.00    +0.000 S 
ATOM     11  O   UNL     1      -8.364  -1.499 126.741  0.00  0.00    +0.000 OA
ATOM     12  O   UNL     1     -10.215  -0.176 125.658  0.00  0.00    +0.000 OA
ENDROOT
BRANCH   6  13
ATOM     13  C   UNL     1      -9.457   0.944 122.866  0.00  0.00    +0.000 C 
ATOM     14  O   UNL     1      -9.575   2.164 122.819  0.00  0.00    +0.000 OA
BRANCH  13  15
ATOM     15  O   UNL     1     -10.509   0.185 122.517  0.00  0.00    +0.000 OA
ATOM     16  H   UNL     1     -11.394   0.425 122.838  0.00  0.00    +0.000 HD
ENDBRANCH  13  15
ENDBRANCH   6  13
TORSDOF 2
ENDMDL
MODEL 3
REMARK VINA RESULT:      -5.4      1.939      3.882
REMARK  Name = Sulbactam
REMARK  4 active torsions:
REMARK  status: ('A' for Active; 'I' for Inactive)
REMARK    1  A    between atoms: C_7  and  C_9
REMARK    2  A    between atoms: C_9  and  O_10
REMARK    3  A    between atoms: C_12  and  C_13
REMARK    4  A    between atoms: C_12  and  C_14
REMARK                            x       y       z     vdW  Elec       q    Type
REMARK                         _______ _______ _______ _____ _____    ______ ____
ROOT
ATOM      1  C   UNL     1      -6.142  -1.209 124.954  0.00  0.00    +0.000 C 
ATOM      2  C   UNL     1      -5.762  -1.589 126.391  0.00  0.00    +0.000 C 
ATOM      3  C   UNL     1      -7.125  -0.993 126.787  0.00  0.00    +0.000 C 
ATOM      4  O   UNL     1      -7.820  -1.017 127.772  0.00  0.00    +0.000 OA
ATOM      5  N   UNL     1      -7.425  -0.681 125.490  0.00  0.00    +0.000 N 
ATOM      6  C   UNL     1      -8.683  -1.123 124.831  0.00  0.00    +0.000 C 
ATOM      7  C   UNL     1      -8.448  -2.602 124.439  0.00  0.00    +0.000 C 
ATOM      8  C   UNL     1      -9.441  -3.259 123.466  0.00  0.00    +0.000 C 
ATOM      9  C   UNL     1      -8.518  -3.556 125.657  0.00  0.00    +0.000 C 
ATOM     10  S   UNL     1      -6.748  -2.486 123.820  0.00  0.00    +0.000 S 
ATOM     11  O   UNL     1      -6.052  -3.734 124.050  0.00  0.00    +0.000 OA
ATOM     12  O   UNL     1      -6.851  -1.931 122.481  0.00  0.00    +0.000 OA
ENDROOT
BRANCH   6  13
ATOM     13  C   UNL     1      -8.956  -0.038 123.751  0.00  0.00    +0.000 C 
ATOM     14  O   UNL     1     -10.036   0.041 123.174  0.00  0.00    +0.000 OA
BRANCH  13  15
ATOM     15  O   UNL     1      -7.968   0.790 123.378  0.00  0.00    +0.000 OA
ATOM     16  H   UNL     1      -7.474   0.603 122.562  0.00  0.00    +0.000 HD
ENDBRANCH  13  15
ENDBRANCH   6  13
TORSDOF 2
ENDMDL
MODEL 4
REMARK VINA RESULT:      -5.3     10.642     11.886
REMARK  Name = Sulbactam
REMARK  4 active torsions:
REMARK  status: ('A' for Active; 'I' for Inactive)
REMARK    1  A    between atoms: C_7  and  C_9
REMARK    2  A    between atoms: C_9  and  O_10
REMARK    3  A    between atoms: C_12  and  C_13
REMARK    4  A    between atoms: C_12  and  C_14
REMARK                            x       y       z     vdW  Elec       q    Type
REMARK                         _______ _______ _______ _____ _____    ______ ____
ROOT
ATOM      1  C   UNL     1     -12.783   6.660 128.328  0.00  0.00    +0.000 C 
ATOM      2  C   UNL     1     -13.257   7.671 127.276  0.00  0.00    +0.000 C 
ATOM      3  C   UNL     1     -13.346   8.669 128.445  0.00  0.00    +0.000 C 
ATOM      4  O   UNL     1     -13.467   9.865 128.547  0.00  0.00    +0.000 OA
ATOM      5  N   UNL     1     -12.910   7.737 129.345  0.00  0.00    +0.000 N 
ATOM      6  C   UNL     1     -11.753   7.975 130.248  0.00  0.00    +0.000 C 
ATOM      7  C   UNL     1     -10.494   7.748 129.377  0.00  0.00    +0.000 C 
ATOM      8  C   UNL     1      -9.137   7.613 130.087  0.00  0.00    +0.000 C 
ATOM      9  C   UNL     1     -10.227   8.920 128.401  0.00  0.00    +0.000 C 
ATOM     10  S   UNL     1     -11.018   6.271 128.465  0.00  0.00    +0.000 S 
ATOM     11  O   UNL     1     -10.404   6.254 127.154  0.00  0.00    +0.000 OA
ATOM     12  O   UNL     1     -10.840   5.156 129.380  0.00  0.00    +0.000 OA
ENDROOT
BRANCH   6  13
ATOM     13  C   UNL     1     -12.042   7.087 131.491  0.00  0.00    +0.000 C 
ATOM     14  O   UNL     1     -13.186   6.862 131.872  0.00  0.00    +0.000 OA
BRANCH  13  15
ATOM     15  O   UNL     1     -11.019   6.608 132.217  0.00  0.00    +0.000 OA
ATOM     16  H   UNL     1     -11.192   6.261 133.108  0.00  0.00    +0.000 HD
ENDBRANCH  13  15
ENDBRANCH   6  13
TORSDOF 2
ENDMDL
MODEL 5
REMARK VINA RESULT:      -5.3      9.382     10.804
REMARK  Name = Sulbactam
REMARK  4 active torsions:
REMARK  status: ('A' for Active; 'I' for Inactive)
REMARK    1  A    between atoms: C_7  and  C_9
REMARK    2  A    between atoms: C_9  and  O_10
REMARK    3  A    between atoms: C_12  and  C_13
REMARK    4  A    between atoms: C_12  and  C_14
REMARK                            x       y       z     vdW  Elec       q    Type
REMARK                         _______ _______ _______ _____ _____    ______ ____
ROOT
ATOM      1  C   UNL     1     -10.747   4.637 130.534  0.00  0.00    +0.000 C 
ATOM      2  C   UNL     1     -11.875   5.372 129.800  0.00  0.00    +0.000 C 
ATOM      3  C   UNL     1     -11.898   6.313 131.019  0.00  0.00    +0.000 C 
ATOM      4  O   UNL     1     -12.385   7.389 131.266  0.00  0.00    +0.000 OA
ATOM      5  N   UNL     1     -10.882   5.632 131.631  0.00  0.00    +0.000 N 
ATOM      6  C   UNL     1      -9.645   6.303 132.112  0.00  0.00    +0.000 C 
ATOM      7  C   UNL     1      -8.770   6.511 130.853  0.00  0.00    +0.000 C 
ATOM      8  C   UNL     1      -7.295   6.899 131.052  0.00  0.00    +0.000 C 
ATOM      9  C   UNL     1      -9.283   7.666 129.958  0.00  0.00    +0.000 C 
ATOM     10  S   UNL     1      -9.026   4.914 130.036  0.00  0.00    +0.000 S 
ATOM     11  O   UNL     1      -8.938   5.072 128.600  0.00  0.00    +0.000 OA
ATOM     12  O   UNL     1      -8.166   3.970 130.731  0.00  0.00    +0.000 OA
ENDROOT
BRANCH   6  13
ATOM     13  C   UNL     1      -9.158   5.414 133.292  0.00  0.00    +0.000 C 
ATOM     14  O   UNL     1      -8.167   5.707 133.955  0.00  0.00    +0.000 OA
BRANCH  13  15
ATOM     15  O   UNL     1      -9.784   4.256 133.554  0.00  0.00    +0.000 OA
ATOM     16  H   UNL     1     -10.646   4.274 134.003  0.00  0.00    +0.000 HD
ENDBRANCH  13  15
ENDBRANCH   6  13
TORSDOF 2
ENDMDL
MODEL 6
REMARK VINA RESULT:      -5.2      3.868      5.390
REMARK  Name = Sulbactam
REMARK  4 active torsions:
REMARK  status: ('A' for Active; 'I' for Inactive)
REMARK    1  A    between atoms: C_7  and  C_9
REMARK    2  A    between atoms: C_9  and  O_10
REMARK    3  A    between atoms: C_12  and  C_13
REMARK    4  A    between atoms: C_12  and  C_14
REMARK                            x       y       z     vdW  Elec       q    Type
REMARK                         _______ _______ _______ _____ _____    ______ ____
ROOT
ATOM      1  C   UNL     1      -9.277   1.558 124.385  0.00  0.00    +0.000 C 
ATOM      2  C   UNL     1      -9.272   0.071 124.761  0.00  0.00    +0.000 C 
ATOM      3  C   UNL     1      -8.224  -0.089 123.644  0.00  0.00    +0.000 C 
ATOM      4  O   UNL     1      -7.449  -0.950 123.308  0.00  0.00    +0.000 OA
ATOM      5  N   UNL     1      -8.255   1.246 123.351  0.00  0.00    +0.000 N 
ATOM      6  C   UNL     1      -7.029   2.087 123.316  0.00  0.00    +0.000 C 
ATOM      7  C   UNL     1      -6.700   2.402 124.795  0.00  0.00    +0.000 C 
ATOM      8  C   UNL     1      -5.671   3.506 125.088  0.00  0.00    +0.000 C 
ATOM      9  C   UNL     1      -6.086   1.190 125.537  0.00  0.00    +0.000 C 
ATOM     10  S   UNL     1      -8.370   2.745 125.412  0.00  0.00    +0.000 S 
ATOM     11  O   UNL     1      -8.467   2.378 126.809  0.00  0.00    +0.000 OA
ATOM     12  O   UNL     1      -8.684   4.095 124.978  0.00  0.00    +0.000 OA
ENDROOT
BRANCH   6  13
ATOM     13  C   UNL     1      -7.367   3.222 122.308  0.00  0.00    +0.000 C 
ATOM     14  O   UNL     1      -6.489   3.875 121.752  0.00  0.00    +0.000 OA
BRANCH  13  15
ATOM     15  O   UNL     1      -8.648   3.556 122.089  0.00  0.00    +0.000 OA
ATOM     16  H   UNL     1      -9.251   2.897 121.707  0.00  0.00    +0.000 HD
ENDBRANCH  13  15
ENDBRANCH   6  13
TORSDOF 2
ENDMDL
MODEL 7
REMARK VINA RESULT:      -5.2      3.115      5.137
REMARK  Name = Sulbactam
REMARK  4 active torsions:
REMARK  status: ('A' for Active; 'I' for Inactive)
REMARK    1  A    between atoms: C_7  and  C_9
REMARK    2  A    between atoms: C_9  and  O_10
REMARK    3  A    between atoms: C_12  and  C_13
REMARK    4  A    between atoms: C_12  and  C_14
REMARK                            x       y       z     vdW  Elec       q    Type
REMARK                         _______ _______ _______ _____ _____    ______ ____
ROOT
ATOM      1  C   UNL     1      -6.980   1.574 123.590  0.00  0.00    +0.000 C 
ATOM      2  C   UNL     1      -6.655   2.840 124.392  0.00  0.00    +0.000 C 
ATOM      3  C   UNL     1      -8.179   3.052 124.456  0.00  0.00    +0.000 C 
ATOM      4  O   UNL     1      -8.924   3.755 125.092  0.00  0.00    +0.000 OA
ATOM      5  N   UNL     1      -8.421   1.908 123.746  0.00  0.00    +0.000 N 
ATOM      6  C   UNL     1      -9.329   0.838 124.237  0.00  0.00    +0.000 C 
ATOM      7  C   UNL     1      -8.506   0.040 125.276  0.00  0.00    +0.000 C 
ATOM      8  C   UNL     1      -9.053  -1.320 125.742  0.00  0.00    +0.000 C 
ATOM      9  C   UNL     1      -8.351   0.797 126.617  0.00  0.00    +0.000 C 
ATOM     10  S   UNL     1      -6.918  -0.044 124.406  0.00  0.00    +0.000 S 
ATOM     11  O   UNL     1      -5.832  -0.083 125.362  0.00  0.00    +0.000 OA
ATOM     12  O   UNL     1      -7.065  -1.092 123.411  0.00  0.00    +0.000 OA
ENDROOT
BRANCH   6  13
ATOM     13  C   UNL     1      -9.865   0.161 122.943  0.00  0.00    +0.000 C 
ATOM     14  O   UNL     1     -10.321   0.818 122.012  0.00  0.00    +0.000 OA
BRANCH  13  15
ATOM     15  O   UNL     1      -9.902  -1.178 122.861  0.00  0.00    +0.000 OA
ATOM     16  H   UNL     1      -9.333  -1.630 122.216  0.00  0.00    +0.000 HD
ENDBRANCH  13  15
ENDBRANCH   6  13
TORSDOF 2
ENDMDL
MODEL 8
REMARK VINA RESULT:      -5.2      2.589      3.842
REMARK  Name = Sulbactam
REMARK  4 active torsions:
REMARK  status: ('A' for Active; 'I' for Inactive)
REMARK    1  A    between atoms: C_7  and  C_9
REMARK    2  A    between atoms: C_9  and  O_10
REMARK    3  A    between atoms: C_12  and  C_13
REMARK    4  A    between atoms: C_12  and  C_14
REMARK                            x       y       z     vdW  Elec       q    Type
REMARK                         _______ _______ _______ _____ _____    ______ ____
ROOT
ATOM      1  C   UNL     1      -6.683  -0.676 125.233  0.00  0.00    +0.000 C 
ATOM      2  C   UNL     1      -6.422  -2.129 125.648  0.00  0.00    +0.000 C 
ATOM      3  C   UNL     1      -7.822  -2.076 126.288  0.00  0.00    +0.000 C 
ATOM      4  O   UNL     1      -8.599  -2.889 126.725  0.00  0.00    +0.000 OA
ATOM      5  N   UNL     1      -8.014  -0.783 125.888  0.00  0.00    +0.000 N 
ATOM      6  C   UNL     1      -9.205  -0.355 125.106  0.00  0.00    +0.000 C 
ATOM      7  C   UNL     1      -8.918  -0.782 123.647  0.00  0.00    +0.000 C 
ATOM      8  C   UNL     1      -9.815  -0.211 122.536  0.00  0.00    +0.000 C 
ATOM      9  C   UNL     1      -9.079  -2.307 123.432  0.00  0.00    +0.000 C 
ATOM     10  S   UNL     1      -7.173  -0.306 123.528  0.00  0.00    +0.000 S 
ATOM     11  O   UNL     1      -6.482  -1.182 122.605  0.00  0.00    +0.000 OA
ATOM     12  O   UNL     1      -7.168   1.133 123.327  0.00  0.00    +0.000 OA
ENDROOT
BRANCH   6  13
ATOM     13  C   UNL     1      -9.399   1.141 125.483  0.00  0.00    +0.000 C 
ATOM     14  O   UNL     1      -9.121   1.567 126.600  0.00  0.00    +0.000 OA
BRANCH  13  15
ATOM     15  O   UNL     1      -9.952   1.983 124.596  0.00  0.00    +0.000 OA
ATOM     16  H   UNL     1      -9.396   2.657 124.172  0.00  0.00    +0.000 HD
ENDBRANCH  13  15
ENDBRANCH   6  13
TORSDOF 2
ENDMDL
MODEL 9
REMARK VINA RESULT:      -5.1      8.349      9.546
REMARK  Name = Sulbactam
REMARK  4 active torsions:
REMARK  status: ('A' for Active; 'I' for Inactive)
REMARK    1  A    between atoms: C_7  and  C_9
REMARK    2  A    between atoms: C_9  and  O_10
REMARK    3  A    between atoms: C_12  and  C_13
REMARK    4  A    between atoms: C_12  and  C_14
REMARK                            x       y       z     vdW  Elec       q    Type
REMARK                         _______ _______ _______ _____ _____    ______ ____
ROOT
ATOM      1  C   UNL     1      -7.229   4.517 130.814  0.00  0.00    +0.000 C 
ATOM      2  C   UNL     1      -7.213   4.317 129.293  0.00  0.00    +0.000 C 
ATOM      3  C   UNL     1      -8.357   3.315 129.529  0.00  0.00    +0.000 C 
ATOM      4  O   UNL     1      -9.166   2.752 128.832  0.00  0.00    +0.000 OA
ATOM      5  N   UNL     1      -8.342   3.532 130.879  0.00  0.00    +0.000 N 
ATOM      6  C   UNL     1      -9.559   3.915 131.642  0.00  0.00    +0.000 C 
ATOM      7  C   UNL     1      -9.752   5.429 131.383  0.00  0.00    +0.000 C 
ATOM      8  C   UNL     1     -10.742   6.196 132.275  0.00  0.00    +0.000 C 
ATOM      9  C   UNL     1     -10.307   5.722 129.967  0.00  0.00    +0.000 C 
ATOM     10  S   UNL     1      -8.031   5.982 131.516  0.00  0.00    +0.000 S 
ATOM     11  O   UNL     1      -7.813   7.132 130.664  0.00  0.00    +0.000 OA
ATOM     12  O   UNL     1      -7.746   6.052 132.940  0.00  0.00    +0.000 OA
ENDROOT
BRANCH   6  13
ATOM     13  C   UNL     1      -9.304   3.372 133.076  0.00  0.00    +0.000 C 
ATOM     14  O   UNL     1      -8.736   2.301 133.270  0.00  0.00    +0.000 OA
BRANCH  13  15
ATOM     15  O   UNL     1      -9.777   4.046 134.136  0.00  0.00    +0.000 OA
ATOM     16  H   UNL     1      -9.168   4.295 134.851  0.00  0.00    +0.000 HD
ENDBRANCH  13  15
ENDBRANCH   6  13
TORSDOF 2
ENDMDL
