MODEL 1
REMARK VINA RESULT:      -7.6      0.000      0.000
REMARK  Name = Sulconazole
REMARK  6 active torsions:
REMARK  status: ('A' for Active; 'I' for Inactive)
REMARK    1  A    between atoms: C_5  and  C_6
REMARK    2  A    between atoms: C_6  and  S_7
REMARK    3  A    between atoms: S_7  and  C_8
REMARK    4  A    between atoms: C_8  and  C_9
REMARK    5  A    between atoms: C_8  and  C_15
REMARK    6  A    between atoms: C_9  and  N_10
REMARK                            x       y       z     vdW  Elec       q    Type
REMARK                         _______ _______ _______ _____ _____    ______ ____
ROOT
ATOM      1  C   UNL     1      -8.316  -0.284 123.766  0.00  0.00    +0.000 C 
ENDROOT
BRANCH   1   2
ATOM      2  C   UNL     1      -8.474  -1.228 125.016  0.00  0.00    +0.000 A 
ATOM      3  C   UNL     1      -8.929  -2.558 124.904  0.00  0.00    +0.000 A 
ATOM      4 CL   UNL     1      -9.544  -3.228 123.433  0.00  0.00    +0.000 Cl
ATOM      5  C   UNL     1      -8.961  -3.417 126.016  0.00  0.00    +0.000 A 
ATOM      6  C   UNL     1      -8.619  -2.954 127.281  0.00  0.00    +0.000 A 
ATOM      7 CL   UNL     1      -8.707  -3.999 128.640  0.00  0.00    +0.000 Cl
ATOM      8  C   UNL     1      -8.231  -1.640 127.449  0.00  0.00    +0.000 A 
ATOM      9  C   UNL     1      -8.152  -0.801 126.335  0.00  0.00    +0.000 A 
ENDBRANCH   1   2
BRANCH   1  10
ATOM     10  S   UNL     1      -8.861   1.423 124.270  0.00  0.00    +0.000 S 
BRANCH  10  11
ATOM     11  C   UNL     1      -7.504   2.622 124.069  0.00  0.00    +0.000 C 
BRANCH  11  16
ATOM     12 CL   UNL     1      -7.262   4.512 118.343  0.00  0.00    +0.000 Cl
ATOM     13  C   UNL     1      -7.352   4.087 120.004  0.00  0.00    +0.000 A 
ATOM     14  C   UNL     1      -6.201   4.067 120.789  0.00  0.00    +0.000 A 
ATOM     15  C   UNL     1      -6.269   3.626 122.113  0.00  0.00    +0.000 A 
ATOM     16  C   UNL     1      -7.487   3.182 122.652  0.00  0.00    +0.000 A 
ATOM     17  C   UNL     1      -8.645   3.306 121.863  0.00  0.00    +0.000 A 
ATOM     18  C   UNL     1      -8.581   3.747 120.549  0.00  0.00    +0.000 A 
ENDBRANCH  11  16
ENDBRANCH  10  11
ENDBRANCH   1  10
BRANCH   1  19
ATOM     19  C   UNL     1      -6.830  -0.290 123.297  0.00  0.00    +0.000 C 
BRANCH  19  20
ATOM     20  N   UNL     1      -6.059  -1.487 123.569  0.00  0.00    +0.000 N 
ATOM     21  C   UNL     1      -5.315  -1.780 124.675  0.00  0.00    +0.000 A 
ATOM     22  C   UNL     1      -4.997  -3.116 124.522  0.00  0.00    +0.000 A 
ATOM     23  N   UNL     1      -5.377  -3.568 123.291  0.00  0.00    +0.000 NA
ATOM     24  C   UNL     1      -5.887  -2.507 122.682  0.00  0.00    +0.000 A 
ENDBRANCH  19  20
ENDBRANCH   1  19
TORSDOF 6
ENDMDL
MODEL 2
REMARK VINA RESULT:      -7.6      3.552      4.979
REMARK  Name = Sulconazole
REMARK  6 active torsions:
REMARK  status: ('A' for Active; 'I' for Inactive)
REMARK    1  A    between atoms: C_5  and  C_6
REMARK    2  A    between atoms: C_6  and  S_7
REMARK    3  A    between atoms: S_7  and  C_8
REMARK    4  A    between atoms: C_8  and  C_9
REMARK    5  A    between atoms: C_8  and  C_15
REMARK    6  A    between atoms: C_9  and  N_10
REMARK                            x       y       z     vdW  Elec       q    Type
REMARK                         _______ _______ _______ _____ _____    ______ ____
ROOT
ATOM      1  C   UNL     1      -6.310  -1.820 127.795  0.00  0.00    +0.000 C 
ENDROOT
BRANCH   1   2
ATOM      2  C   UNL     1      -7.253  -2.230 126.604  0.00  0.00    +0.000 A 
ATOM      3  C   UNL     1      -6.772  -2.421 125.292  0.00  0.00    +0.000 A 
ATOM      4 CL   UNL     1      -5.156  -2.036 124.811  0.00  0.00    +0.000 Cl
ATOM      5  C   UNL     1      -7.609  -2.892 124.266  0.00  0.00    +0.000 A 
ATOM      6  C   UNL     1      -8.962  -3.107 124.498  0.00  0.00    +0.000 A 
ATOM      7 CL   UNL     1      -9.986  -3.638 123.224  0.00  0.00    +0.000 Cl
ATOM      8  C   UNL     1      -9.491  -2.871 125.751  0.00  0.00    +0.000 A 
ATOM      9  C   UNL     1      -8.648  -2.451 126.782  0.00  0.00    +0.000 A 
ENDBRANCH   1   2
BRANCH   1  10
ATOM     10  S   UNL     1      -6.883  -0.167 128.431  0.00  0.00    +0.000 S 
BRANCH  10  11
ATOM     11  C   UNL     1      -6.531   1.150 127.223  0.00  0.00    +0.000 C 
BRANCH  11  16
ATOM     12 CL   UNL     1     -10.218   0.441 122.497  0.00  0.00    +0.000 Cl
ATOM     13  C   UNL     1      -9.181   0.760 123.828  0.00  0.00    +0.000 A 
ATOM     14  C   UNL     1      -7.805   0.872 123.639  0.00  0.00    +0.000 A 
ATOM     15  C   UNL     1      -6.962   1.034 124.740  0.00  0.00    +0.000 A 
ATOM     16  C   UNL     1      -7.490   1.064 126.041  0.00  0.00    +0.000 A 
ATOM     17  C   UNL     1      -8.889   1.046 126.189  0.00  0.00    +0.000 A 
ATOM     18  C   UNL     1      -9.729   0.888 125.096  0.00  0.00    +0.000 A 
ENDBRANCH  11  16
ENDBRANCH  10  11
ENDBRANCH   1  10
BRANCH   1  19
ATOM     19  C   UNL     1      -6.375  -2.909 128.908  0.00  0.00    +0.000 C 
BRANCH  19  20
ATOM     20  N   UNL     1      -5.206  -3.057 129.752  0.00  0.00    +0.000 N 
ATOM     21  C   UNL     1      -5.155  -3.170 131.112  0.00  0.00    +0.000 A 
ATOM     22  C   UNL     1      -3.843  -3.519 131.370  0.00  0.00    +0.000 A 
ATOM     23  N   UNL     1      -3.088  -3.445 130.234  0.00  0.00    +0.000 NA
ATOM     24  C   UNL     1      -3.922  -3.015 129.299  0.00  0.00    +0.000 A 
ENDBRANCH  19  20
ENDBRANCH   1  19
TORSDOF 6
ENDMDL
MODEL 3
REMARK VINA RESULT:      -7.4      3.491      7.028
REMARK  Name = Sulconazole
REMARK  6 active torsions:
REMARK  status: ('A' for Active; 'I' for Inactive)
REMARK    1  A    between atoms: C_5  and  C_6
REMARK    2  A    between atoms: C_6  and  S_7
REMARK    3  A    between atoms: S_7  and  C_8
REMARK    4  A    between atoms: C_8  and  C_9
REMARK    5  A    between atoms: C_8  and  C_15
REMARK    6  A    between atoms: C_9  and  N_10
REMARK                            x       y       z     vdW  Elec       q    Type
REMARK                         _______ _______ _______ _____ _____    ______ ____
ROOT
ATOM      1  C   UNL     1      -6.836   1.716 126.544  0.00  0.00    +0.000 C 
ENDROOT
BRANCH   1   2
ATOM      2  C   UNL     1      -7.335   2.124 125.108  0.00  0.00    +0.000 A 
ATOM      3  C   UNL     1      -8.631   1.816 124.644  0.00  0.00    +0.000 A 
ATOM      4 CL   UNL     1      -9.730   0.800 125.510  0.00  0.00    +0.000 Cl
ATOM      5  C   UNL     1      -9.094   2.282 123.402  0.00  0.00    +0.000 A 
ATOM      6  C   UNL     1      -8.255   2.996 122.554  0.00  0.00    +0.000 A 
ATOM      7 CL   UNL     1      -8.816   3.520 121.018  0.00  0.00    +0.000 Cl
ATOM      8  C   UNL     1      -6.956   3.263 122.939  0.00  0.00    +0.000 A 
ATOM      9  C   UNL     1      -6.513   2.843 124.195  0.00  0.00    +0.000 A 
ENDBRANCH   1   2
BRANCH   1  10
ATOM     10  S   UNL     1      -5.239   0.780 126.347  0.00  0.00    +0.000 S 
BRANCH  10  11
ATOM     11  C   UNL     1      -5.479  -0.992 126.694  0.00  0.00    +0.000 C 
BRANCH  11  16
ATOM     12 CL   UNL     1      -9.811  -3.486 123.312  0.00  0.00    +0.000 Cl
ATOM     13  C   UNL     1      -8.643  -2.676 124.277  0.00  0.00    +0.000 A 
ATOM     14  C   UNL     1      -7.589  -1.989 123.678  0.00  0.00    +0.000 A 
ATOM     15  C   UNL     1      -6.592  -1.418 124.471  0.00  0.00    +0.000 A 
ATOM     16  C   UNL     1      -6.633  -1.549 125.869  0.00  0.00    +0.000 A 
ATOM     17  C   UNL     1      -7.759  -2.164 126.444  0.00  0.00    +0.000 A 
ATOM     18  C   UNL     1      -8.753  -2.730 125.658  0.00  0.00    +0.000 A 
ENDBRANCH  11  16
ENDBRANCH  10  11
ENDBRANCH   1  10
BRANCH   1  19
ATOM     19  C   UNL     1      -6.640   2.998 127.408  0.00  0.00    +0.000 C 
BRANCH  19  20
ATOM     20  N   UNL     1      -7.646   3.272 128.415  0.00  0.00    +0.000 N 
ATOM     21  C   UNL     1      -7.775   4.381 129.201  0.00  0.00    +0.000 A 
ATOM     22  C   UNL     1      -9.013   4.228 129.796  0.00  0.00    +0.000 A 
ATOM     23  N   UNL     1      -9.534   2.996 129.524  0.00  0.00    +0.000 NA
ATOM     24  C   UNL     1      -8.605   2.385 128.803  0.00  0.00    +0.000 A 
ENDBRANCH  19  20
ENDBRANCH   1  19
TORSDOF 6
ENDMDL
MODEL 4
REMARK VINA RESULT:      -7.4      2.751      4.423
REMARK  Name = Sulconazole
REMARK  6 active torsions:
REMARK  status: ('A' for Active; 'I' for Inactive)
REMARK    1  A    between atoms: C_5  and  C_6
REMARK    2  A    between atoms: C_6  and  S_7
REMARK    3  A    between atoms: S_7  and  C_8
REMARK    4  A    between atoms: C_8  and  C_9
REMARK    5  A    between atoms: C_8  and  C_15
REMARK    6  A    between atoms: C_9  and  N_10
REMARK                            x       y       z     vdW  Elec       q    Type
REMARK                         _______ _______ _______ _____ _____    ______ ____
ROOT
ATOM      1  C   UNL     1      -7.295   0.446 124.769  0.00  0.00    +0.000 C 
ENDROOT
BRANCH   1   2
ATOM      2  C   UNL     1      -6.477  -0.850 124.412  0.00  0.00    +0.000 A 
ATOM      3  C   UNL     1      -5.700  -1.538 125.367  0.00  0.00    +0.000 A 
ATOM      4 CL   UNL     1      -5.403  -0.934 126.960  0.00  0.00    +0.000 Cl
ATOM      5  C   UNL     1      -5.064  -2.753 125.056  0.00  0.00    +0.000 A 
ATOM      6  C   UNL     1      -5.117  -3.272 123.768  0.00  0.00    +0.000 A 
ATOM      7 CL   UNL     1      -4.297  -4.732 123.387  0.00  0.00    +0.000 Cl
ATOM      8  C   UNL     1      -5.811  -2.598 122.784  0.00  0.00    +0.000 A 
ATOM      9  C   UNL     1      -6.484  -1.417 123.106  0.00  0.00    +0.000 A 
ENDBRANCH   1   2
BRANCH   1  10
ATOM     10  S   UNL     1      -8.505   0.753 123.388  0.00  0.00    +0.000 S 
BRANCH  10  11
ATOM     11  C   UNL     1      -8.857   2.532 123.218  0.00  0.00    +0.000 C 
BRANCH  11  16
ATOM     12 CL   UNL     1      -5.746   5.272 118.832  0.00  0.00    +0.000 Cl
ATOM     13  C   UNL     1      -6.610   4.389 120.025  0.00  0.00    +0.000 A 
ATOM     14  C   UNL     1      -7.983   4.186 119.895  0.00  0.00    +0.000 A 
ATOM     15  C   UNL     1      -8.692   3.552 120.917  0.00  0.00    +0.000 A 
ATOM     16  C   UNL     1      -8.034   3.136 122.086  0.00  0.00    +0.000 A 
ATOM     17  C   UNL     1      -6.636   3.270 122.143  0.00  0.00    +0.000 A 
ATOM     18  C   UNL     1      -5.927   3.897 121.127  0.00  0.00    +0.000 A 
ENDBRANCH  11  16
ENDBRANCH  10  11
ENDBRANCH   1  10
BRANCH   1  19
ATOM     19  C   UNL     1      -8.027   0.240 126.129  0.00  0.00    +0.000 C 
BRANCH  19  20
ATOM     20  N   UNL     1      -7.975   1.336 127.076  0.00  0.00    +0.000 N 
ATOM     21  C   UNL     1      -7.556   2.618 126.863  0.00  0.00    +0.000 A 
ATOM     22  C   UNL     1      -7.933   3.290 128.010  0.00  0.00    +0.000 A 
ATOM     23  N   UNL     1      -8.399   2.417 128.952  0.00  0.00    +0.000 NA
ATOM     24  C   UNL     1      -8.269   1.220 128.401  0.00  0.00    +0.000 A 
ENDBRANCH  19  20
ENDBRANCH   1  19
TORSDOF 6
ENDMDL
MODEL 5
REMARK VINA RESULT:      -7.4      3.392      6.782
REMARK  Name = Sulconazole
REMARK  6 active torsions:
REMARK  status: ('A' for Active; 'I' for Inactive)
REMARK    1  A    between atoms: C_5  and  C_6
REMARK    2  A    between atoms: C_6  and  S_7
REMARK    3  A    between atoms: S_7  and  C_8
REMARK    4  A    between atoms: C_8  and  C_9
REMARK    5  A    between atoms: C_8  and  C_15
REMARK    6  A    between atoms: C_9  and  N_10
REMARK                            x       y       z     vdW  Elec       q    Type
REMARK                         _______ _______ _______ _____ _____    ______ ____
ROOT
ATOM      1  C   UNL     1      -8.771  -0.458 124.574  0.00  0.00    +0.000 C 
ENDROOT
BRANCH   1   2
ATOM      2  C   UNL     1      -7.668  -1.566 124.400  0.00  0.00    +0.000 A 
ATOM      3  C   UNL     1      -7.808  -2.861 124.941  0.00  0.00    +0.000 A 
ATOM      4 CL   UNL     1      -9.094  -3.308 126.008  0.00  0.00    +0.000 Cl
ATOM      5  C   UNL     1      -6.862  -3.869 124.684  0.00  0.00    +0.000 A 
ATOM      6  C   UNL     1      -5.714  -3.594 123.952  0.00  0.00    +0.000 A 
ATOM      7 CL   UNL     1      -4.542  -4.820 123.683  0.00  0.00    +0.000 Cl
ATOM      8  C   UNL     1      -5.502  -2.322 123.458  0.00  0.00    +0.000 A 
ATOM      9  C   UNL     1      -6.467  -1.335 123.672  0.00  0.00    +0.000 A 
ENDBRANCH   1   2
BRANCH   1  10
ATOM     10  S   UNL     1      -8.573   0.282 126.271  0.00  0.00    +0.000 S 
BRANCH  10  11
ATOM     11  C   UNL     1      -6.826   0.263 126.787  0.00  0.00    +0.000 C 
BRANCH  11  16
ATOM     12 CL   UNL     1      -6.014  -4.580 130.295  0.00  0.00    +0.000 Cl
ATOM     13  C   UNL     1      -6.194  -3.137 129.383  0.00  0.00    +0.000 A 
ATOM     14  C   UNL     1      -7.360  -2.381 129.483  0.00  0.00    +0.000 A 
ATOM     15  C   UNL     1      -7.538  -1.264 128.664  0.00  0.00    +0.000 A 
ATOM     16  C   UNL     1      -6.556  -0.908 127.725  0.00  0.00    +0.000 A 
ATOM     17  C   UNL     1      -5.352  -1.634 127.718  0.00  0.00    +0.000 A 
ATOM     18  C   UNL     1      -5.172  -2.743 128.532  0.00  0.00    +0.000 A 
ENDBRANCH  11  16
ENDBRANCH  10  11
ENDBRANCH   1  10
BRANCH   1  19
ATOM     19  C   UNL     1      -8.602   0.621 123.462  0.00  0.00    +0.000 C 
BRANCH  19  20
ATOM     20  N   UNL     1      -8.078   1.909 123.871  0.00  0.00    +0.000 N 
ATOM     21  C   UNL     1      -8.754   2.960 124.421  0.00  0.00    +0.000 A 
ATOM     22  C   UNL     1      -7.755   3.825 124.828  0.00  0.00    +0.000 A 
ATOM     23  N   UNL     1      -6.536   3.402 124.383  0.00  0.00    +0.000 NA
ATOM     24  C   UNL     1      -6.791   2.311 123.676  0.00  0.00    +0.000 A 
ENDBRANCH  19  20
ENDBRANCH   1  19
TORSDOF 6
ENDMDL
MODEL 6
REMARK VINA RESULT:      -7.3      2.662      7.010
REMARK  Name = Sulconazole
REMARK  6 active torsions:
REMARK  status: ('A' for Active; 'I' for Inactive)
REMARK    1  A    between atoms: C_5  and  C_6
REMARK    2  A    between atoms: C_6  and  S_7
REMARK    3  A    between atoms: S_7  and  C_8
REMARK    4  A    between atoms: C_8  and  C_9
REMARK    5  A    between atoms: C_8  and  C_15
REMARK    6  A    between atoms: C_9  and  N_10
REMARK                            x       y       z     vdW  Elec       q    Type
REMARK                         _______ _______ _______ _____ _____    ______ ____
ROOT
ATOM      1  C   UNL     1      -7.706   0.573 124.491  0.00  0.00    +0.000 C 
ENDROOT
BRANCH   1   2
ATOM      2  C   UNL     1      -6.805  -0.699 124.275  0.00  0.00    +0.000 A 
ATOM      3  C   UNL     1      -7.077  -1.656 123.276  0.00  0.00    +0.000 A 
ATOM      4 CL   UNL     1      -8.520  -1.645 122.322  0.00  0.00    +0.000 Cl
ATOM      5  C   UNL     1      -6.201  -2.727 123.029  0.00  0.00    +0.000 A 
ATOM      6  C   UNL     1      -5.075  -2.919 123.821  0.00  0.00    +0.000 A 
ATOM      7 CL   UNL     1      -4.037  -4.258 123.540  0.00  0.00    +0.000 Cl
ATOM      8  C   UNL     1      -4.804  -2.045 124.853  0.00  0.00    +0.000 A 
ATOM      9  C   UNL     1      -5.649  -0.953 125.066  0.00  0.00    +0.000 A 
ENDBRANCH   1   2
BRANCH   1  10
ATOM     10  S   UNL     1      -9.015   0.138 125.741  0.00  0.00    +0.000 S 
BRANCH  10  11
ATOM     11  C   UNL     1      -9.230  -1.667 125.854  0.00  0.00    +0.000 C 
BRANCH  11  16
ATOM     12 CL   UNL     1      -6.393  -4.033 130.627  0.00  0.00    +0.000 Cl
ATOM     13  C   UNL     1      -7.286  -3.323 129.343  0.00  0.00    +0.000 A 
ATOM     14  C   UNL     1      -8.216  -4.077 128.631  0.00  0.00    +0.000 A 
ATOM     15  C   UNL     1      -8.864  -3.519 127.527  0.00  0.00    +0.000 A 
ATOM     16  C   UNL     1      -8.570  -2.208 127.117  0.00  0.00    +0.000 A 
ATOM     17  C   UNL     1      -7.699  -1.445 127.914  0.00  0.00    +0.000 A 
ATOM     18  C   UNL     1      -7.055  -1.995 129.014  0.00  0.00    +0.000 A 
ENDBRANCH  11  16
ENDBRANCH  10  11
ENDBRANCH   1  10
BRANCH   1  19
ATOM     19  C   UNL     1      -6.822   1.758 124.984  0.00  0.00    +0.000 C 
BRANCH  19  20
ATOM     20  N   UNL     1      -6.372   2.703 123.981  0.00  0.00    +0.000 N 
ATOM     21  C   UNL     1      -6.554   2.652 122.629  0.00  0.00    +0.000 A 
ATOM     22  C   UNL     1      -6.141   3.895 122.187  0.00  0.00    +0.000 A 
ATOM     23  N   UNL     1      -5.565   4.604 123.203  0.00  0.00    +0.000 NA
ATOM     24  C   UNL     1      -5.589   3.787 124.245  0.00  0.00    +0.000 A 
ENDBRANCH  19  20
ENDBRANCH   1  19
TORSDOF 6
ENDMDL
MODEL 7
REMARK VINA RESULT:      -7.3      3.398      5.882
REMARK  Name = Sulconazole
REMARK  6 active torsions:
REMARK  status: ('A' for Active; 'I' for Inactive)
REMARK    1  A    between atoms: C_5  and  C_6
REMARK    2  A    between atoms: C_6  and  S_7
REMARK    3  A    between atoms: S_7  and  C_8
REMARK    4  A    between atoms: C_8  and  C_9
REMARK    5  A    between atoms: C_8  and  C_15
REMARK    6  A    between atoms: C_9  and  N_10
REMARK                            x       y       z     vdW  Elec       q    Type
REMARK                         _______ _______ _______ _____ _____    ______ ____
ROOT
ATOM      1  C   UNL     1      -7.713   1.195 124.834  0.00  0.00    +0.000 C 
ENDROOT
BRANCH   1   2
ATOM      2  C   UNL     1      -7.511   0.990 126.381  0.00  0.00    +0.000 A 
ATOM      3  C   UNL     1      -6.402   0.299 126.912  0.00  0.00    +0.000 A 
ATOM      4 CL   UNL     1      -5.263  -0.558 125.934  0.00  0.00    +0.000 Cl
ATOM      5  C   UNL     1      -6.184   0.221 128.299  0.00  0.00    +0.000 A 
ATOM      6  C   UNL     1      -7.104   0.754 129.193  0.00  0.00    +0.000 A 
ATOM      7 CL   UNL     1      -6.852   0.610 130.886  0.00  0.00    +0.000 Cl
ATOM      8  C   UNL     1      -8.239   1.381 128.719  0.00  0.00    +0.000 A 
ATOM      9  C   UNL     1      -8.429   1.503 127.341  0.00  0.00    +0.000 A 
ENDBRANCH   1   2
BRANCH   1  10
ATOM     10  S   UNL     1      -9.276   0.313 124.341  0.00  0.00    +0.000 S 
BRANCH  10  11
ATOM     11  C   UNL     1      -8.969  -0.823 122.951  0.00  0.00    +0.000 C 
BRANCH  11  16
ATOM     12 CL   UNL     1      -4.416  -4.663 123.926  0.00  0.00    +0.000 Cl
ATOM     13  C   UNL     1      -5.667  -3.502 123.735  0.00  0.00    +0.000 A 
ATOM     14  C   UNL     1      -6.860  -3.628 124.444  0.00  0.00    +0.000 A 
ATOM     15  C   UNL     1      -7.907  -2.734 124.208  0.00  0.00    +0.000 A 
ATOM     16  C   UNL     1      -7.773  -1.721 123.245  0.00  0.00    +0.000 A 
ATOM     17  C   UNL     1      -6.524  -1.563 122.619  0.00  0.00    +0.000 A 
ATOM     18  C   UNL     1      -5.481  -2.447 122.853  0.00  0.00    +0.000 A 
ENDBRANCH  11  16
ENDBRANCH  10  11
ENDBRANCH   1  10
BRANCH   1  19
ATOM     19  C   UNL     1      -7.798   2.719 124.519  0.00  0.00    +0.000 C 
BRANCH  19  20
ATOM     20  N   UNL     1      -6.845   3.247 123.563  0.00  0.00    +0.000 N 
ATOM     21  C   UNL     1      -6.721   2.943 122.238  0.00  0.00    +0.000 A 
ATOM     22  C   UNL     1      -5.832   3.887 121.759  0.00  0.00    +0.000 A 
ATOM     23  N   UNL     1      -5.302   4.618 122.783  0.00  0.00    +0.000 NA
ATOM     24  C   UNL     1      -5.830   4.098 123.881  0.00  0.00    +0.000 A 
ENDBRANCH  19  20
ENDBRANCH   1  19
TORSDOF 6
ENDMDL
MODEL 8
REMARK VINA RESULT:      -7.3      3.590      6.644
REMARK  Name = Sulconazole
REMARK  6 active torsions:
REMARK  status: ('A' for Active; 'I' for Inactive)
REMARK    1  A    between atoms: C_5  and  C_6
REMARK    2  A    between atoms: C_6  and  S_7
REMARK    3  A    between atoms: S_7  and  C_8
REMARK    4  A    between atoms: C_8  and  C_9
REMARK    5  A    between atoms: C_8  and  C_15
REMARK    6  A    between atoms: C_9  and  N_10
REMARK                            x       y       z     vdW  Elec       q    Type
REMARK                         _______ _______ _______ _____ _____    ______ ____
ROOT
ATOM      1  C   UNL     1      -5.919   0.926 126.922  0.00  0.00    +0.000 C 
ENDROOT
BRANCH   1   2
ATOM      2  C   UNL     1      -7.039   0.785 125.826  0.00  0.00    +0.000 A 
ATOM      3  C   UNL     1      -8.390   1.098 126.083  0.00  0.00    +0.000 A 
ATOM      4 CL   UNL     1      -8.992   1.474 127.660  0.00  0.00    +0.000 Cl
ATOM      5  C   UNL     1      -9.356   1.069 125.062  0.00  0.00    +0.000 A 
ATOM      6  C   UNL     1      -9.021   0.650 123.781  0.00  0.00    +0.000 A 
ATOM      7 CL   UNL     1     -10.219   0.573 122.552  0.00  0.00    +0.000 Cl
ATOM      8  C   UNL     1      -7.724   0.271 123.499  0.00  0.00    +0.000 A 
ATOM      9  C   UNL     1      -6.754   0.348 124.501  0.00  0.00    +0.000 A 
ENDBRANCH   1   2
BRANCH   1  10
ATOM     10  S   UNL     1      -5.160  -0.754 127.180  0.00  0.00    +0.000 S 
BRANCH  10  11
ATOM     11  C   UNL     1      -6.401  -1.938 127.794  0.00  0.00    +0.000 C 
BRANCH  11  16
ATOM     12 CL   UNL     1      -9.948  -3.559 123.188  0.00  0.00    +0.000 Cl
ATOM     13  C   UNL     1      -8.944  -3.210 124.537  0.00  0.00    +0.000 A 
ATOM     14  C   UNL     1      -9.502  -2.763 125.733  0.00  0.00    +0.000 A 
ATOM     15  C   UNL     1      -8.671  -2.389 126.791  0.00  0.00    +0.000 A 
ATOM     16  C   UNL     1      -7.274  -2.441 126.651  0.00  0.00    +0.000 A 
ATOM     17  C   UNL     1      -6.748  -2.988 125.467  0.00  0.00    +0.000 A 
ATOM     18  C   UNL     1      -7.571  -3.363 124.415  0.00  0.00    +0.000 A 
ENDBRANCH  11  16
ENDBRANCH  10  11
ENDBRANCH   1  10
BRANCH   1  19
ATOM     19  C   UNL     1      -4.856   1.962 126.447  0.00  0.00    +0.000 C 
BRANCH  19  20
ATOM     20  N   UNL     1      -5.341   3.272 126.060  0.00  0.00    +0.000 N 
ATOM     21  C   UNL     1      -5.295   3.861 124.830  0.00  0.00    +0.000 A 
ATOM     22  C   UNL     1      -6.093   4.981 124.963  0.00  0.00    +0.000 A 
ATOM     23  N   UNL     1      -6.462   5.161 126.266  0.00  0.00    +0.000 NA
ATOM     24  C   UNL     1      -5.861   4.184 126.929  0.00  0.00    +0.000 A 
ENDBRANCH  19  20
ENDBRANCH   1  19
TORSDOF 6
ENDMDL
MODEL 9
REMARK VINA RESULT:      -7.2      3.344      7.298
REMARK  Name = Sulconazole
REMARK  6 active torsions:
REMARK  status: ('A' for Active; 'I' for Inactive)
REMARK    1  A    between atoms: C_5  and  C_6
REMARK    2  A    between atoms: C_6  and  S_7
REMARK    3  A    between atoms: S_7  and  C_8
REMARK    4  A    between atoms: C_8  and  C_9
REMARK    5  A    between atoms: C_8  and  C_15
REMARK    6  A    between atoms: C_9  and  N_10
REMARK                            x       y       z     vdW  Elec       q    Type
REMARK                         _______ _______ _______ _____ _____    ______ ____
ROOT
ATOM      1  C   UNL     1      -6.398   3.450 125.211  0.00  0.00    +0.000 C 
ENDROOT
BRANCH   1   2
ATOM      2  C   UNL     1      -6.622   3.548 123.656  0.00  0.00    +0.000 A 
ATOM      3  C   UNL     1      -7.843   3.192 123.045  0.00  0.00    +0.000 A 
ATOM      4 CL   UNL     1      -9.141   2.430 123.897  0.00  0.00    +0.000 Cl
ATOM      5  C   UNL     1      -8.059   3.389 121.671  0.00  0.00    +0.000 A 
ATOM      6  C   UNL     1      -7.042   3.868 120.854  0.00  0.00    +0.000 A 
ATOM      7 CL   UNL     1      -7.302   4.060 119.167  0.00  0.00    +0.000 Cl
ATOM      8  C   UNL     1      -5.808   4.169 121.397  0.00  0.00    +0.000 A 
ATOM      9  C   UNL     1      -5.611   4.020 122.772  0.00  0.00    +0.000 A 
ENDBRANCH   1   2
BRANCH   1  10
ATOM     10  S   UNL     1      -5.757   1.743 125.587  0.00  0.00    +0.000 S 
BRANCH  10  11
ATOM     11  C   UNL     1      -6.959   0.803 126.581  0.00  0.00    +0.000 C 
BRANCH  11  16
ATOM     12 CL   UNL     1      -9.718  -3.468 123.330  0.00  0.00    +0.000 Cl
ATOM     13  C   UNL     1      -8.847  -2.332 124.278  0.00  0.00    +0.000 A 
ATOM     14  C   UNL     1      -9.108  -2.204 125.640  0.00  0.00    +0.000 A 
ATOM     15  C   UNL     1      -8.465  -1.210 126.382  0.00  0.00    +0.000 A 
ATOM     16  C   UNL     1      -7.571  -0.325 125.758  0.00  0.00    +0.000 A 
ATOM     17  C   UNL     1      -7.258  -0.543 124.405  0.00  0.00    +0.000 A 
ATOM     18  C   UNL     1      -7.893  -1.531 123.666  0.00  0.00    +0.000 A 
ENDBRANCH  11  16
ENDBRANCH  10  11
ENDBRANCH   1  10
BRANCH   1  19
ATOM     19  C   UNL     1      -5.387   4.547 125.660  0.00  0.00    +0.000 C 
BRANCH  19  20
ATOM     20  N   UNL     1      -4.702   4.333 126.919  0.00  0.00    +0.000 N 
ATOM     21  C   UNL     1      -5.232   4.318 128.177  0.00  0.00    +0.000 A 
ATOM     22  C   UNL     1      -4.203   3.844 128.969  0.00  0.00    +0.000 A 
ATOM     23  N   UNL     1      -3.045   3.747 128.253  0.00  0.00    +0.000 NA
ATOM     24  C   UNL     1      -3.352   4.196 127.045  0.00  0.00    +0.000 A 
ENDBRANCH  19  20
ENDBRANCH   1  19
TORSDOF 6
ENDMDL
