MODEL 1
REMARK VINA RESULT:      -7.0      0.000      0.000
REMARK  Name = Sulfamethizole
REMARK  4 active torsions:
REMARK  status: ('A' for Active; 'I' for Inactive)
REMARK    1  A    between atoms: C_1  and  C_2
REMARK    2  A    between atoms: N_6  and  S_7
REMARK    3  A    between atoms: S_7  and  C_10
REMARK    4  A    between atoms: C_13  and  N_14
REMARK                            x       y       z     vdW  Elec       q    Type
REMARK                         _______ _______ _______ _____ _____    ______ ____
ROOT
ATOM      1  S   UNL     1      -8.554   2.403 122.964  0.00  0.00    +0.000 S 
ATOM      2  O   UNL     1      -9.678   1.869 122.218  0.00  0.00    +0.000 OA
ATOM      3  O   UNL     1      -8.719   3.326 124.062  0.00  0.00    +0.000 OA
ENDROOT
BRANCH   1   9
ATOM      4  C   UNL     1      -8.852  -2.981 126.504  0.00  0.00    +0.000 C 
ATOM      5  C   UNL     1      -8.789  -1.733 125.689  0.00  0.00    +0.000 A 
ATOM      6  N   UNL     1      -9.808  -0.924 125.495  0.00  0.00    +0.000 NA
ATOM      7  N   UNL     1      -9.481   0.161 124.696  0.00  0.00    +0.000 NA
ATOM      8  C   UNL     1      -8.228   0.142 124.310  0.00  0.00    +0.000 A 
ATOM      9  N   UNL     1      -7.618   1.123 123.487  0.00  0.00    +0.000 N 
ATOM     10  S   UNL     1      -7.346  -1.216 124.901  0.00  0.00    +0.000 S 
ATOM     11  H   UNL     1      -6.646   1.008 123.252  0.00  0.00    +0.000 HD
ENDBRANCH   1   9
BRANCH   1  12
ATOM     12  C   UNL     1      -7.576   3.301 121.742  0.00  0.00    +0.000 A 
ATOM     13  C   UNL     1      -6.226   3.596 121.922  0.00  0.00    +0.000 A 
ATOM     14  C   UNL     1      -5.525   4.305 120.931  0.00  0.00    +0.000 A 
ATOM     15  C   UNL     1      -6.144   4.710 119.746  0.00  0.00    +0.000 A 
ATOM     16  C   UNL     1      -7.498   4.422 119.576  0.00  0.00    +0.000 A 
ATOM     17  C   UNL     1      -8.214   3.720 120.562  0.00  0.00    +0.000 A 
BRANCH  15  18
ATOM     18  N   UNL     1      -5.446   5.455 118.811  0.00  0.00    +0.000 N 
ATOM     19  H   UNL     1      -4.435   5.451 118.801  0.00  0.00    +0.000 HD
ATOM     20  H   UNL     1      -5.920   5.842 118.005  0.00  0.00    +0.000 HD
ENDBRANCH  15  18
ENDBRANCH   1  12
TORSDOF 3
ENDMDL
MODEL 2
REMARK VINA RESULT:      -6.4      1.858      2.088
REMARK  Name = Sulfamethizole
REMARK  4 active torsions:
REMARK  status: ('A' for Active; 'I' for Inactive)
REMARK    1  A    between atoms: C_1  and  C_2
REMARK    2  A    between atoms: N_6  and  S_7
REMARK    3  A    between atoms: S_7  and  C_10
REMARK    4  A    between atoms: C_13  and  N_14
REMARK                            x       y       z     vdW  Elec       q    Type
REMARK                         _______ _______ _______ _____ _____    ______ ____
ROOT
ATOM      1  S   UNL     1      -8.505   2.552 124.242  0.00  0.00    +0.000 S 
ATOM      2  O   UNL     1      -9.501   1.730 123.579  0.00  0.00    +0.000 OA
ATOM      3  O   UNL     1      -8.857   3.680 125.072  0.00  0.00    +0.000 OA
ENDROOT
BRANCH   1   9
ATOM      4  C   UNL     1      -5.236  -2.991 123.794  0.00  0.00    +0.000 C 
ATOM      5  C   UNL     1      -5.997  -1.711 123.892  0.00  0.00    +0.000 A 
ATOM      6  N   UNL     1      -6.732  -1.211 122.922  0.00  0.00    +0.000 NA
ATOM      7  N   UNL     1      -7.329  -0.011 123.273  0.00  0.00    +0.000 NA
ATOM      8  C   UNL     1      -7.030   0.363 124.493  0.00  0.00    +0.000 A 
ATOM      9  N   UNL     1      -7.497   1.547 125.117  0.00  0.00    +0.000 N 
ATOM     10  S   UNL     1      -5.987  -0.738 125.314  0.00  0.00    +0.000 S 
ATOM     11  H   UNL     1      -7.204   1.736 126.061  0.00  0.00    +0.000 HD
ENDBRANCH   1   9
BRANCH   1  12
ATOM     12  C   UNL     1      -7.516   3.247 122.903  0.00  0.00    +0.000 A 
ATOM     13  C   UNL     1      -6.196   3.660 123.072  0.00  0.00    +0.000 A 
ATOM     14  C   UNL     1      -5.485   4.200 121.986  0.00  0.00    +0.000 A 
ATOM     15  C   UNL     1      -6.063   4.317 120.720  0.00  0.00    +0.000 A 
ATOM     16  C   UNL     1      -7.389   3.913 120.559  0.00  0.00    +0.000 A 
ATOM     17  C   UNL     1      -8.115   3.379 121.637  0.00  0.00    +0.000 A 
BRANCH  15  18
ATOM     18  N   UNL     1      -5.360   4.903 119.681  0.00  0.00    +0.000 N 
ATOM     19  H   UNL     1      -4.925   4.333 118.969  0.00  0.00    +0.000 HD
ATOM     20  H   UNL     1      -5.446   5.895 119.498  0.00  0.00    +0.000 HD
ENDBRANCH  15  18
ENDBRANCH   1  12
TORSDOF 3
ENDMDL
MODEL 3
REMARK VINA RESULT:      -6.3      2.674      2.951
REMARK  Name = Sulfamethizole
REMARK  4 active torsions:
REMARK  status: ('A' for Active; 'I' for Inactive)
REMARK    1  A    between atoms: C_1  and  C_2
REMARK    2  A    between atoms: N_6  and  S_7
REMARK    3  A    between atoms: S_7  and  C_10
REMARK    4  A    between atoms: C_13  and  N_14
REMARK                            x       y       z     vdW  Elec       q    Type
REMARK                         _______ _______ _______ _____ _____    ______ ____
ROOT
ATOM      1  S   UNL     1      -7.676   2.774 122.729  0.00  0.00    +0.000 S 
ATOM      2  O   UNL     1      -6.834   1.596 122.815  0.00  0.00    +0.000 OA
ATOM      3  O   UNL     1      -9.102   2.696 122.514  0.00  0.00    +0.000 OA
ENDROOT
BRANCH   1   9
ATOM      4  C   UNL     1      -8.412   2.788 129.138  0.00  0.00    +0.000 C 
ATOM      5  C   UNL     1      -8.248   2.780 127.655  0.00  0.00    +0.000 A 
ATOM      6  N   UNL     1      -8.617   1.787 126.875  0.00  0.00    +0.000 NA
ATOM      7  N   UNL     1      -8.348   2.033 125.538  0.00  0.00    +0.000 NA
ATOM      8  C   UNL     1      -7.784   3.200 125.344  0.00  0.00    +0.000 A 
ATOM      9  N   UNL     1      -7.398   3.715 124.081  0.00  0.00    +0.000 N 
ATOM     10  S   UNL     1      -7.539   4.096 126.797  0.00  0.00    +0.000 S 
ATOM     11  H   UNL     1      -6.972   4.627 124.049  0.00  0.00    +0.000 HD
ENDBRANCH   1   9
BRANCH   1  12
ATOM     12  C   UNL     1      -7.039   3.692 121.312  0.00  0.00    +0.000 A 
ATOM     13  C   UNL     1      -5.742   4.201 121.260  0.00  0.00    +0.000 A 
ATOM     14  C   UNL     1      -5.313   4.913 120.128  0.00  0.00    +0.000 A 
ATOM     15  C   UNL     1      -6.151   5.111 119.028  0.00  0.00    +0.000 A 
ATOM     16  C   UNL     1      -7.452   4.611 119.090  0.00  0.00    +0.000 A 
ATOM     17  C   UNL     1      -7.898   3.903 120.220  0.00  0.00    +0.000 A 
BRANCH  15  18
ATOM     18  N   UNL     1      -5.723   5.864 117.948  0.00  0.00    +0.000 N 
ATOM     19  H   UNL     1      -5.659   6.871 118.017  0.00  0.00    +0.000 HD
ATOM     20  H   UNL     1      -5.273   5.420 117.158  0.00  0.00    +0.000 HD
ENDBRANCH  15  18
ENDBRANCH   1  12
TORSDOF 3
ENDMDL
MODEL 4
REMARK VINA RESULT:      -6.2      9.067      9.835
REMARK  Name = Sulfamethizole
REMARK  4 active torsions:
REMARK  status: ('A' for Active; 'I' for Inactive)
REMARK    1  A    between atoms: C_1  and  C_2
REMARK    2  A    between atoms: N_6  and  S_7
REMARK    3  A    between atoms: S_7  and  C_10
REMARK    4  A    between atoms: C_13  and  N_14
REMARK                            x       y       z     vdW  Elec       q    Type
REMARK                         _______ _______ _______ _____ _____    ______ ____
ROOT
ATOM      1  S   UNL     1     -10.544   4.843 130.256  0.00  0.00    +0.000 S 
ATOM      2  O   UNL     1      -9.376   4.855 129.395  0.00  0.00    +0.000 OA
ATOM      3  O   UNL     1     -11.601   3.869 130.117  0.00  0.00    +0.000 OA
ENDROOT
BRANCH   1   9
ATOM      4  C   UNL     1      -6.431   1.851 134.224  0.00  0.00    +0.000 C 
ATOM      5  C   UNL     1      -7.382   2.537 133.302  0.00  0.00    +0.000 A 
ATOM      6  N   UNL     1      -7.518   2.244 132.027  0.00  0.00    +0.000 NA
ATOM      7  N   UNL     1      -8.467   3.033 131.398  0.00  0.00    +0.000 NA
ATOM      8  C   UNL     1      -9.022   3.899 132.211  0.00  0.00    +0.000 A 
ATOM      9  N   UNL     1     -10.022   4.833 131.843  0.00  0.00    +0.000 N 
ATOM     10  S   UNL     1      -8.419   3.811 133.824  0.00  0.00    +0.000 S 
ATOM     11  H   UNL     1     -10.379   5.453 132.552  0.00  0.00    +0.000 HD
ENDBRANCH   1   9
BRANCH   1  12
ATOM     12  C   UNL     1     -11.339   6.438 129.976  0.00  0.00    +0.000 A 
ATOM     13  C   UNL     1     -12.312   6.959 130.827  0.00  0.00    +0.000 A 
ATOM     14  C   UNL     1     -12.895   8.206 130.546  0.00  0.00    +0.000 A 
ATOM     15  C   UNL     1     -12.508   8.960 129.436  0.00  0.00    +0.000 A 
ATOM     16  C   UNL     1     -11.542   8.430 128.581  0.00  0.00    +0.000 A 
ATOM     17  C   UNL     1     -10.955   7.180 128.845  0.00  0.00    +0.000 A 
BRANCH  15  18
ATOM     18  N   UNL     1     -13.138  10.160 129.150  0.00  0.00    +0.000 N 
ATOM     19  H   UNL     1     -12.951  10.983 129.706  0.00  0.00    +0.000 HD
ATOM     20  H   UNL     1     -13.622  10.289 128.272  0.00  0.00    +0.000 HD
ENDBRANCH  15  18
ENDBRANCH   1  12
TORSDOF 3
ENDMDL
MODEL 5
REMARK VINA RESULT:      -6.1      7.831      8.901
REMARK  Name = Sulfamethizole
REMARK  4 active torsions:
REMARK  status: ('A' for Active; 'I' for Inactive)
REMARK    1  A    between atoms: C_1  and  C_2
REMARK    2  A    between atoms: N_6  and  S_7
REMARK    3  A    between atoms: S_7  and  C_10
REMARK    4  A    between atoms: C_13  and  N_14
REMARK                            x       y       z     vdW  Elec       q    Type
REMARK                         _______ _______ _______ _____ _____    ______ ____
ROOT
ATOM      1  S   UNL     1      -9.118   6.438 130.946  0.00  0.00    +0.000 S 
ATOM      2  O   UNL     1      -9.548   6.553 132.327  0.00  0.00    +0.000 OA
ATOM      3  O   UNL     1      -8.054   7.244 130.394  0.00  0.00    +0.000 OA
ENDROOT
BRANCH   1   9
ATOM      4  C   UNL     1      -7.627   2.406 126.137  0.00  0.00    +0.000 C 
ATOM      5  C   UNL     1      -7.975   3.343 127.244  0.00  0.00    +0.000 A 
ATOM      6  N   UNL     1      -8.184   4.632 127.084  0.00  0.00    +0.000 NA
ATOM      7  N   UNL     1      -8.488   5.273 128.275  0.00  0.00    +0.000 NA
ATOM      8  C   UNL     1      -8.500   4.455 129.299  0.00  0.00    +0.000 A 
ATOM      9  N   UNL     1      -8.779   4.832 130.636  0.00  0.00    +0.000 N 
ATOM     10  S   UNL     1      -8.139   2.822 128.878  0.00  0.00    +0.000 S 
ATOM     11  H   UNL     1      -8.761   4.118 131.346  0.00  0.00    +0.000 HD
ENDBRANCH   1   9
BRANCH   1  12
ATOM     12  C   UNL     1     -10.578   6.861 129.973  0.00  0.00    +0.000 A 
ATOM     13  C   UNL     1     -11.751   6.109 130.002  0.00  0.00    +0.000 A 
ATOM     14  C   UNL     1     -12.849   6.492 129.214  0.00  0.00    +0.000 A 
ATOM     15  C   UNL     1     -12.807   7.632 128.407  0.00  0.00    +0.000 A 
ATOM     16  C   UNL     1     -11.627   8.374 128.372  0.00  0.00    +0.000 A 
ATOM     17  C   UNL     1     -10.517   7.999 129.149  0.00  0.00    +0.000 A 
BRANCH  15  18
ATOM     18  N   UNL     1     -13.883   7.956 127.597  0.00  0.00    +0.000 N 
ATOM     19  H   UNL     1     -14.012   7.495 126.706  0.00  0.00    +0.000 HD
ATOM     20  H   UNL     1     -14.659   8.492 127.963  0.00  0.00    +0.000 HD
ENDBRANCH  15  18
ENDBRANCH   1  12
TORSDOF 3
ENDMDL
MODEL 6
REMARK VINA RESULT:      -6.0      9.133     10.013
REMARK  Name = Sulfamethizole
REMARK  4 active torsions:
REMARK  status: ('A' for Active; 'I' for Inactive)
REMARK    1  A    between atoms: C_1  and  C_2
REMARK    2  A    between atoms: N_6  and  S_7
REMARK    3  A    between atoms: S_7  and  C_10
REMARK    4  A    between atoms: C_13  and  N_14
REMARK                            x       y       z     vdW  Elec       q    Type
REMARK                         _______ _______ _______ _____ _____    ______ ____
ROOT
ATOM      1  S   UNL     1     -10.175   4.789 129.995  0.00  0.00    +0.000 S 
ATOM      2  O   UNL     1      -9.286   4.653 128.856  0.00  0.00    +0.000 OA
ATOM      3  O   UNL     1     -11.226   3.840 130.278  0.00  0.00    +0.000 OA
ENDROOT
BRANCH   1   9
ATOM      4  C   UNL     1      -4.409   6.907 131.965  0.00  0.00    +0.000 C 
ATOM      5  C   UNL     1      -5.740   6.416 131.502  0.00  0.00    +0.000 A 
ATOM      6  N   UNL     1      -6.144   6.442 130.251  0.00  0.00    +0.000 NA
ATOM      7  N   UNL     1      -7.422   5.929 130.094  0.00  0.00    +0.000 NA
ATOM      8  C   UNL     1      -7.948   5.531 131.227  0.00  0.00    +0.000 A 
ATOM      9  N   UNL     1      -9.240   4.967 131.368  0.00  0.00    +0.000 N 
ATOM     10  S   UNL     1      -6.907   5.755 132.584  0.00  0.00    +0.000 S 
ATOM     11  H   UNL     1      -9.543   4.695 132.289  0.00  0.00    +0.000 HD
ENDBRANCH   1   9
BRANCH   1  12
ATOM     12  C   UNL     1     -11.022   6.361 129.732  0.00  0.00    +0.000 A 
ATOM     13  C   UNL     1     -12.075   6.797 130.535  0.00  0.00    +0.000 A 
ATOM     14  C   UNL     1     -12.694   8.030 130.269  0.00  0.00    +0.000 A 
ATOM     15  C   UNL     1     -12.267   8.853 129.224  0.00  0.00    +0.000 A 
ATOM     16  C   UNL     1     -11.221   8.406 128.416  0.00  0.00    +0.000 A 
ATOM     17  C   UNL     1     -10.597   7.171 128.665  0.00  0.00    +0.000 A 
BRANCH  15  18
ATOM     18  N   UNL     1     -12.931  10.036 128.949  0.00  0.00    +0.000 N 
ATOM     19  H   UNL     1     -13.583  10.092 128.179  0.00  0.00    +0.000 HD
ATOM     20  H   UNL     1     -12.939  10.790 129.624  0.00  0.00    +0.000 HD
ENDBRANCH  15  18
ENDBRANCH   1  12
TORSDOF 3
ENDMDL
MODEL 7
REMARK VINA RESULT:      -6.0      9.532     10.691
REMARK  Name = Sulfamethizole
REMARK  4 active torsions:
REMARK  status: ('A' for Active; 'I' for Inactive)
REMARK    1  A    between atoms: C_1  and  C_2
REMARK    2  A    between atoms: N_6  and  S_7
REMARK    3  A    between atoms: S_7  and  C_10
REMARK    4  A    between atoms: C_13  and  N_14
REMARK                            x       y       z     vdW  Elec       q    Type
REMARK                         _______ _______ _______ _____ _____    ______ ____
ROOT
ATOM      1  S   UNL     1      -8.473   5.993 131.609  0.00  0.00    +0.000 S 
ATOM      2  O   UNL     1      -9.130   6.300 132.866  0.00  0.00    +0.000 OA
ATOM      3  O   UNL     1      -8.534   4.684 131.000  0.00  0.00    +0.000 OA
ENDROOT
BRANCH   1   9
ATOM      4  C   UNL     1     -13.288   7.364 127.540  0.00  0.00    +0.000 C 
ATOM      5  C   UNL     1     -12.176   7.039 128.481  0.00  0.00    +0.000 A 
ATOM      6  N   UNL     1     -12.154   5.983 129.264  0.00  0.00    +0.000 NA
ATOM      7  N   UNL     1     -11.008   5.920 130.041  0.00  0.00    +0.000 NA
ATOM      8  C   UNL     1     -10.198   6.928 129.825  0.00  0.00    +0.000 A 
ATOM      9  N   UNL     1      -8.955   7.124 130.478  0.00  0.00    +0.000 N 
ATOM     10  S   UNL     1     -10.782   8.039 128.643  0.00  0.00    +0.000 S 
ATOM     11  H   UNL     1      -8.412   7.935 130.233  0.00  0.00    +0.000 HD
ENDBRANCH   1   9
BRANCH   1  12
ATOM     12  C   UNL     1      -6.720   6.281 131.924  0.00  0.00    +0.000 A 
ATOM     13  C   UNL     1      -6.083   5.868 133.093  0.00  0.00    +0.000 A 
ATOM     14  C   UNL     1      -4.715   6.132 133.276  0.00  0.00    +0.000 A 
ATOM     15  C   UNL     1      -3.959   6.785 132.300  0.00  0.00    +0.000 A 
ATOM     16  C   UNL     1      -4.604   7.208 131.137  0.00  0.00    +0.000 A 
ATOM     17  C   UNL     1      -5.974   6.958 130.943  0.00  0.00    +0.000 A 
BRANCH  15  18
ATOM     18  N   UNL     1      -2.626   7.083 132.529  0.00  0.00    +0.000 N 
ATOM     19  H   UNL     1      -2.311   7.353 133.451  0.00  0.00    +0.000 HD
ATOM     20  H   UNL     1      -1.920   6.836 131.848  0.00  0.00    +0.000 HD
ENDBRANCH  15  18
ENDBRANCH   1  12
TORSDOF 3
ENDMDL
MODEL 8
REMARK VINA RESULT:      -5.9      8.576      9.308
REMARK  Name = Sulfamethizole
REMARK  4 active torsions:
REMARK  status: ('A' for Active; 'I' for Inactive)
REMARK    1  A    between atoms: C_1  and  C_2
REMARK    2  A    between atoms: N_6  and  S_7
REMARK    3  A    between atoms: S_7  and  C_10
REMARK    4  A    between atoms: C_13  and  N_14
REMARK                            x       y       z     vdW  Elec       q    Type
REMARK                         _______ _______ _______ _____ _____    ______ ____
ROOT
ATOM      1  S   UNL     1     -10.428   5.277 130.491  0.00  0.00    +0.000 S 
ATOM      2  O   UNL     1     -11.273   4.196 130.018  0.00  0.00    +0.000 OA
ATOM      3  O   UNL     1     -10.142   5.484 131.891  0.00  0.00    +0.000 OA
ENDROOT
BRANCH   1   9
ATOM      4  C   UNL     1      -5.010   1.809 130.018  0.00  0.00    +0.000 C 
ATOM      5  C   UNL     1      -6.264   2.608 130.135  0.00  0.00    +0.000 A 
ATOM      6  N   UNL     1      -7.246   2.329 130.965  0.00  0.00    +0.000 NA
ATOM      7  N   UNL     1      -8.295   3.228 130.869  0.00  0.00    +0.000 NA
ATOM      8  C   UNL     1      -8.080   4.160 129.972  0.00  0.00    +0.000 A 
ATOM      9  N   UNL     1      -8.980   5.210 129.661  0.00  0.00    +0.000 N 
ATOM     10  S   UNL     1      -6.561   4.006 129.171  0.00  0.00    +0.000 S 
ATOM     11  H   UNL     1      -8.711   5.873 128.952  0.00  0.00    +0.000 HD
ENDBRANCH   1   9
BRANCH   1  12
ATOM     12  C   UNL     1     -11.268   6.783 129.958  0.00  0.00    +0.000 A 
ATOM     13  C   UNL     1     -10.956   7.444 128.771  0.00  0.00    +0.000 A 
ATOM     14  C   UNL     1     -11.645   8.617 128.419  0.00  0.00    +0.000 A 
ATOM     15  C   UNL     1     -12.662   9.136 129.224  0.00  0.00    +0.000 A 
ATOM     16  C   UNL     1     -12.962   8.478 130.417  0.00  0.00    +0.000 A 
ATOM     17  C   UNL     1     -12.276   7.307 130.785  0.00  0.00    +0.000 A 
BRANCH  15  18
ATOM     18  N   UNL     1     -13.287  10.324 128.883  0.00  0.00    +0.000 N 
ATOM     19  H   UNL     1     -12.770  11.064 128.428  0.00  0.00    +0.000 HD
ATOM     20  H   UNL     1     -14.296  10.393 128.889  0.00  0.00    +0.000 HD
ENDBRANCH  15  18
ENDBRANCH   1  12
TORSDOF 3
ENDMDL
MODEL 9
REMARK VINA RESULT:      -5.9      9.882     10.576
REMARK  Name = Sulfamethizole
REMARK  4 active torsions:
REMARK  status: ('A' for Active; 'I' for Inactive)
REMARK    1  A    between atoms: C_1  and  C_2
REMARK    2  A    between atoms: N_6  and  S_7
REMARK    3  A    between atoms: S_7  and  C_10
REMARK    4  A    between atoms: C_13  and  N_14
REMARK                            x       y       z     vdW  Elec       q    Type
REMARK                         _______ _______ _______ _____ _____    ______ ____
ROOT
ATOM      1  S   UNL     1      -9.127   6.073 131.515  0.00  0.00    +0.000 S 
ATOM      2  O   UNL     1      -9.134   4.734 130.953  0.00  0.00    +0.000 OA
ATOM      3  O   UNL     1      -9.376   6.330 132.914  0.00  0.00    +0.000 OA
ENDROOT
BRANCH   1   9
ATOM      4  C   UNL     1      -2.737   5.468 132.155  0.00  0.00    +0.000 C 
ATOM      5  C   UNL     1      -4.216   5.604 132.014  0.00  0.00    +0.000 A 
ATOM      6  N   UNL     1      -5.089   4.765 132.528  0.00  0.00    +0.000 NA
ATOM      7  N   UNL     1      -6.398   5.120 132.245  0.00  0.00    +0.000 NA
ATOM      8  C   UNL     1      -6.480   6.214 131.527  0.00  0.00    +0.000 A 
ATOM      9  N   UNL     1      -7.689   6.810 131.090  0.00  0.00    +0.000 N 
ATOM     10  S   UNL     1      -4.945   6.899 131.141  0.00  0.00    +0.000 S 
ATOM     11  H   UNL     1      -7.634   7.652 130.543  0.00  0.00    +0.000 HD
ENDBRANCH   1   9
BRANCH   1  12
ATOM     12  C   UNL     1     -10.441   6.946 130.638  0.00  0.00    +0.000 A 
ATOM     13  C   UNL     1     -11.764   6.961 131.077  0.00  0.00    +0.000 A 
ATOM     14  C   UNL     1     -12.739   7.656 130.342  0.00  0.00    +0.000 A 
ATOM     15  C   UNL     1     -12.414   8.360 129.180  0.00  0.00    +0.000 A 
ATOM     16  C   UNL     1     -11.091   8.331 128.738  0.00  0.00    +0.000 A 
ATOM     17  C   UNL     1     -10.106   7.634 129.459  0.00  0.00    +0.000 A 
BRANCH  15  18
ATOM     18  N   UNL     1     -13.402   8.990 128.443  0.00  0.00    +0.000 N 
ATOM     19  H   UNL     1     -13.523   8.781 127.461  0.00  0.00    +0.000 HD
ATOM     20  H   UNL     1     -14.143   9.499 128.907  0.00  0.00    +0.000 HD
ENDBRANCH  15  18
ENDBRANCH   1  12
TORSDOF 3
ENDMDL
