MODEL 1
REMARK VINA RESULT:      -7.1      0.000      0.000
REMARK  Name = Sulfoxone
REMARK  10 active torsions:
REMARK  status: ('A' for Active; 'I' for Inactive)
REMARK    1  A    between atoms: O_1  and  S_2
REMARK    2  A    between atoms: S_2  and  C_4
REMARK    3  A    between atoms: C_4  and  N_5
REMARK    4  A    between atoms: N_5  and  C_6
REMARK    5  A    between atoms: C_9  and  S_12
REMARK    6  A    between atoms: S_12  and  C_15
REMARK    7  A    between atoms: C_18  and  N_19
REMARK    8  A    between atoms: N_19  and  C_20
REMARK    9  A    between atoms: C_20  and  S_21
REMARK   10  A    between atoms: S_21  and  O_22
REMARK                            x       y       z     vdW  Elec       q    Type
REMARK                         _______ _______ _______ _____ _____    ______ ____
ROOT
ATOM      1  S   UNL     1      -7.160  -1.073 130.725  0.00  0.00    +0.000 S 
ATOM      2  O   UNL     1      -7.550  -1.967 131.807  0.00  0.00    +0.000 OA
ATOM      3  O   UNL     1      -5.795  -0.611 130.600  0.00  0.00    +0.000 OA
ENDROOT
BRANCH   1   7
ATOM      4  C   UNL     1      -8.257  -3.149 126.758  0.00  0.00    +0.000 A 
ATOM      5  C   UNL     1      -7.461  -1.991 126.783  0.00  0.00    +0.000 A 
ATOM      6  C   UNL     1      -7.064  -1.397 127.995  0.00  0.00    +0.000 A 
ATOM      7  C   UNL     1      -7.539  -1.918 129.201  0.00  0.00    +0.000 A 
ATOM      8  C   UNL     1      -8.352  -3.046 129.190  0.00  0.00    +0.000 A 
ATOM      9  C   UNL     1      -8.707  -3.646 127.980  0.00  0.00    +0.000 A 
BRANCH   4  10
ATOM     10  N   UNL     1      -8.591  -3.732 125.550  0.00  0.00    +0.000 N 
ATOM     11  H   UNL     1      -9.527  -4.122 125.479  0.00  0.00    +0.000 HD
BRANCH  10  12
ATOM     12  C   UNL     1      -7.883  -3.475 124.301  0.00  0.00    +0.000 C 
BRANCH  12  13
ATOM     13  S   UNL     1      -9.032  -2.595 123.157  0.00  0.00    +0.000 S 
ATOM     14  O   UNL     1      -9.471  -1.308 123.784  0.00  0.00    +0.000 OA
BRANCH  13  15
ATOM     15  O   UNL     1     -10.258  -3.620 123.336  0.00  0.00    +0.000 OA
ATOM     16  H   UNL     1     -10.122  -4.100 124.189  0.00  0.00    +0.000 HD
ENDBRANCH  13  15
ENDBRANCH  12  13
ENDBRANCH  10  12
ENDBRANCH   4  10
ENDBRANCH   1   7
BRANCH   1  17
ATOM     17  C   UNL     1      -8.193   0.375 130.901  0.00  0.00    +0.000 A 
ATOM     18  C   UNL     1      -9.142   0.469 131.920  0.00  0.00    +0.000 A 
ATOM     19  C   UNL     1     -10.016   1.570 131.950  0.00  0.00    +0.000 A 
ATOM     20  C   UNL     1      -9.891   2.637 131.045  0.00  0.00    +0.000 A 
ATOM     21  C   UNL     1      -8.919   2.517 130.044  0.00  0.00    +0.000 A 
ATOM     22  C   UNL     1      -8.093   1.392 129.952  0.00  0.00    +0.000 A 
BRANCH  20  23
ATOM     23  N   UNL     1     -10.708   3.754 131.172  0.00  0.00    +0.000 N 
ATOM     24  H   UNL     1     -11.337   3.804 131.960  0.00  0.00    +0.000 HD
BRANCH  23  25
ATOM     25  C   UNL     1     -10.601   4.884 130.257  0.00  0.00    +0.000 C 
BRANCH  25  26
ATOM     26  S   UNL     1     -10.761   6.479 131.163  0.00  0.00    +0.000 S 
ATOM     27  O   UNL     1      -9.561   6.600 132.055  0.00  0.00    +0.000 OA
BRANCH  26  28
ATOM     28  O   UNL     1     -11.973   5.993 132.102  0.00  0.00    +0.000 OA
ATOM     29  H   UNL     1     -12.542   6.754 132.349  0.00  0.00    +0.000 HD
ENDBRANCH  26  28
ENDBRANCH  25  26
ENDBRANCH  23  25
ENDBRANCH  20  23
ENDBRANCH   1  17
TORSDOF 10
ENDMDL
MODEL 2
REMARK VINA RESULT:      -7.1      0.801      8.230
REMARK  Name = Sulfoxone
REMARK  10 active torsions:
REMARK  status: ('A' for Active; 'I' for Inactive)
REMARK    1  A    between atoms: O_1  and  S_2
REMARK    2  A    between atoms: S_2  and  C_4
REMARK    3  A    between atoms: C_4  and  N_5
REMARK    4  A    between atoms: N_5  and  C_6
REMARK    5  A    between atoms: C_9  and  S_12
REMARK    6  A    between atoms: S_12  and  C_15
REMARK    7  A    between atoms: C_18  and  N_19
REMARK    8  A    between atoms: N_19  and  C_20
REMARK    9  A    between atoms: C_20  and  S_21
REMARK   10  A    between atoms: S_21  and  O_22
REMARK                            x       y       z     vdW  Elec       q    Type
REMARK                         _______ _______ _______ _____ _____    ______ ____
ROOT
ATOM      1  S   UNL     1      -7.364  -0.828 130.776  0.00  0.00    +0.000 S 
ATOM      2  O   UNL     1      -5.971  -0.411 130.697  0.00  0.00    +0.000 OA
ATOM      3  O   UNL     1      -7.826  -1.672 131.857  0.00  0.00    +0.000 OA
ENDROOT
BRANCH   1   7
ATOM      4  C   UNL     1     -10.013   2.941 130.920  0.00  0.00    +0.000 A 
ATOM      5  C   UNL     1     -10.118   1.934 131.895  0.00  0.00    +0.000 A 
ATOM      6  C   UNL     1      -9.263   0.818 131.895  0.00  0.00    +0.000 A 
ATOM      7  C   UNL     1      -8.341   0.661 130.857  0.00  0.00    +0.000 A 
ATOM      8  C   UNL     1      -8.246   1.635 129.869  0.00  0.00    +0.000 A 
ATOM      9  C   UNL     1      -9.078   2.756 129.903  0.00  0.00    +0.000 A 
BRANCH   4  10
ATOM     10  N   UNL     1     -10.841   4.047 130.976  0.00  0.00    +0.000 N 
ATOM     11  H   UNL     1     -11.835   3.864 131.083  0.00  0.00    +0.000 HD
BRANCH  10  12
ATOM     12  C   UNL     1     -10.377   5.393 131.294  0.00  0.00    +0.000 C 
BRANCH  12  13
ATOM     13  S   UNL     1     -11.589   6.600 130.601  0.00  0.00    +0.000 S 
ATOM     14  O   UNL     1     -12.739   6.750 131.547  0.00  0.00    +0.000 OA
BRANCH  13  15
ATOM     15  O   UNL     1     -12.109   5.646 129.415  0.00  0.00    +0.000 OA
ATOM     16  H   UNL     1     -11.671   5.943 128.580  0.00  0.00    +0.000 HD
ENDBRANCH  13  15
ENDBRANCH  12  13
ENDBRANCH  10  12
ENDBRANCH   4  10
ENDBRANCH   1   7
BRANCH   1  17
ATOM     17  C   UNL     1      -7.693  -1.699 129.249  0.00  0.00    +0.000 A 
ATOM     18  C   UNL     1      -7.424  -1.117 128.011  0.00  0.00    +0.000 A 
ATOM     19  C   UNL     1      -7.810  -1.785 126.834  0.00  0.00    +0.000 A 
ATOM     20  C   UNL     1      -8.361  -3.076 126.867  0.00  0.00    +0.000 A 
ATOM     21  C   UNL     1      -8.604  -3.638 128.126  0.00  0.00    +0.000 A 
ATOM     22  C   UNL     1      -8.299  -2.953 129.308  0.00  0.00    +0.000 A 
BRANCH  20  23
ATOM     23  N   UNL     1      -8.634  -3.744 125.679  0.00  0.00    +0.000 N 
ATOM     24  H   UNL     1      -9.412  -4.387 125.656  0.00  0.00    +0.000 HD
BRANCH  23  25
ATOM     25  C   UNL     1      -7.891  -3.461 124.457  0.00  0.00    +0.000 C 
BRANCH  25  26
ATOM     26  S   UNL     1      -8.961  -2.616 123.220  0.00  0.00    +0.000 S 
ATOM     27  O   UNL     1      -9.353  -1.293 123.809  0.00  0.00    +0.000 OA
BRANCH  26  28
ATOM     28  O   UNL     1     -10.222  -3.593 123.425  0.00  0.00    +0.000 OA
ATOM     29  H   UNL     1     -10.133  -4.097 124.262  0.00  0.00    +0.000 HD
ENDBRANCH  26  28
ENDBRANCH  25  26
ENDBRANCH  23  25
ENDBRANCH  20  23
ENDBRANCH   1  17
TORSDOF 10
ENDMDL
MODEL 3
REMARK VINA RESULT:      -6.8      5.233      7.849
REMARK  Name = Sulfoxone
REMARK  10 active torsions:
REMARK  status: ('A' for Active; 'I' for Inactive)
REMARK    1  A    between atoms: O_1  and  S_2
REMARK    2  A    between atoms: S_2  and  C_4
REMARK    3  A    between atoms: C_4  and  N_5
REMARK    4  A    between atoms: N_5  and  C_6
REMARK    5  A    between atoms: C_9  and  S_12
REMARK    6  A    between atoms: S_12  and  C_15
REMARK    7  A    between atoms: C_18  and  N_19
REMARK    8  A    between atoms: N_19  and  C_20
REMARK    9  A    between atoms: C_20  and  S_21
REMARK   10  A    between atoms: S_21  and  O_22
REMARK                            x       y       z     vdW  Elec       q    Type
REMARK                         _______ _______ _______ _____ _____    ______ ____
ROOT
ATOM      1  S   UNL     1      -8.462  -2.266 124.264  0.00  0.00    +0.000 S 
ATOM      2  O   UNL     1      -9.833  -2.619 123.924  0.00  0.00    +0.000 OA
ATOM      3  O   UNL     1      -7.346  -2.992 123.698  0.00  0.00    +0.000 OA
ENDROOT
BRANCH   1   7
ATOM      4  C   UNL     1      -7.925   2.097 122.872  0.00  0.00    +0.000 A 
ATOM      5  C   UNL     1      -9.197   1.566 123.145  0.00  0.00    +0.000 A 
ATOM      6  C   UNL     1      -9.359   0.259 123.639  0.00  0.00    +0.000 A 
ATOM      7  C   UNL     1      -8.239  -0.562 123.784  0.00  0.00    +0.000 A 
ATOM      8  C   UNL     1      -6.976  -0.061 123.489  0.00  0.00    +0.000 A 
ATOM      9  C   UNL     1      -6.828   1.252 123.035  0.00  0.00    +0.000 A 
BRANCH   4  10
ATOM     10  N   UNL     1      -7.800   3.400 122.431  0.00  0.00    +0.000 N 
ATOM     11  H   UNL     1      -7.852   4.126 123.141  0.00  0.00    +0.000 HD
BRANCH  10  12
ATOM     12  C   UNL     1      -7.215   3.770 121.147  0.00  0.00    +0.000 C 
BRANCH  12  13
ATOM     13  S   UNL     1      -5.427   4.140 121.411  0.00  0.00    +0.000 S 
ATOM     14  O   UNL     1      -5.238   4.748 122.766  0.00  0.00    +0.000 OA
BRANCH  13  15
ATOM     15  O   UNL     1      -5.355   5.356 120.362  0.00  0.00    +0.000 OA
ATOM     16  H   UNL     1      -6.159   5.914 120.498  0.00  0.00    +0.000 HD
ENDBRANCH  13  15
ENDBRANCH  12  13
ENDBRANCH  10  12
ENDBRANCH   4  10
ENDBRANCH   1   7
BRANCH   1  17
ATOM     17  C   UNL     1      -8.349  -2.425 126.041  0.00  0.00    +0.000 A 
ATOM     18  C   UNL     1      -7.730  -1.446 126.819  0.00  0.00    +0.000 A 
ATOM     19  C   UNL     1      -7.556  -1.667 128.197  0.00  0.00    +0.000 A 
ATOM     20  C   UNL     1      -8.086  -2.800 128.836  0.00  0.00    +0.000 A 
ATOM     21  C   UNL     1      -8.715  -3.755 128.028  0.00  0.00    +0.000 A 
ATOM     22  C   UNL     1      -8.827  -3.588 126.643  0.00  0.00    +0.000 A 
BRANCH  20  23
ATOM     23  N   UNL     1      -7.982  -2.931 130.215  0.00  0.00    +0.000 N 
ATOM     24  H   UNL     1      -8.821  -3.114 130.746  0.00  0.00    +0.000 HD
BRANCH  23  25
ATOM     25  C   UNL     1      -6.688  -2.913 130.887  0.00  0.00    +0.000 C 
BRANCH  25  26
ATOM     26  S   UNL     1      -5.748  -4.457 130.544  0.00  0.00    +0.000 S 
ATOM     27  O   UNL     1      -4.993  -4.799 131.794  0.00  0.00    +0.000 OA
BRANCH  26  28
ATOM     28  O   UNL     1      -4.687  -3.765 129.552  0.00  0.00    +0.000 OA
ATOM     29  H   UNL     1      -4.707  -2.789 129.655  0.00  0.00    +0.000 HD
ENDBRANCH  26  28
ENDBRANCH  25  26
ENDBRANCH  23  25
ENDBRANCH  20  23
ENDBRANCH   1  17
TORSDOF 10
ENDMDL
MODEL 4
REMARK VINA RESULT:      -6.7      5.355      7.681
REMARK  Name = Sulfoxone
REMARK  10 active torsions:
REMARK  status: ('A' for Active; 'I' for Inactive)
REMARK    1  A    between atoms: O_1  and  S_2
REMARK    2  A    between atoms: S_2  and  C_4
REMARK    3  A    between atoms: C_4  and  N_5
REMARK    4  A    between atoms: N_5  and  C_6
REMARK    5  A    between atoms: C_9  and  S_12
REMARK    6  A    between atoms: S_12  and  C_15
REMARK    7  A    between atoms: C_18  and  N_19
REMARK    8  A    between atoms: N_19  and  C_20
REMARK    9  A    between atoms: C_20  and  S_21
REMARK   10  A    between atoms: S_21  and  O_22
REMARK                            x       y       z     vdW  Elec       q    Type
REMARK                         _______ _______ _______ _____ _____    ______ ____
ROOT
ATOM      1  S   UNL     1      -8.425  -2.396 124.467  0.00  0.00    +0.000 S 
ATOM      2  O   UNL     1      -7.267  -3.085 123.913  0.00  0.00    +0.000 OA
ATOM      3  O   UNL     1      -9.768  -2.803 124.118  0.00  0.00    +0.000 OA
ENDROOT
BRANCH   1   7
ATOM      4  C   UNL     1      -7.979  -2.857 129.033  0.00  0.00    +0.000 A 
ATOM      5  C   UNL     1      -7.313  -1.837 128.330  0.00  0.00    +0.000 A 
ATOM      6  C   UNL     1      -7.504  -1.649 126.950  0.00  0.00    +0.000 A 
ATOM      7  C   UNL     1      -8.307  -2.545 126.241  0.00  0.00    +0.000 A 
ATOM      8  C   UNL     1      -8.948  -3.578 126.917  0.00  0.00    +0.000 A 
ATOM      9  C   UNL     1      -8.778  -3.729 128.295  0.00  0.00    +0.000 A 
BRANCH   4  10
ATOM     10  N   UNL     1      -7.803  -2.985 130.398  0.00  0.00    +0.000 N 
ATOM     11  H   UNL     1      -8.590  -3.357 130.923  0.00  0.00    +0.000 HD
BRANCH  10  12
ATOM     12  C   UNL     1      -6.499  -3.013 131.049  0.00  0.00    +0.000 C 
BRANCH  12  13
ATOM     13  S   UNL     1      -5.679  -4.613 130.632  0.00  0.00    +0.000 S 
ATOM     14  O   UNL     1      -5.232  -5.287 131.892  0.00  0.00    +0.000 OA
BRANCH  13  15
ATOM     15  O   UNL     1      -4.361  -3.956 129.986  0.00  0.00    +0.000 OA
ATOM     16  H   UNL     1      -4.489  -2.977 129.978  0.00  0.00    +0.000 HD
ENDBRANCH  13  15
ENDBRANCH  12  13
ENDBRANCH  10  12
ENDBRANCH   4  10
ENDBRANCH   1   7
BRANCH   1  17
ATOM     17  C   UNL     1      -8.247  -0.686 123.980  0.00  0.00    +0.000 A 
ATOM     18  C   UNL     1      -9.356   0.154 123.864  0.00  0.00    +0.000 A 
ATOM     19  C   UNL     1      -9.187   1.457 123.362  0.00  0.00    +0.000 A 
ATOM     20  C   UNL     1      -7.914   1.977 123.074  0.00  0.00    +0.000 A 
ATOM     21  C   UNL     1      -6.821   1.113 123.216  0.00  0.00    +0.000 A 
ATOM     22  C   UNL     1      -6.981  -0.211 123.639  0.00  0.00    +0.000 A 
BRANCH  20  23
ATOM     23  N   UNL     1      -7.780   3.302 122.678  0.00  0.00    +0.000 N 
ATOM     24  H   UNL     1      -7.906   4.027 123.369  0.00  0.00    +0.000 HD
BRANCH  23  25
ATOM     25  C   UNL     1      -7.366   3.655 121.325  0.00  0.00    +0.000 C 
BRANCH  25  26
ATOM     26  S   UNL     1      -5.554   3.972 121.255  0.00  0.00    +0.000 S 
ATOM     27  O   UNL     1      -5.207   4.807 122.452  0.00  0.00    +0.000 OA
BRANCH  26  28
ATOM     28  O   UNL     1      -5.631   4.985 120.007  0.00  0.00    +0.000 OA
ATOM     29  H   UNL     1      -4.968   5.702 120.106  0.00  0.00    +0.000 HD
ENDBRANCH  26  28
ENDBRANCH  25  26
ENDBRANCH  23  25
ENDBRANCH  20  23
ENDBRANCH   1  17
TORSDOF 10
ENDMDL
MODEL 5
REMARK VINA RESULT:      -6.7      4.703      6.909
REMARK  Name = Sulfoxone
REMARK  10 active torsions:
REMARK  status: ('A' for Active; 'I' for Inactive)
REMARK    1  A    between atoms: O_1  and  S_2
REMARK    2  A    between atoms: S_2  and  C_4
REMARK    3  A    between atoms: C_4  and  N_5
REMARK    4  A    between atoms: N_5  and  C_6
REMARK    5  A    between atoms: C_9  and  S_12
REMARK    6  A    between atoms: S_12  and  C_15
REMARK    7  A    between atoms: C_18  and  N_19
REMARK    8  A    between atoms: N_19  and  C_20
REMARK    9  A    between atoms: C_20  and  S_21
REMARK   10  A    between atoms: S_21  and  O_22
REMARK                            x       y       z     vdW  Elec       q    Type
REMARK                         _______ _______ _______ _____ _____    ______ ____
ROOT
ATOM      1  S   UNL     1      -8.619  -2.689 125.392  0.00  0.00    +0.000 S 
ATOM      2  O   UNL     1      -7.809  -3.553 124.544  0.00  0.00    +0.000 OA
ATOM      3  O   UNL     1     -10.039  -2.919 125.546  0.00  0.00    +0.000 OA
ENDROOT
BRANCH   1   7
ATOM      4  C   UNL     1      -6.723  -3.055 129.579  0.00  0.00    +0.000 A 
ATOM      5  C   UNL     1      -6.065  -2.387 128.532  0.00  0.00    +0.000 A 
ATOM      6  C   UNL     1      -6.671  -2.210 127.276  0.00  0.00    +0.000 A 
ATOM      7  C   UNL     1      -7.921  -2.783 127.031  0.00  0.00    +0.000 A 
ATOM      8  C   UNL     1      -8.572  -3.474 128.048  0.00  0.00    +0.000 A 
ATOM      9  C   UNL     1      -7.973  -3.609 129.303  0.00  0.00    +0.000 A 
BRANCH   4  10
ATOM     10  N   UNL     1      -6.117  -3.171 130.815  0.00  0.00    +0.000 N 
ATOM     11  H   UNL     1      -6.731  -3.148 131.625  0.00  0.00    +0.000 HD
BRANCH  10  12
ATOM     12  C   UNL     1      -4.777  -3.711 131.015  0.00  0.00    +0.000 C 
BRANCH  12  13
ATOM     13  S   UNL     1      -3.647  -2.314 131.436  0.00  0.00    +0.000 S 
ATOM     14  O   UNL     1      -2.604  -2.178 130.371  0.00  0.00    +0.000 OA
BRANCH  13  15
ATOM     15  O   UNL     1      -2.929  -3.053 132.672  0.00  0.00    +0.000 OA
ATOM     16  H   UNL     1      -2.028  -2.659 132.770  0.00  0.00    +0.000 HD
ENDBRANCH  13  15
ENDBRANCH  12  13
ENDBRANCH  10  12
ENDBRANCH   4  10
ENDBRANCH   1   7
BRANCH   1  17
ATOM     17  C   UNL     1      -8.419  -1.040 124.731  0.00  0.00    +0.000 A 
ATOM     18  C   UNL     1      -7.382  -0.734 123.850  0.00  0.00    +0.000 A 
ATOM     19  C   UNL     1      -7.187   0.600 123.448  0.00  0.00    +0.000 A 
ATOM     20  C   UNL     1      -8.077   1.621 123.823  0.00  0.00    +0.000 A 
ATOM     21  C   UNL     1      -9.116   1.275 124.696  0.00  0.00    +0.000 A 
ATOM     22  C   UNL     1      -9.276  -0.032 125.168  0.00  0.00    +0.000 A 
BRANCH  20  23
ATOM     23  N   UNL     1      -7.909   2.905 123.323  0.00  0.00    +0.000 N 
ATOM     24  H   UNL     1      -8.618   3.280 122.708  0.00  0.00    +0.000 HD
BRANCH  23  25
ATOM     25  C   UNL     1      -6.797   3.749 123.743  0.00  0.00    +0.000 C 
BRANCH  25  26
ATOM     26  S   UNL     1      -7.137   4.515 125.382  0.00  0.00    +0.000 S 
ATOM     27  O   UNL     1      -8.621   4.712 125.476  0.00  0.00    +0.000 OA
BRANCH  26  28
ATOM     28  O   UNL     1      -6.515   5.950 125.004  0.00  0.00    +0.000 OA
ATOM     29  H   UNL     1      -7.198   6.651 125.081  0.00  0.00    +0.000 HD
ENDBRANCH  26  28
ENDBRANCH  25  26
ENDBRANCH  23  25
ENDBRANCH  20  23
ENDBRANCH   1  17
TORSDOF 10
ENDMDL
MODEL 6
REMARK VINA RESULT:      -6.6      4.524      7.588
REMARK  Name = Sulfoxone
REMARK  10 active torsions:
REMARK  status: ('A' for Active; 'I' for Inactive)
REMARK    1  A    between atoms: O_1  and  S_2
REMARK    2  A    between atoms: S_2  and  C_4
REMARK    3  A    between atoms: C_4  and  N_5
REMARK    4  A    between atoms: N_5  and  C_6
REMARK    5  A    between atoms: C_9  and  S_12
REMARK    6  A    between atoms: S_12  and  C_15
REMARK    7  A    between atoms: C_18  and  N_19
REMARK    8  A    between atoms: N_19  and  C_20
REMARK    9  A    between atoms: C_20  and  S_21
REMARK   10  A    between atoms: S_21  and  O_22
REMARK                            x       y       z     vdW  Elec       q    Type
REMARK                         _______ _______ _______ _____ _____    ______ ____
ROOT
ATOM      1  S   UNL     1      -8.401  -2.750 124.859  0.00  0.00    +0.000 S 
ATOM      2  O   UNL     1      -9.799  -3.083 124.624  0.00  0.00    +0.000 OA
ATOM      3  O   UNL     1      -7.341  -3.500 124.222  0.00  0.00    +0.000 OA
ENDROOT
BRANCH   1   7
ATOM      4  C   UNL     1      -7.928   1.597 123.397  0.00  0.00    +0.000 A 
ATOM      5  C   UNL     1      -9.114   1.154 124.007  0.00  0.00    +0.000 A 
ATOM      6  C   UNL     1      -9.236  -0.150 124.519  0.00  0.00    +0.000 A 
ATOM      7  C   UNL     1      -8.186  -1.055 124.346  0.00  0.00    +0.000 A 
ATOM      8  C   UNL     1      -7.017  -0.640 123.717  0.00  0.00    +0.000 A 
ATOM      9  C   UNL     1      -6.898   0.670 123.246  0.00  0.00    +0.000 A 
BRANCH   4  10
ATOM     10  N   UNL     1      -7.827   2.899 122.945  0.00  0.00    +0.000 N 
ATOM     11  H   UNL     1      -8.660   3.295 122.517  0.00  0.00    +0.000 HD
BRANCH  10  12
ATOM     12  C   UNL     1      -6.800   3.835 123.387  0.00  0.00    +0.000 C 
BRANCH  12  13
ATOM     13  S   UNL     1      -7.169   4.317 125.130  0.00  0.00    +0.000 S 
ATOM     14  O   UNL     1      -8.651   4.449 125.307  0.00  0.00    +0.000 OA
BRANCH  13  15
ATOM     15  O   UNL     1      -6.600   5.816 125.008  0.00  0.00    +0.000 OA
ATOM     16  H   UNL     1      -5.701   5.827 125.418  0.00  0.00    +0.000 HD
ENDBRANCH  13  15
ENDBRANCH  12  13
ENDBRANCH  10  12
ENDBRANCH   4  10
ENDBRANCH   1   7
BRANCH   1  17
ATOM     17  C   UNL     1      -8.161  -2.894 126.625  0.00  0.00    +0.000 A 
ATOM     18  C   UNL     1      -8.915  -3.787 127.388  0.00  0.00    +0.000 A 
ATOM     19  C   UNL     1      -8.781  -3.783 128.788  0.00  0.00    +0.000 A 
ATOM     20  C   UNL     1      -7.828  -2.980 129.436  0.00  0.00    +0.000 A 
ATOM     21  C   UNL     1      -7.078  -2.106 128.639  0.00  0.00    +0.000 A 
ATOM     22  C   UNL     1      -7.254  -2.041 127.253  0.00  0.00    +0.000 A 
BRANCH  20  23
ATOM     23  N   UNL     1      -7.656  -3.080 130.811  0.00  0.00    +0.000 N 
ATOM     24  H   UNL     1      -8.471  -3.227 131.389  0.00  0.00    +0.000 HD
BRANCH  23  25
ATOM     25  C   UNL     1      -6.329  -3.079 131.416  0.00  0.00    +0.000 C 
BRANCH  25  26
ATOM     26  S   UNL     1      -5.413  -4.617 130.991  0.00  0.00    +0.000 S 
ATOM     27  O   UNL     1      -5.217  -5.379 132.267  0.00  0.00    +0.000 OA
BRANCH  26  28
ATOM     28  O   UNL     1      -4.017  -3.877 130.689  0.00  0.00    +0.000 OA
ATOM     29  H   UNL     1      -3.889  -3.122 131.303  0.00  0.00    +0.000 HD
ENDBRANCH  26  28
ENDBRANCH  25  26
ENDBRANCH  23  25
ENDBRANCH  20  23
ENDBRANCH   1  17
TORSDOF 10
ENDMDL
MODEL 7
REMARK VINA RESULT:      -6.6      4.252      7.739
REMARK  Name = Sulfoxone
REMARK  10 active torsions:
REMARK  status: ('A' for Active; 'I' for Inactive)
REMARK    1  A    between atoms: O_1  and  S_2
REMARK    2  A    between atoms: S_2  and  C_4
REMARK    3  A    between atoms: C_4  and  N_5
REMARK    4  A    between atoms: N_5  and  C_6
REMARK    5  A    between atoms: C_9  and  S_12
REMARK    6  A    between atoms: S_12  and  C_15
REMARK    7  A    between atoms: C_18  and  N_19
REMARK    8  A    between atoms: N_19  and  C_20
REMARK    9  A    between atoms: C_20  and  S_21
REMARK   10  A    between atoms: S_21  and  O_22
REMARK                            x       y       z     vdW  Elec       q    Type
REMARK                         _______ _______ _______ _____ _____    ______ ____
ROOT
ATOM      1  S   UNL     1      -8.464  -2.364 124.372  0.00  0.00    +0.000 S 
ATOM      2  O   UNL     1      -7.274  -3.037 123.871  0.00  0.00    +0.000 OA
ATOM      3  O   UNL     1      -9.786  -2.846 124.038  0.00  0.00    +0.000 OA
ENDROOT
BRANCH   1   7
ATOM      4  C   UNL     1      -8.037  -2.489 128.961  0.00  0.00    +0.000 A 
ATOM      5  C   UNL     1      -7.622  -1.371 128.216  0.00  0.00    +0.000 A 
ATOM      6  C   UNL     1      -7.817  -1.300 126.826  0.00  0.00    +0.000 A 
ATOM      7  C   UNL     1      -8.360  -2.397 126.152  0.00  0.00    +0.000 A 
ATOM      8  C   UNL     1      -8.748  -3.522 126.872  0.00  0.00    +0.000 A 
ATOM      9  C   UNL     1      -8.582  -3.563 128.258  0.00  0.00    +0.000 A 
BRANCH   4  10
ATOM     10  N   UNL     1      -7.871  -2.506 130.333  0.00  0.00    +0.000 N 
ATOM     11  H   UNL     1      -7.965  -3.410 130.789  0.00  0.00    +0.000 HD
BRANCH  10  12
ATOM     12  C   UNL     1      -7.197  -1.452 131.082  0.00  0.00    +0.000 C 
BRANCH  12  13
ATOM     13  S   UNL     1      -8.483  -0.345 131.806  0.00  0.00    +0.000 S 
ATOM     14  O   UNL     1      -8.683   0.838 130.910  0.00  0.00    +0.000 OA
BRANCH  13  15
ATOM     15  O   UNL     1      -7.580   0.173 133.033  0.00  0.00    +0.000 OA
ATOM     16  H   UNL     1      -6.796   0.637 132.650  0.00  0.00    +0.000 HD
ENDBRANCH  13  15
ENDBRANCH  12  13
ENDBRANCH  10  12
ENDBRANCH   4  10
ENDBRANCH   1   7
BRANCH   1  17
ATOM     17  C   UNL     1      -8.351  -0.681 123.780  0.00  0.00    +0.000 A 
ATOM     18  C   UNL     1      -7.121  -0.033 123.667  0.00  0.00    +0.000 A 
ATOM     19  C   UNL     1      -7.086   1.328 123.313  0.00  0.00    +0.000 A 
ATOM     20  C   UNL     1      -8.251   2.029 122.961  0.00  0.00    +0.000 A 
ATOM     21  C   UNL     1      -9.468   1.344 123.070  0.00  0.00    +0.000 A 
ATOM     22  C   UNL     1      -9.527   0.013 123.497  0.00  0.00    +0.000 A 
BRANCH  20  23
ATOM     23  N   UNL     1      -8.163   3.342 122.518  0.00  0.00    +0.000 N 
ATOM     24  H   UNL     1      -8.220   4.085 123.200  0.00  0.00    +0.000 HD
BRANCH  23  25
ATOM     25  C   UNL     1      -7.892   3.660 121.121  0.00  0.00    +0.000 C 
BRANCH  25  26
ATOM     26  S   UNL     1      -6.119   4.091 120.878  0.00  0.00    +0.000 S 
ATOM     27  O   UNL     1      -5.369   2.800 120.734  0.00  0.00    +0.000 OA
BRANCH  26  28
ATOM     28  O   UNL     1      -5.880   4.585 122.389  0.00  0.00    +0.000 OA
ATOM     29  H   UNL     1      -4.921   4.600 122.597  0.00  0.00    +0.000 HD
ENDBRANCH  26  28
ENDBRANCH  25  26
ENDBRANCH  23  25
ENDBRANCH  20  23
ENDBRANCH   1  17
TORSDOF 10
ENDMDL
MODEL 8
REMARK VINA RESULT:      -6.4      2.671      8.533
REMARK  Name = Sulfoxone
REMARK  10 active torsions:
REMARK  status: ('A' for Active; 'I' for Inactive)
REMARK    1  A    between atoms: O_1  and  S_2
REMARK    2  A    between atoms: S_2  and  C_4
REMARK    3  A    between atoms: C_4  and  N_5
REMARK    4  A    between atoms: N_5  and  C_6
REMARK    5  A    between atoms: C_9  and  S_12
REMARK    6  A    between atoms: S_12  and  C_15
REMARK    7  A    between atoms: C_18  and  N_19
REMARK    8  A    between atoms: N_19  and  C_20
REMARK    9  A    between atoms: C_20  and  S_21
REMARK   10  A    between atoms: S_21  and  O_22
REMARK                            x       y       z     vdW  Elec       q    Type
REMARK                         _______ _______ _______ _____ _____    ______ ____
ROOT
ATOM      1  S   UNL     1      -8.036   2.165 130.798  0.00  0.00    +0.000 S 
ATOM      2  O   UNL     1      -6.671   2.637 130.978  0.00  0.00    +0.000 OA
ATOM      3  O   UNL     1      -8.705   1.411 131.836  0.00  0.00    +0.000 OA
ENDROOT
BRANCH   1   7
ATOM      4  C   UNL     1     -10.669   5.840 129.894  0.00  0.00    +0.000 A 
ATOM      5  C   UNL     1     -11.234   4.608 130.267  0.00  0.00    +0.000 A 
ATOM      6  C   UNL     1     -10.432   3.506 130.614  0.00  0.00    +0.000 A 
ATOM      7  C   UNL     1      -9.043   3.608 130.506  0.00  0.00    +0.000 A 
ATOM      8  C   UNL     1      -8.471   4.812 130.109  0.00  0.00    +0.000 A 
ATOM      9  C   UNL     1      -9.280   5.909 129.804  0.00  0.00    +0.000 A 
BRANCH   4  10
ATOM     10  N   UNL     1     -11.487   6.915 129.604  0.00  0.00    +0.000 N 
ATOM     11  H   UNL     1     -11.245   7.800 130.042  0.00  0.00    +0.000 HD
BRANCH  10  12
ATOM     12  C   UNL     1     -12.380   6.969 128.452  0.00  0.00    +0.000 C 
BRANCH  12  13
ATOM     13  S   UNL     1     -11.449   7.694 127.033  0.00  0.00    +0.000 S 
ATOM     14  O   UNL     1     -10.461   6.692 126.521  0.00  0.00    +0.000 OA
BRANCH  13  15
ATOM     15  O   UNL     1     -10.606   8.744 127.912  0.00  0.00    +0.000 OA
ATOM     16  H   UNL     1      -9.649   8.604 127.705  0.00  0.00    +0.000 HD
ENDBRANCH  13  15
ENDBRANCH  12  13
ENDBRANCH  10  12
ENDBRANCH   4  10
ENDBRANCH   1   7
BRANCH   1  17
ATOM     17  C   UNL     1      -8.000   1.134 129.337  0.00  0.00    +0.000 A 
ATOM     18  C   UNL     1      -8.387   1.628 128.092  0.00  0.00    +0.000 A 
ATOM     19  C   UNL     1      -8.460   0.752 126.993  0.00  0.00    +0.000 A 
ATOM     20  C   UNL     1      -8.046  -0.587 127.088  0.00  0.00    +0.000 A 
ATOM     21  C   UNL     1      -7.648  -1.046 128.350  0.00  0.00    +0.000 A 
ATOM     22  C   UNL     1      -7.646  -0.208 129.470  0.00  0.00    +0.000 A 
BRANCH  20  23
ATOM     23  N   UNL     1      -8.036  -1.392 125.956  0.00  0.00    +0.000 N 
ATOM     24  H   UNL     1      -7.222  -1.372 125.358  0.00  0.00    +0.000 HD
BRANCH  23  25
ATOM     25  C   UNL     1      -9.118  -2.327 125.675  0.00  0.00    +0.000 C 
BRANCH  25  26
ATOM     26  S   UNL     1      -8.647  -3.493 124.332  0.00  0.00    +0.000 S 
ATOM     27  O   UNL     1      -7.623  -2.797 123.485  0.00  0.00    +0.000 OA
BRANCH  26  28
ATOM     28  O   UNL     1     -10.042  -3.375 123.539  0.00  0.00    +0.000 OA
ATOM     29  H   UNL     1     -10.703  -3.996 123.915  0.00  0.00    +0.000 HD
ENDBRANCH  26  28
ENDBRANCH  25  26
ENDBRANCH  23  25
ENDBRANCH  20  23
ENDBRANCH   1  17
TORSDOF 10
ENDMDL
MODEL 9
REMARK VINA RESULT:      -6.3      4.235      6.983
REMARK  Name = Sulfoxone
REMARK  10 active torsions:
REMARK  status: ('A' for Active; 'I' for Inactive)
REMARK    1  A    between atoms: O_1  and  S_2
REMARK    2  A    between atoms: S_2  and  C_4
REMARK    3  A    between atoms: C_4  and  N_5
REMARK    4  A    between atoms: N_5  and  C_6
REMARK    5  A    between atoms: C_9  and  S_12
REMARK    6  A    between atoms: S_12  and  C_15
REMARK    7  A    between atoms: C_18  and  N_19
REMARK    8  A    between atoms: N_19  and  C_20
REMARK    9  A    between atoms: C_20  and  S_21
REMARK   10  A    between atoms: S_21  and  O_22
REMARK                            x       y       z     vdW  Elec       q    Type
REMARK                         _______ _______ _______ _____ _____    ______ ____
ROOT
ATOM      1  S   UNL     1      -8.551  -2.426 125.646  0.00  0.00    +0.000 S 
ATOM      2  O   UNL     1      -7.530  -3.236 124.997  0.00  0.00    +0.000 OA
ATOM      3  O   UNL     1      -9.951  -2.779 125.549  0.00  0.00    +0.000 OA
ENDROOT
BRANCH   1   7
ATOM      4  C   UNL     1      -7.397  -2.434 130.109  0.00  0.00    +0.000 A 
ATOM      5  C   UNL     1      -7.049  -1.366 129.264  0.00  0.00    +0.000 A 
ATOM      6  C   UNL     1      -7.462  -1.327 127.920  0.00  0.00    +0.000 A 
ATOM      7  C   UNL     1      -8.163  -2.410 127.386  0.00  0.00    +0.000 A 
ATOM      8  C   UNL     1      -8.488  -3.488 128.203  0.00  0.00    +0.000 A 
ATOM      9  C   UNL     1      -8.103  -3.496 129.545  0.00  0.00    +0.000 A 
BRANCH   4  10
ATOM     10  N   UNL     1      -7.013  -2.418 131.436  0.00  0.00    +0.000 N 
ATOM     11  H   UNL     1      -6.049  -2.675 131.632  0.00  0.00    +0.000 HD
BRANCH  10  12
ATOM     12  C   UNL     1      -7.732  -1.699 132.481  0.00  0.00    +0.000 C 
BRANCH  12  13
ATOM     13  S   UNL     1      -7.945  -2.833 133.921  0.00  0.00    +0.000 S 
ATOM     14  O   UNL     1      -7.330  -2.213 135.138  0.00  0.00    +0.000 OA
BRANCH  13  15
ATOM     15  O   UNL     1      -6.900  -3.944 133.410  0.00  0.00    +0.000 OA
ATOM     16  H   UNL     1      -6.193  -3.476 132.903  0.00  0.00    +0.000 HD
ENDBRANCH  13  15
ENDBRANCH  12  13
ENDBRANCH  10  12
ENDBRANCH   4  10
ENDBRANCH   1   7
BRANCH   1  17
ATOM     17  C   UNL     1      -8.373  -0.785 124.959  0.00  0.00    +0.000 A 
ATOM     18  C   UNL     1      -9.377   0.173 125.102  0.00  0.00    +0.000 A 
ATOM     19  C   UNL     1      -9.250   1.410 124.445  0.00  0.00    +0.000 A 
ATOM     20  C   UNL     1      -8.087   1.753 123.736  0.00  0.00    +0.000 A 
ATOM     21  C   UNL     1      -7.092   0.773 123.625  0.00  0.00    +0.000 A 
ATOM     22  C   UNL     1      -7.237  -0.491 124.206  0.00  0.00    +0.000 A 
BRANCH  20  23
ATOM     23  N   UNL     1      -7.958   3.023 123.187  0.00  0.00    +0.000 N 
ATOM     24  H   UNL     1      -8.676   3.351 122.557  0.00  0.00    +0.000 HD
BRANCH  23  25
ATOM     25  C   UNL     1      -6.873   3.916 123.578  0.00  0.00    +0.000 C 
BRANCH  25  26
ATOM     26  S   UNL     1      -7.126   4.546 125.289  0.00  0.00    +0.000 S 
ATOM     27  O   UNL     1      -8.600   4.765 125.463  0.00  0.00    +0.000 OA
BRANCH  26  28
ATOM     28  O   UNL     1      -6.486   5.995 125.007  0.00  0.00    +0.000 OA
ATOM     29  H   UNL     1      -6.455   6.174 124.043  0.00  0.00    +0.000 HD
ENDBRANCH  26  28
ENDBRANCH  25  26
ENDBRANCH  23  25
ENDBRANCH  20  23
ENDBRANCH   1  17
TORSDOF 10
ENDMDL
