MODEL 1
REMARK VINA RESULT:      -6.5      0.000      0.000
REMARK  Name = Sulfapyridine
REMARK  4 active torsions:
REMARK  status: ('A' for Active; 'I' for Inactive)
REMARK    1  A    between atoms: N_1  and  C_2
REMARK    2  A    between atoms: C_5  and  S_8
REMARK    3  A    between atoms: S_8  and  N_11
REMARK    4  A    between atoms: N_11  and  C_12
REMARK                            x       y       z     vdW  Elec       q    Type
REMARK                         _______ _______ _______ _____ _____    ______ ____
ROOT
ATOM      1  S   UNL     1      -9.042   1.934 124.255  0.00  0.00    +0.000 S 
ATOM      2  O   UNL     1      -9.075   2.933 125.310  0.00  0.00    +0.000 OA
ATOM      3  O   UNL     1     -10.263   1.417 123.686  0.00  0.00    +0.000 OA
ENDROOT
BRANCH   1   7
ATOM      4  C   UNL     1      -6.694   3.926 120.831  0.00  0.00    +0.000 A 
ATOM      5  C   UNL     1      -6.052   3.471 121.983  0.00  0.00    +0.000 A 
ATOM      6  C   UNL     1      -6.782   2.856 123.011  0.00  0.00    +0.000 A 
ATOM      7  C   UNL     1      -8.171   2.689 122.891  0.00  0.00    +0.000 A 
ATOM      8  C   UNL     1      -8.819   3.144 121.746  0.00  0.00    +0.000 A 
ATOM      9  C   UNL     1      -8.075   3.750 120.722  0.00  0.00    +0.000 A 
BRANCH   4  10
ATOM     10  N   UNL     1      -5.980   4.511 119.802  0.00  0.00    +0.000 N 
ATOM     11  H   UNL     1      -6.006   4.128 118.866  0.00  0.00    +0.000 HD
ATOM     12  H   UNL     1      -5.358   5.287 119.981  0.00  0.00    +0.000 HD
ENDBRANCH   4  10
ENDBRANCH   1   7
BRANCH   1  13
ATOM     13  N   UNL     1      -8.133   0.625 124.789  0.00  0.00    +0.000 N 
ATOM     14  H   UNL     1      -7.530   0.671 125.598  0.00  0.00    +0.000 HD
BRANCH  13  15
ATOM     15  C   UNL     1      -8.539  -0.679 124.412  0.00  0.00    +0.000 A 
ATOM     16  C   UNL     1      -8.199  -1.222 123.186  0.00  0.00    +0.000 A 
ATOM     17  C   UNL     1      -8.577  -2.527 122.891  0.00  0.00    +0.000 A 
ATOM     18  C   UNL     1      -9.270  -3.262 123.840  0.00  0.00    +0.000 A 
ATOM     19  C   UNL     1      -9.530  -2.656 125.062  0.00  0.00    +0.000 A 
ATOM     20  N   UNL     1      -9.163  -1.383 125.381  0.00  0.00    +0.000 NA
ENDBRANCH  13  15
ENDBRANCH   1  13
TORSDOF 4
ENDMDL
MODEL 2
REMARK VINA RESULT:      -6.5      9.526     10.468
REMARK  Name = Sulfapyridine
REMARK  4 active torsions:
REMARK  status: ('A' for Active; 'I' for Inactive)
REMARK    1  A    between atoms: N_1  and  C_2
REMARK    2  A    between atoms: C_5  and  S_8
REMARK    3  A    between atoms: S_8  and  N_11
REMARK    4  A    between atoms: N_11  and  C_12
REMARK                            x       y       z     vdW  Elec       q    Type
REMARK                         _______ _______ _______ _____ _____    ______ ____
ROOT
ATOM      1  S   UNL     1     -10.578   5.353 130.550  0.00  0.00    +0.000 S 
ATOM      2  O   UNL     1     -11.350   4.250 130.002  0.00  0.00    +0.000 OA
ATOM      3  O   UNL     1      -9.180   5.513 130.225  0.00  0.00    +0.000 OA
ENDROOT
BRANCH   1   7
ATOM      4  C   UNL     1     -12.730   9.170 129.131  0.00  0.00    +0.000 A 
ATOM      5  C   UNL     1     -12.966   8.630 130.396  0.00  0.00    +0.000 A 
ATOM      6  C   UNL     1     -12.293   7.473 130.816  0.00  0.00    +0.000 A 
ATOM      7  C   UNL     1     -11.369   6.845 129.966  0.00  0.00    +0.000 A 
ATOM      8  C   UNL     1     -11.131   7.375 128.701  0.00  0.00    +0.000 A 
ATOM      9  C   UNL     1     -11.806   8.536 128.298  0.00  0.00    +0.000 A 
BRANCH   4  10
ATOM     10  N   UNL     1     -13.370  10.323 128.719  0.00  0.00    +0.000 N 
ATOM     11  H   UNL     1     -14.312  10.533 129.023  0.00  0.00    +0.000 HD
ATOM     12  H   UNL     1     -12.939  10.940 128.045  0.00  0.00    +0.000 HD
ENDBRANCH   4  10
ENDBRANCH   1   7
BRANCH   1  13
ATOM     13  N   UNL     1     -10.712   5.318 132.225  0.00  0.00    +0.000 N 
ATOM     14  H   UNL     1     -11.598   5.216 132.700  0.00  0.00    +0.000 HD
BRANCH  13  15
ATOM     15  C   UNL     1      -9.573   4.961 132.987  0.00  0.00    +0.000 A 
ATOM     16  C   UNL     1      -9.193   3.640 133.152  0.00  0.00    +0.000 A 
ATOM     17  C   UNL     1      -8.034   3.351 133.864  0.00  0.00    +0.000 A 
ATOM     18  C   UNL     1      -7.276   4.392 134.376  0.00  0.00    +0.000 A 
ATOM     19  C   UNL     1      -7.705   5.687 134.124  0.00  0.00    +0.000 A 
ATOM     20  N   UNL     1      -8.830   6.001 133.422  0.00  0.00    +0.000 NA
ENDBRANCH  13  15
ENDBRANCH   1  13
TORSDOF 4
ENDMDL
MODEL 3
REMARK VINA RESULT:      -6.3      8.383      9.267
REMARK  Name = Sulfapyridine
REMARK  4 active torsions:
REMARK  status: ('A' for Active; 'I' for Inactive)
REMARK    1  A    between atoms: N_1  and  C_2
REMARK    2  A    between atoms: C_5  and  S_8
REMARK    3  A    between atoms: S_8  and  N_11
REMARK    4  A    between atoms: N_11  and  C_12
REMARK                            x       y       z     vdW  Elec       q    Type
REMARK                         _______ _______ _______ _____ _____    ______ ____
ROOT
ATOM      1  S   UNL     1     -10.081   5.829 131.250  0.00  0.00    +0.000 S 
ATOM      2  O   UNL     1      -8.767   5.839 130.628  0.00  0.00    +0.000 OA
ATOM      3  O   UNL     1     -10.235   6.105 132.659  0.00  0.00    +0.000 OA
ENDROOT
BRANCH   1   7
ATOM      4  C   UNL     1     -12.647   9.035 129.165  0.00  0.00    +0.000 A 
ATOM      5  C   UNL     1     -13.037   8.467 130.379  0.00  0.00    +0.000 A 
ATOM      6  C   UNL     1     -12.237   7.501 131.005  0.00  0.00    +0.000 A 
ATOM      7  C   UNL     1     -11.029   7.093 130.417  0.00  0.00    +0.000 A 
ATOM      8  C   UNL     1     -10.634   7.652 129.205  0.00  0.00    +0.000 A 
ATOM      9  C   UNL     1     -11.440   8.623 128.594  0.00  0.00    +0.000 A 
BRANCH   4  10
ATOM     10  N   UNL     1     -13.416  10.006 128.553  0.00  0.00    +0.000 N 
ATOM     11  H   UNL     1     -14.364   9.810 128.258  0.00  0.00    +0.000 HD
ATOM     12  H   UNL     1     -13.022  10.907 128.320  0.00  0.00    +0.000 HD
ENDBRANCH   4  10
ENDBRANCH   1   7
BRANCH   1  13
ATOM     13  N   UNL     1     -10.808   4.346 130.938  0.00  0.00    +0.000 N 
ATOM     14  H   UNL     1     -11.712   4.263 130.495  0.00  0.00    +0.000 HD
BRANCH  13  15
ATOM     15  C   UNL     1      -9.987   3.194 130.856  0.00  0.00    +0.000 A 
ATOM     16  C   UNL     1      -9.855   2.318 131.920  0.00  0.00    +0.000 A 
ATOM     17  C   UNL     1      -9.081   1.174 131.765  0.00  0.00    +0.000 A 
ATOM     18  C   UNL     1      -8.475   0.926 130.544  0.00  0.00    +0.000 A 
ATOM     19  C   UNL     1      -8.698   1.832 129.517  0.00  0.00    +0.000 A 
ATOM     20  N   UNL     1      -9.459   2.956 129.637  0.00  0.00    +0.000 NA
ENDBRANCH  13  15
ENDBRANCH   1  13
TORSDOF 4
ENDMDL
MODEL 4
REMARK VINA RESULT:      -6.3      1.962      5.569
REMARK  Name = Sulfapyridine
REMARK  4 active torsions:
REMARK  status: ('A' for Active; 'I' for Inactive)
REMARK    1  A    between atoms: N_1  and  C_2
REMARK    2  A    between atoms: C_5  and  S_8
REMARK    3  A    between atoms: S_8  and  N_11
REMARK    4  A    between atoms: N_11  and  C_12
REMARK                            x       y       z     vdW  Elec       q    Type
REMARK                         _______ _______ _______ _____ _____    ______ ____
ROOT
ATOM      1  S   UNL     1      -9.677   1.050 123.450  0.00  0.00    +0.000 S 
ATOM      2  O   UNL     1     -10.205   0.871 122.108  0.00  0.00    +0.000 OA
ATOM      3  O   UNL     1     -10.515   0.851 124.608  0.00  0.00    +0.000 OA
ENDROOT
BRANCH   1   7
ATOM      4  C   UNL     1      -6.354  -2.115 123.843  0.00  0.00    +0.000 A 
ATOM      5  C   UNL     1      -7.414  -2.281 122.950  0.00  0.00    +0.000 A 
ATOM      6  C   UNL     1      -8.411  -1.301 122.835  0.00  0.00    +0.000 A 
ATOM      7  C   UNL     1      -8.353  -0.137 123.619  0.00  0.00    +0.000 A 
ATOM      8  C   UNL     1      -7.301   0.034 124.514  0.00  0.00    +0.000 A 
ATOM      9  C   UNL     1      -6.307  -0.950 124.613  0.00  0.00    +0.000 A 
BRANCH   4  10
ATOM     10  N   UNL     1      -5.354  -3.063 123.945  0.00  0.00    +0.000 N 
ATOM     11  H   UNL     1      -4.672  -3.022 124.691  0.00  0.00    +0.000 HD
ATOM     12  H   UNL     1      -5.240  -3.772 123.233  0.00  0.00    +0.000 HD
ENDBRANCH   4  10
ENDBRANCH   1   7
BRANCH   1  13
ATOM     13  N   UNL     1      -9.010   2.589 123.560  0.00  0.00    +0.000 N 
ATOM     14  H   UNL     1      -8.871   3.062 124.442  0.00  0.00    +0.000 HD
BRANCH  13  15
ATOM     15  C   UNL     1      -8.209   3.058 122.490  0.00  0.00    +0.000 A 
ATOM     16  C   UNL     1      -6.830   2.945 122.510  0.00  0.00    +0.000 A 
ATOM     17  C   UNL     1      -6.097   3.372 121.408  0.00  0.00    +0.000 A 
ATOM     18  C   UNL     1      -6.766   3.883 120.307  0.00  0.00    +0.000 A 
ATOM     19  C   UNL     1      -8.152   3.917 120.352  0.00  0.00    +0.000 A 
ATOM     20  N   UNL     1      -8.896   3.496 121.414  0.00  0.00    +0.000 NA
ENDBRANCH  13  15
ENDBRANCH   1  13
TORSDOF 4
ENDMDL
MODEL 5
REMARK VINA RESULT:      -6.3      9.424     11.058
REMARK  Name = Sulfapyridine
REMARK  4 active torsions:
REMARK  status: ('A' for Active; 'I' for Inactive)
REMARK    1  A    between atoms: N_1  and  C_2
REMARK    2  A    between atoms: C_5  and  S_8
REMARK    3  A    between atoms: S_8  and  N_11
REMARK    4  A    between atoms: N_11  and  C_12
REMARK                            x       y       z     vdW  Elec       q    Type
REMARK                         _______ _______ _______ _____ _____    ______ ____
ROOT
ATOM      1  S   UNL     1     -10.791   4.931 130.469  0.00  0.00    +0.000 S 
ATOM      2  O   UNL     1     -10.062   5.630 129.424  0.00  0.00    +0.000 OA
ATOM      3  O   UNL     1     -11.295   3.595 130.254  0.00  0.00    +0.000 OA
ENDROOT
BRANCH   1   7
ATOM      4  C   UNL     1      -7.952   4.450 134.062  0.00  0.00    +0.000 A 
ATOM      5  C   UNL     1      -8.576   3.348 133.476  0.00  0.00    +0.000 A 
ATOM      6  C   UNL     1      -9.428   3.512 132.375  0.00  0.00    +0.000 A 
ATOM      7  C   UNL     1      -9.663   4.792 131.846  0.00  0.00    +0.000 A 
ATOM      8  C   UNL     1      -9.048   5.896 132.428  0.00  0.00    +0.000 A 
ATOM      9  C   UNL     1      -8.191   5.716 133.524  0.00  0.00    +0.000 A 
BRANCH   4  10
ATOM     10  N   UNL     1      -7.091   4.295 135.133  0.00  0.00    +0.000 N 
ATOM     11  H   UNL     1      -7.020   3.411 135.620  0.00  0.00    +0.000 HD
ATOM     12  H   UNL     1      -6.573   5.082 135.497  0.00  0.00    +0.000 HD
ENDBRANCH   4  10
ENDBRANCH   1   7
BRANCH   1  13
ATOM     13  N   UNL     1     -12.082   5.892 130.952  0.00  0.00    +0.000 N 
ATOM     14  H   UNL     1     -12.319   6.042 131.923  0.00  0.00    +0.000 HD
BRANCH  13  15
ATOM     15  C   UNL     1     -12.570   6.873 130.054  0.00  0.00    +0.000 A 
ATOM     16  C   UNL     1     -12.393   8.226 130.288  0.00  0.00    +0.000 A 
ATOM     17  C   UNL     1     -12.843   9.143 129.344  0.00  0.00    +0.000 A 
ATOM     18  C   UNL     1     -13.440   8.681 128.182  0.00  0.00    +0.000 A 
ATOM     19  C   UNL     1     -13.535   7.308 128.006  0.00  0.00    +0.000 A 
ATOM     20  N   UNL     1     -13.094   6.386 128.908  0.00  0.00    +0.000 NA
ENDBRANCH  13  15
ENDBRANCH   1  13
TORSDOF 4
ENDMDL
MODEL 6
REMARK VINA RESULT:      -6.3      1.493      1.977
REMARK  Name = Sulfapyridine
REMARK  4 active torsions:
REMARK  status: ('A' for Active; 'I' for Inactive)
REMARK    1  A    between atoms: N_1  and  C_2
REMARK    2  A    between atoms: C_5  and  S_8
REMARK    3  A    between atoms: S_8  and  N_11
REMARK    4  A    between atoms: N_11  and  C_12
REMARK                            x       y       z     vdW  Elec       q    Type
REMARK                         _______ _______ _______ _____ _____    ______ ____
ROOT
ATOM      1  S   UNL     1      -8.254   2.611 122.888  0.00  0.00    +0.000 S 
ATOM      2  O   UNL     1      -8.291   3.563 123.986  0.00  0.00    +0.000 OA
ATOM      3  O   UNL     1      -9.472   2.045 122.358  0.00  0.00    +0.000 OA
ENDROOT
BRANCH   1   7
ATOM      4  C   UNL     1      -6.214   4.887 119.444  0.00  0.00    +0.000 A 
ATOM      5  C   UNL     1      -5.507   4.513 120.588  0.00  0.00    +0.000 A 
ATOM      6  C   UNL     1      -6.142   3.810 121.622  0.00  0.00    +0.000 A 
ATOM      7  C   UNL     1      -7.500   3.471 121.517  0.00  0.00    +0.000 A 
ATOM      8  C   UNL     1      -8.213   3.844 120.381  0.00  0.00    +0.000 A 
ATOM      9  C   UNL     1      -7.564   4.540 119.351  0.00  0.00    +0.000 A 
BRANCH   4  10
ATOM     10  N   UNL     1      -5.590   5.558 118.409  0.00  0.00    +0.000 N 
ATOM     11  H   UNL     1      -6.077   5.747 117.543  0.00  0.00    +0.000 HD
ATOM     12  H   UNL     1      -4.612   5.806 118.469  0.00  0.00    +0.000 HD
ENDBRANCH   4  10
ENDBRANCH   1   7
BRANCH   1  13
ATOM     13  N   UNL     1      -7.245   1.338 123.319  0.00  0.00    +0.000 N 
ATOM     14  H   UNL     1      -6.245   1.443 123.422  0.00  0.00    +0.000 HD
BRANCH  13  15
ATOM     15  C   UNL     1      -7.807   0.228 123.995  0.00  0.00    +0.000 A 
ATOM     16  C   UNL     1      -8.372   0.351 125.253  0.00  0.00    +0.000 A 
ATOM     17  C   UNL     1      -8.960  -0.761 125.846  0.00  0.00    +0.000 A 
ATOM     18  C   UNL     1      -8.983  -1.963 125.157  0.00  0.00    +0.000 A 
ATOM     19  C   UNL     1      -8.436  -1.987 123.882  0.00  0.00    +0.000 A 
ATOM     20  N   UNL     1      -7.863  -0.911 123.272  0.00  0.00    +0.000 NA
ENDBRANCH  13  15
ENDBRANCH   1  13
TORSDOF 4
ENDMDL
MODEL 7
REMARK VINA RESULT:      -6.2      8.466     10.530
REMARK  Name = Sulfapyridine
REMARK  4 active torsions:
REMARK  status: ('A' for Active; 'I' for Inactive)
REMARK    1  A    between atoms: N_1  and  C_2
REMARK    2  A    between atoms: C_5  and  S_8
REMARK    3  A    between atoms: S_8  and  N_11
REMARK    4  A    between atoms: N_11  and  C_12
REMARK                            x       y       z     vdW  Elec       q    Type
REMARK                         _______ _______ _______ _____ _____    ______ ____
ROOT
ATOM      1  S   UNL     1     -10.132   5.990 131.687  0.00  0.00    +0.000 S 
ATOM      2  O   UNL     1      -9.848   6.443 133.038  0.00  0.00    +0.000 OA
ATOM      3  O   UNL     1      -9.496   6.611 130.549  0.00  0.00    +0.000 OA
ENDROOT
BRANCH   1   7
ATOM      4  C   UNL     1      -8.913   1.558 131.406  0.00  0.00    +0.000 A 
ATOM      5  C   UNL     1      -9.170   2.315 130.262  0.00  0.00    +0.000 A 
ATOM      6  C   UNL     1      -9.529   3.667 130.366  0.00  0.00    +0.000 A 
ATOM      7  C   UNL     1      -9.632   4.277 131.627  0.00  0.00    +0.000 A 
ATOM      8  C   UNL     1      -9.381   3.527 132.773  0.00  0.00    +0.000 A 
ATOM      9  C   UNL     1      -9.015   2.178 132.654  0.00  0.00    +0.000 A 
BRANCH   4  10
ATOM     10  N   UNL     1      -8.535   0.232 131.312  0.00  0.00    +0.000 N 
ATOM     11  H   UNL     1      -8.847  -0.345 130.542  0.00  0.00    +0.000 HD
ATOM     12  H   UNL     1      -8.004  -0.207 132.051  0.00  0.00    +0.000 HD
ENDBRANCH   4  10
ENDBRANCH   1   7
BRANCH   1  13
ATOM     13  N   UNL     1     -11.793   6.054 131.440  0.00  0.00    +0.000 N 
ATOM     14  H   UNL     1     -12.462   5.882 132.177  0.00  0.00    +0.000 HD
BRANCH  13  15
ATOM     15  C   UNL     1     -12.285   6.797 130.339  0.00  0.00    +0.000 A 
ATOM     16  C   UNL     1     -12.510   8.160 130.423  0.00  0.00    +0.000 A 
ATOM     17  C   UNL     1     -12.941   8.849 129.295  0.00  0.00    +0.000 A 
ATOM     18  C   UNL     1     -13.117   8.159 128.106  0.00  0.00    +0.000 A 
ATOM     19  C   UNL     1     -12.824   6.803 128.098  0.00  0.00    +0.000 A 
ATOM     20  N   UNL     1     -12.391   6.104 129.185  0.00  0.00    +0.000 NA
ENDBRANCH  13  15
ENDBRANCH   1  13
TORSDOF 4
ENDMDL
MODEL 8
REMARK VINA RESULT:      -6.1      8.991      9.872
REMARK  Name = Sulfapyridine
REMARK  4 active torsions:
REMARK  status: ('A' for Active; 'I' for Inactive)
REMARK    1  A    between atoms: N_1  and  C_2
REMARK    2  A    between atoms: C_5  and  S_8
REMARK    3  A    between atoms: S_8  and  N_11
REMARK    4  A    between atoms: N_11  and  C_12
REMARK                            x       y       z     vdW  Elec       q    Type
REMARK                         _______ _______ _______ _____ _____    ______ ____
ROOT
ATOM      1  S   UNL     1      -9.951   5.333 129.840  0.00  0.00    +0.000 S 
ATOM      2  O   UNL     1     -10.901   4.255 130.057  0.00  0.00    +0.000 OA
ATOM      3  O   UNL     1      -8.976   5.258 128.777  0.00  0.00    +0.000 OA
ENDROOT
BRANCH   1   7
ATOM      4  C   UNL     1     -12.572   9.026 129.000  0.00  0.00    +0.000 A 
ATOM      5  C   UNL     1     -12.649   8.340 130.214  0.00  0.00    +0.000 A 
ATOM      6  C   UNL     1     -11.835   7.225 130.456  0.00  0.00    +0.000 A 
ATOM      7  C   UNL     1     -10.928   6.784 129.478  0.00  0.00    +0.000 A 
ATOM      8  C   UNL     1     -10.848   7.461 128.264  0.00  0.00    +0.000 A 
ATOM      9  C   UNL     1     -11.663   8.579 128.039  0.00  0.00    +0.000 A 
BRANCH   4  10
ATOM     10  N   UNL     1     -13.352  10.141 128.762  0.00  0.00    +0.000 N 
ATOM     11  H   UNL     1     -14.170  10.334 129.325  0.00  0.00    +0.000 HD
ATOM     12  H   UNL     1     -13.165  10.744 127.973  0.00  0.00    +0.000 HD
ENDBRANCH   4  10
ENDBRANCH   1   7
BRANCH   1  13
ATOM     13  N   UNL     1      -9.121   5.611 131.274  0.00  0.00    +0.000 N 
ATOM     14  H   UNL     1      -9.513   5.403 132.182  0.00  0.00    +0.000 HD
BRANCH  13  15
ATOM     15  C   UNL     1      -7.708   5.696 131.233  0.00  0.00    +0.000 A 
ATOM     16  C   UNL     1      -7.055   6.911 131.114  0.00  0.00    +0.000 A 
ATOM     17  C   UNL     1      -5.665   6.941 131.135  0.00  0.00    +0.000 A 
ATOM     18  C   UNL     1      -4.965   5.755 131.294  0.00  0.00    +0.000 A 
ATOM     19  C   UNL     1      -5.699   4.588 131.453  0.00  0.00    +0.000 A 
ATOM     20  N   UNL     1      -7.060   4.531 131.447  0.00  0.00    +0.000 NA
ENDBRANCH  13  15
ENDBRANCH   1  13
TORSDOF 4
ENDMDL
MODEL 9
REMARK VINA RESULT:      -6.1      3.223      5.394
REMARK  Name = Sulfapyridine
REMARK  4 active torsions:
REMARK  status: ('A' for Active; 'I' for Inactive)
REMARK    1  A    between atoms: N_1  and  C_2
REMARK    2  A    between atoms: C_5  and  S_8
REMARK    3  A    between atoms: S_8  and  N_11
REMARK    4  A    between atoms: N_11  and  C_12
REMARK                            x       y       z     vdW  Elec       q    Type
REMARK                         _______ _______ _______ _____ _____    ______ ____
ROOT
ATOM      1  S   UNL     1      -8.295   2.815 125.190  0.00  0.00    +0.000 S 
ATOM      2  O   UNL     1      -9.050   2.030 126.151  0.00  0.00    +0.000 OA
ATOM      3  O   UNL     1      -8.558   4.224 125.015  0.00  0.00    +0.000 OA
ENDROOT
BRANCH   1   7
ATOM      4  C   UNL     1      -3.868   2.687 126.452  0.00  0.00    +0.000 A 
ATOM      5  C   UNL     1      -4.505   3.893 126.158  0.00  0.00    +0.000 A 
ATOM      6  C   UNL     1      -5.857   3.914 125.787  0.00  0.00    +0.000 A 
ATOM      7  C   UNL     1      -6.588   2.718 125.708  0.00  0.00    +0.000 A 
ATOM      8  C   UNL     1      -5.959   1.510 125.996  0.00  0.00    +0.000 A 
ATOM      9  C   UNL     1      -4.608   1.505 126.374  0.00  0.00    +0.000 A 
BRANCH   4  10
ATOM     10  N   UNL     1      -2.542   2.659 126.842  0.00  0.00    +0.000 N 
ATOM     11  H   UNL     1      -2.240   2.083 127.617  0.00  0.00    +0.000 HD
ATOM     12  H   UNL     1      -1.864   3.270 126.411  0.00  0.00    +0.000 HD
ENDBRANCH   4  10
ENDBRANCH   1   7
BRANCH   1  13
ATOM     13  N   UNL     1      -8.422   2.081 123.684  0.00  0.00    +0.000 N 
ATOM     14  H   UNL     1      -9.086   1.345 123.488  0.00  0.00    +0.000 HD
BRANCH  13  15
ATOM     15  C   UNL     1      -7.944   2.780 122.548  0.00  0.00    +0.000 A 
ATOM     16  C   UNL     1      -6.593   2.870 122.264  0.00  0.00    +0.000 A 
ATOM     17  C   UNL     1      -6.183   3.521 121.105  0.00  0.00    +0.000 A 
ATOM     18  C   UNL     1      -7.139   4.049 120.251  0.00  0.00    +0.000 A 
ATOM     19  C   UNL     1      -8.473   3.873 120.589  0.00  0.00    +0.000 A 
ATOM     20  N   UNL     1      -8.903   3.231 121.712  0.00  0.00    +0.000 NA
ENDBRANCH  13  15
ENDBRANCH   1  13
TORSDOF 4
ENDMDL
