MODEL 1
REMARK VINA RESULT:      -8.2      0.000      0.000
REMARK  Name = Sulfasalazine
REMARK  7 active torsions:
REMARK  status: ('A' for Active; 'I' for Inactive)
REMARK    1  A    between atoms: O_1  and  C_2
REMARK    2  A    between atoms: C_2  and  C_4
REMARK    3  A    between atoms: C_6  and  N_11
REMARK    4  A    between atoms: C_9  and  O_10
REMARK    5  A    between atoms: N_12  and  C_13
REMARK    6  A    between atoms: C_16  and  S_19
REMARK    7  A    between atoms: S_19  and  N_22
REMARK                            x       y       z     vdW  Elec       q    Type
REMARK                         _______ _______ _______ _____ _____    ______ ____
ROOT
ATOM      1  C   UNL     1      -5.879   6.878 131.154  0.00  0.00    +0.000 A 
ATOM      2  C   UNL     1      -5.561   6.186 132.335  0.00  0.00    +0.000 A 
ATOM      3  C   UNL     1      -4.228   6.056 132.783  0.00  0.00    +0.000 A 
ATOM      4  C   UNL     1      -3.165   6.564 132.018  0.00  0.00    +0.000 A 
ATOM      5  C   UNL     1      -3.458   7.259 130.847  0.00  0.00    +0.000 A 
ATOM      6  C   UNL     1      -4.800   7.419 130.431  0.00  0.00    +0.000 A 
ENDROOT
BRANCH   4   7
ATOM      7  S   UNL     1      -1.486   6.170 132.532  0.00  0.00    +0.000 S 
ATOM      8  O   UNL     1      -1.483   4.756 132.859  0.00  0.00    +0.000 OA
ATOM      9  O   UNL     1      -0.639   6.688 131.481  0.00  0.00    +0.000 OA
BRANCH   7  10
ATOM     10  N   UNL     1      -1.148   7.051 133.923  0.00  0.00    +0.000 N 
ATOM     11  C   UNL     1      -0.837   8.430 133.790  0.00  0.00    +0.000 A 
ATOM     12  N   UNL     1       0.267   8.829 134.455  0.00  0.00    +0.000 NA
ATOM     13  C   UNL     1       0.588  10.150 134.357  0.00  0.00    +0.000 A 
ATOM     14  C   UNL     1      -0.159  11.087 133.658  0.00  0.00    +0.000 A 
ATOM     15  C   UNL     1      -1.322  10.652 133.041  0.00  0.00    +0.000 A 
ATOM     16  C   UNL     1      -1.672   9.307 133.115  0.00  0.00    +0.000 A 
ATOM     17  H   UNL     1      -0.796   6.618 134.765  0.00  0.00    +0.000 HD
ENDBRANCH   7  10
ENDBRANCH   4   7
BRANCH   1  19
ATOM     18  N   UNL     1      -8.064   6.479 131.560  0.00  0.00    +0.000 NA
ATOM     19  N   UNL     1      -7.252   7.086 130.819  0.00  0.00    +0.000 NA
BRANCH  18  22
ATOM     20  C   UNL     1     -11.051   7.258 129.412  0.00  0.00    +0.000 A 
ATOM     21  C   UNL     1      -9.726   7.068 129.871  0.00  0.00    +0.000 A 
ATOM     22  C   UNL     1      -9.435   6.599 131.167  0.00  0.00    +0.000 A 
ATOM     23  C   UNL     1     -10.538   6.307 131.988  0.00  0.00    +0.000 A 
ATOM     24  C   UNL     1     -11.864   6.502 131.551  0.00  0.00    +0.000 A 
ATOM     25  C   UNL     1     -12.118   6.999 130.271  0.00  0.00    +0.000 A 
BRANCH  20  26
ATOM     26  C   UNL     1     -11.244   7.612 127.981  0.00  0.00    +0.000 C 
ATOM     27  O   UNL     1     -11.810   6.844 127.209  0.00  0.00    +0.000 OA
BRANCH  26  28
ATOM     28  O   UNL     1     -10.710   8.782 127.578  0.00  0.00    +0.000 OA
ATOM     29  H   UNL     1     -10.487   8.813 126.627  0.00  0.00    +0.000 HD
ENDBRANCH  26  28
ENDBRANCH  20  26
BRANCH  25  30
ATOM     30  O   UNL     1     -13.400   7.231 129.854  0.00  0.00    +0.000 OA
ATOM     31  H   UNL     1     -13.497   6.967 128.921  0.00  0.00    +0.000 HD
ENDBRANCH  25  30
ENDBRANCH  18  22
ENDBRANCH   1  19
TORSDOF 7
ENDMDL
MODEL 2
REMARK VINA RESULT:      -8.2      6.928     10.036
REMARK  Name = Sulfasalazine
REMARK  7 active torsions:
REMARK  status: ('A' for Active; 'I' for Inactive)
REMARK    1  A    between atoms: O_1  and  C_2
REMARK    2  A    between atoms: C_2  and  C_4
REMARK    3  A    between atoms: C_6  and  N_11
REMARK    4  A    between atoms: C_9  and  O_10
REMARK    5  A    between atoms: N_12  and  C_13
REMARK    6  A    between atoms: C_16  and  S_19
REMARK    7  A    between atoms: S_19  and  N_22
REMARK                            x       y       z     vdW  Elec       q    Type
REMARK                         _______ _______ _______ _____ _____    ______ ____
ROOT
ATOM      1  C   UNL     1      -8.549   2.352 129.053  0.00  0.00    +0.000 A 
ATOM      2  C   UNL     1      -9.514   2.436 130.072  0.00  0.00    +0.000 A 
ATOM      3  C   UNL     1      -9.939   3.679 130.592  0.00  0.00    +0.000 A 
ATOM      4  C   UNL     1      -9.355   4.876 130.146  0.00  0.00    +0.000 A 
ATOM      5  C   UNL     1      -8.401   4.816 129.133  0.00  0.00    +0.000 A 
ATOM      6  C   UNL     1      -8.015   3.568 128.592  0.00  0.00    +0.000 A 
ENDROOT
BRANCH   4   7
ATOM      7  S   UNL     1      -9.780   6.399 131.006  0.00  0.00    +0.000 S 
ATOM      8  O   UNL     1     -11.069   6.165 131.631  0.00  0.00    +0.000 OA
ATOM      9  O   UNL     1      -8.618   6.719 131.803  0.00  0.00    +0.000 OA
BRANCH   7  10
ATOM     10  N   UNL     1      -9.946   7.615 129.856  0.00  0.00    +0.000 N 
ATOM     11  C   UNL     1     -10.855   7.412 128.786  0.00  0.00    +0.000 A 
ATOM     12  N   UNL     1     -10.358   7.678 127.560  0.00  0.00    +0.000 NA
ATOM     13  C   UNL     1     -11.209   7.504 126.510  0.00  0.00    +0.000 A 
ATOM     14  C   UNL     1     -12.534   7.113 126.634  0.00  0.00    +0.000 A 
ATOM     15  C   UNL     1     -13.029   6.911 127.914  0.00  0.00    +0.000 A 
ATOM     16  C   UNL     1     -12.181   7.071 129.006  0.00  0.00    +0.000 A 
ATOM     17  H   UNL     1      -9.212   8.281 129.667  0.00  0.00    +0.000 HD
ENDBRANCH   7  10
ENDBRANCH   4   7
BRANCH   1  19
ATOM     18  N   UNL     1      -8.448   1.007 127.242  0.00  0.00    +0.000 NA
ATOM     19  N   UNL     1      -8.253   1.078 128.481  0.00  0.00    +0.000 NA
BRANCH  18  22
ATOM     20  C   UNL     1      -8.870  -1.915 124.915  0.00  0.00    +0.000 A 
ATOM     21  C   UNL     1      -8.968  -0.638 125.516  0.00  0.00    +0.000 A 
ATOM     22  C   UNL     1      -8.254  -0.294 126.680  0.00  0.00    +0.000 A 
ATOM     23  C   UNL     1      -7.413  -1.286 127.214  0.00  0.00    +0.000 A 
ATOM     24  C   UNL     1      -7.314  -2.568 126.635  0.00  0.00    +0.000 A 
ATOM     25  C   UNL     1      -8.060  -2.888 125.499  0.00  0.00    +0.000 A 
BRANCH  20  26
ATOM     26  C   UNL     1      -9.550  -2.121 123.609  0.00  0.00    +0.000 C 
ATOM     27  O   UNL     1      -9.669  -1.200 122.806  0.00  0.00    +0.000 OA
BRANCH  26  28
ATOM     28  O   UNL     1     -10.076  -3.342 123.395  0.00  0.00    +0.000 OA
ATOM     29  H   UNL     1      -9.884  -3.990 124.102  0.00  0.00    +0.000 HD
ENDBRANCH  26  28
ENDBRANCH  20  26
BRANCH  25  30
ATOM     30  O   UNL     1      -8.000  -4.142 124.956  0.00  0.00    +0.000 OA
ATOM     31  H   UNL     1      -8.460  -4.776 125.537  0.00  0.00    +0.000 HD
ENDBRANCH  25  30
ENDBRANCH  18  22
ENDBRANCH   1  19
TORSDOF 7
ENDMDL
MODEL 3
REMARK VINA RESULT:      -8.1      6.241      8.302
REMARK  Name = Sulfasalazine
REMARK  7 active torsions:
REMARK  status: ('A' for Active; 'I' for Inactive)
REMARK    1  A    between atoms: O_1  and  C_2
REMARK    2  A    between atoms: C_2  and  C_4
REMARK    3  A    between atoms: C_6  and  N_11
REMARK    4  A    between atoms: C_9  and  O_10
REMARK    5  A    between atoms: N_12  and  C_13
REMARK    6  A    between atoms: C_16  and  S_19
REMARK    7  A    between atoms: S_19  and  N_22
REMARK                            x       y       z     vdW  Elec       q    Type
REMARK                         _______ _______ _______ _____ _____    ______ ____
ROOT
ATOM      1  C   UNL     1      -9.158   3.498 131.360  0.00  0.00    +0.000 A 
ATOM      2  C   UNL     1      -7.815   3.484 131.776  0.00  0.00    +0.000 A 
ATOM      3  C   UNL     1      -7.187   2.299 132.220  0.00  0.00    +0.000 A 
ATOM      4  C   UNL     1      -7.914   1.101 132.321  0.00  0.00    +0.000 A 
ATOM      5  C   UNL     1      -9.244   1.091 131.908  0.00  0.00    +0.000 A 
ATOM      6  C   UNL     1      -9.849   2.275 131.426  0.00  0.00    +0.000 A 
ENDROOT
BRANCH   4   7
ATOM      7  S   UNL     1      -7.117  -0.311 133.102  0.00  0.00    +0.000 S 
ATOM      8  O   UNL     1      -6.361   0.218 134.222  0.00  0.00    +0.000 OA
ATOM      9  O   UNL     1      -8.176  -1.273 133.311  0.00  0.00    +0.000 OA
BRANCH   7  10
ATOM     10  N   UNL     1      -6.047  -0.982 131.992  0.00  0.00    +0.000 N 
ATOM     11  C   UNL     1      -6.553  -1.909 131.043  0.00  0.00    +0.000 A 
ATOM     12  N   UNL     1      -5.843  -3.051 130.931  0.00  0.00    +0.000 NA
ATOM     13  C   UNL     1      -6.295  -3.959 130.021  0.00  0.00    +0.000 A 
ATOM     14  C   UNL     1      -7.396  -3.762 129.200  0.00  0.00    +0.000 A 
ATOM     15  C   UNL     1      -8.062  -2.549 129.297  0.00  0.00    +0.000 A 
ATOM     16  C   UNL     1      -7.630  -1.606 130.225  0.00  0.00    +0.000 A 
ATOM     17  H   UNL     1      -5.058  -1.064 132.177  0.00  0.00    +0.000 HD
ENDBRANCH   7  10
ENDBRANCH   4   7
BRANCH   1  19
ATOM     18  N   UNL     1     -10.883   4.938 131.144  0.00  0.00    +0.000 NA
ATOM     19  N   UNL     1      -9.700   4.696 130.803  0.00  0.00    +0.000 NA
BRANCH  18  22
ATOM     20  C   UNL     1     -11.704   7.420 128.442  0.00  0.00    +0.000 A 
ATOM     21  C   UNL     1     -11.204   6.296 129.142  0.00  0.00    +0.000 A 
ATOM     22  C   UNL     1     -11.467   6.080 130.508  0.00  0.00    +0.000 A 
ATOM     23  C   UNL     1     -12.275   7.034 131.149  0.00  0.00    +0.000 A 
ATOM     24  C   UNL     1     -12.770   8.166 130.469  0.00  0.00    +0.000 A 
ATOM     25  C   UNL     1     -12.465   8.369 129.122  0.00  0.00    +0.000 A 
BRANCH  20  26
ATOM     26  C   UNL     1     -11.491   7.471 126.971  0.00  0.00    +0.000 C 
ATOM     27  O   UNL     1     -10.797   8.347 126.462  0.00  0.00    +0.000 OA
BRANCH  26  28
ATOM     28  O   UNL     1     -12.150   6.552 126.240  0.00  0.00    +0.000 OA
ATOM     29  H   UNL     1     -12.321   6.824 125.316  0.00  0.00    +0.000 HD
ENDBRANCH  26  28
ENDBRANCH  20  26
BRANCH  25  30
ATOM     30  O   UNL     1     -12.907   9.486 128.467  0.00  0.00    +0.000 OA
ATOM     31  H   UNL     1     -12.884  10.253 129.068  0.00  0.00    +0.000 HD
ENDBRANCH  25  30
ENDBRANCH  18  22
ENDBRANCH   1  19
TORSDOF 7
ENDMDL
MODEL 4
REMARK VINA RESULT:      -8.0      6.744      9.780
REMARK  Name = Sulfasalazine
REMARK  7 active torsions:
REMARK  status: ('A' for Active; 'I' for Inactive)
REMARK    1  A    between atoms: O_1  and  C_2
REMARK    2  A    between atoms: C_2  and  C_4
REMARK    3  A    between atoms: C_6  and  N_11
REMARK    4  A    between atoms: C_9  and  O_10
REMARK    5  A    between atoms: N_12  and  C_13
REMARK    6  A    between atoms: C_16  and  S_19
REMARK    7  A    between atoms: S_19  and  N_22
REMARK                            x       y       z     vdW  Elec       q    Type
REMARK                         _______ _______ _______ _____ _____    ______ ____
ROOT
ATOM      1  C   UNL     1      -8.360   2.507 128.922  0.00  0.00    +0.000 A 
ATOM      2  C   UNL     1      -7.915   3.839 128.864  0.00  0.00    +0.000 A 
ATOM      3  C   UNL     1      -8.081   4.725 129.951  0.00  0.00    +0.000 A 
ATOM      4  C   UNL     1      -8.763   4.315 131.108  0.00  0.00    +0.000 A 
ATOM      5  C   UNL     1      -9.207   2.997 131.190  0.00  0.00    +0.000 A 
ATOM      6  C   UNL     1      -8.996   2.107 130.110  0.00  0.00    +0.000 A 
ENDROOT
BRANCH   4   7
ATOM      7  S   UNL     1      -9.134   5.555 132.358  0.00  0.00    +0.000 S 
ATOM      8  O   UNL     1      -8.536   5.079 133.592  0.00  0.00    +0.000 OA
ATOM      9  O   UNL     1      -8.725   6.813 131.775  0.00  0.00    +0.000 OA
BRANCH   7  10
ATOM     10  N   UNL     1     -10.804   5.615 132.550  0.00  0.00    +0.000 N 
ATOM     11  C   UNL     1     -11.584   6.164 131.499  0.00  0.00    +0.000 A 
ATOM     12  N   UNL     1     -12.495   7.080 131.888  0.00  0.00    +0.000 NA
ATOM     13  C   UNL     1     -13.269   7.619 130.904  0.00  0.00    +0.000 A 
ATOM     14  C   UNL     1     -13.196   7.260 129.566  0.00  0.00    +0.000 A 
ATOM     15  C   UNL     1     -12.293   6.268 129.214  0.00  0.00    +0.000 A 
ATOM     16  C   UNL     1     -11.482   5.705 130.195  0.00  0.00    +0.000 A 
ATOM     17  H   UNL     1     -11.242   5.640 133.459  0.00  0.00    +0.000 HD
ENDBRANCH   7  10
ENDBRANCH   4   7
BRANCH   1  19
ATOM     18  N   UNL     1      -8.661   1.875 126.775  0.00  0.00    +0.000 NA
ATOM     19  N   UNL     1      -8.050   1.624 127.843  0.00  0.00    +0.000 NA
BRANCH  18  22
ATOM     20  C   UNL     1      -8.666  -1.399 124.925  0.00  0.00    +0.000 A 
ATOM     21  C   UNL     1      -8.883  -0.391 125.895  0.00  0.00    +0.000 A 
ATOM     22  C   UNL     1      -8.435   0.933 125.721  0.00  0.00    +0.000 A 
ATOM     23  C   UNL     1      -7.769   1.216 124.516  0.00  0.00    +0.000 A 
ATOM     24  C   UNL     1      -7.534   0.221 123.545  0.00  0.00    +0.000 A 
ATOM     25  C   UNL     1      -7.963  -1.091 123.761  0.00  0.00    +0.000 A 
BRANCH  20  26
ATOM     26  C   UNL     1      -9.311  -2.720 125.143  0.00  0.00    +0.000 C 
ATOM     27  O   UNL     1      -9.208  -3.305 126.217  0.00  0.00    +0.000 OA
BRANCH  26  28
ATOM     28  O   UNL     1      -9.948  -3.256 124.083  0.00  0.00    +0.000 OA
ATOM     29  H   UNL     1     -10.844  -3.591 124.283  0.00  0.00    +0.000 HD
ENDBRANCH  26  28
ENDBRANCH  20  26
BRANCH  25  30
ATOM     30  O   UNL     1      -7.702  -2.070 122.843  0.00  0.00    +0.000 OA
ATOM     31  H   UNL     1      -6.738  -2.169 122.730  0.00  0.00    +0.000 HD
ENDBRANCH  25  30
ENDBRANCH  18  22
ENDBRANCH   1  19
TORSDOF 7
ENDMDL
MODEL 5
REMARK VINA RESULT:      -8.0      7.406      8.232
REMARK  Name = Sulfasalazine
REMARK  7 active torsions:
REMARK  status: ('A' for Active; 'I' for Inactive)
REMARK    1  A    between atoms: O_1  and  C_2
REMARK    2  A    between atoms: C_2  and  C_4
REMARK    3  A    between atoms: C_6  and  N_11
REMARK    4  A    between atoms: C_9  and  O_10
REMARK    5  A    between atoms: N_12  and  C_13
REMARK    6  A    between atoms: C_16  and  S_19
REMARK    7  A    between atoms: S_19  and  N_22
REMARK                            x       y       z     vdW  Elec       q    Type
REMARK                         _______ _______ _______ _____ _____    ______ ____
ROOT
ATOM      1  C   UNL     1      -9.496   2.759 130.426  0.00  0.00    +0.000 A 
ATOM      2  C   UNL     1      -8.549   2.058 129.659  0.00  0.00    +0.000 A 
ATOM      3  C   UNL     1      -8.068   0.790 130.051  0.00  0.00    +0.000 A 
ATOM      4  C   UNL     1      -8.478   0.216 131.265  0.00  0.00    +0.000 A 
ATOM      5  C   UNL     1      -9.421   0.889 132.038  0.00  0.00    +0.000 A 
ATOM      6  C   UNL     1      -9.926   2.140 131.613  0.00  0.00    +0.000 A 
ENDROOT
BRANCH   4   7
ATOM      7  S   UNL     1      -7.660  -1.292 131.809  0.00  0.00    +0.000 S 
ATOM      8  O   UNL     1      -8.012  -1.463 133.207  0.00  0.00    +0.000 OA
ATOM      9  O   UNL     1      -8.019  -2.291 130.828  0.00  0.00    +0.000 OA
BRANCH   7  10
ATOM     10  N   UNL     1      -6.000  -1.054 131.692  0.00  0.00    +0.000 N 
ATOM     11  C   UNL     1      -5.271  -1.835 130.757  0.00  0.00    +0.000 A 
ATOM     12  N   UNL     1      -4.158  -2.417 131.251  0.00  0.00    +0.000 NA
ATOM     13  C   UNL     1      -3.428  -3.166 130.377  0.00  0.00    +0.000 A 
ATOM     14  C   UNL     1      -3.740  -3.328 129.035  0.00  0.00    +0.000 A 
ATOM     15  C   UNL     1      -4.855  -2.662 128.548  0.00  0.00    +0.000 A 
ATOM     16  C   UNL     1      -5.626  -1.897 129.419  0.00  0.00    +0.000 A 
ATOM     17  H   UNL     1      -5.451  -0.689 132.457  0.00  0.00    +0.000 HD
ENDBRANCH   7  10
ENDBRANCH   4   7
BRANCH   1  19
ATOM     18  N   UNL     1     -10.584   4.706 130.780  0.00  0.00    +0.000 NA
ATOM     19  N   UNL     1     -10.039   3.977 129.915  0.00  0.00    +0.000 NA
BRANCH  18  22
ATOM     20  C   UNL     1     -11.624   7.334 128.300  0.00  0.00    +0.000 A 
ATOM     21  C   UNL     1     -11.066   6.176 128.892  0.00  0.00    +0.000 A 
ATOM     22  C   UNL     1     -11.221   5.877 130.259  0.00  0.00    +0.000 A 
ATOM     23  C   UNL     1     -11.982   6.785 131.016  0.00  0.00    +0.000 A 
ATOM     24  C   UNL     1     -12.535   7.949 130.445  0.00  0.00    +0.000 A 
ATOM     25  C   UNL     1     -12.336   8.234 129.092  0.00  0.00    +0.000 A 
BRANCH  20  26
ATOM     26  C   UNL     1     -11.526   7.474 126.824  0.00  0.00    +0.000 C 
ATOM     27  O   UNL     1     -10.829   8.347 126.315  0.00  0.00    +0.000 OA
BRANCH  26  28
ATOM     28  O   UNL     1     -12.290   6.638 126.092  0.00  0.00    +0.000 OA
ATOM     29  H   UNL     1     -12.250   6.800 125.129  0.00  0.00    +0.000 HD
ENDBRANCH  26  28
ENDBRANCH  20  26
BRANCH  25  30
ATOM     30  O   UNL     1     -12.833   9.383 128.541  0.00  0.00    +0.000 OA
ATOM     31  H   UNL     1     -12.170   9.778 127.946  0.00  0.00    +0.000 HD
ENDBRANCH  25  30
ENDBRANCH  18  22
ENDBRANCH   1  19
TORSDOF 7
ENDMDL
MODEL 6
REMARK VINA RESULT:      -7.9      7.276      8.941
REMARK  Name = Sulfasalazine
REMARK  7 active torsions:
REMARK  status: ('A' for Active; 'I' for Inactive)
REMARK    1  A    between atoms: O_1  and  C_2
REMARK    2  A    between atoms: C_2  and  C_4
REMARK    3  A    between atoms: C_6  and  N_11
REMARK    4  A    between atoms: C_9  and  O_10
REMARK    5  A    between atoms: N_12  and  C_13
REMARK    6  A    between atoms: C_16  and  S_19
REMARK    7  A    between atoms: S_19  and  N_22
REMARK                            x       y       z     vdW  Elec       q    Type
REMARK                         _______ _______ _______ _____ _____    ______ ____
ROOT
ATOM      1  C   UNL     1      -9.399   2.547 130.440  0.00  0.00    +0.000 A 
ATOM      2  C   UNL     1      -8.519   1.882 129.570  0.00  0.00    +0.000 A 
ATOM      3  C   UNL     1      -7.950   0.632 129.902  0.00  0.00    +0.000 A 
ATOM      4  C   UNL     1      -8.200   0.044 131.153  0.00  0.00    +0.000 A 
ATOM      5  C   UNL     1      -9.075   0.683 132.028  0.00  0.00    +0.000 A 
ATOM      6  C   UNL     1      -9.671   1.914 131.666  0.00  0.00    +0.000 A 
ENDROOT
BRANCH   4   7
ATOM      7  S   UNL     1      -7.271  -1.432 131.597  0.00  0.00    +0.000 S 
ATOM      8  O   UNL     1      -7.919  -2.539 130.917  0.00  0.00    +0.000 OA
ATOM      9  O   UNL     1      -5.890  -1.103 131.327  0.00  0.00    +0.000 OA
BRANCH   7  10
ATOM     10  N   UNL     1      -7.414  -1.655 133.257  0.00  0.00    +0.000 N 
ATOM     11  C   UNL     1      -7.243  -2.964 133.779  0.00  0.00    +0.000 A 
ATOM     12  N   UNL     1      -8.205  -3.363 134.637  0.00  0.00    +0.000 NA
ATOM     13  C   UNL     1      -8.066  -4.611 135.165  0.00  0.00    +0.000 A 
ATOM     14  C   UNL     1      -6.997  -5.457 134.903  0.00  0.00    +0.000 A 
ATOM     15  C   UNL     1      -5.994  -4.987 134.068  0.00  0.00    +0.000 A 
ATOM     16  C   UNL     1      -6.114  -3.720 133.505  0.00  0.00    +0.000 A 
ATOM     17  H   UNL     1      -7.957  -1.035 133.841  0.00  0.00    +0.000 HD
ENDBRANCH   7  10
ENDBRANCH   4   7
BRANCH   1  19
ATOM     18  N   UNL     1     -10.429   4.499 130.922  0.00  0.00    +0.000 NA
ATOM     19  N   UNL     1     -10.041   3.744 129.997  0.00  0.00    +0.000 NA
BRANCH  18  22
ATOM     20  C   UNL     1     -11.692   7.208 128.642  0.00  0.00    +0.000 A 
ATOM     21  C   UNL     1     -11.036   6.061 129.148  0.00  0.00    +0.000 A 
ATOM     22  C   UNL     1     -11.163   5.648 130.488  0.00  0.00    +0.000 A 
ATOM     23  C   UNL     1     -11.998   6.427 131.307  0.00  0.00    +0.000 A 
ATOM     24  C   UNL     1     -12.648   7.581 130.822  0.00  0.00    +0.000 A 
ATOM     25  C   UNL     1     -12.476   7.983 129.496  0.00  0.00    +0.000 A 
BRANCH  20  26
ATOM     26  C   UNL     1     -11.607   7.467 127.181  0.00  0.00    +0.000 C 
ATOM     27  O   UNL     1     -10.965   8.416 126.742  0.00  0.00    +0.000 OA
BRANCH  26  28
ATOM     28  O   UNL     1     -12.324   6.647 126.387  0.00  0.00    +0.000 OA
ATOM     29  H   UNL     1     -13.219   6.978 126.175  0.00  0.00    +0.000 HD
ENDBRANCH  26  28
ENDBRANCH  20  26
BRANCH  25  30
ATOM     30  O   UNL     1     -13.070   9.123 129.030  0.00  0.00    +0.000 OA
ATOM     31  H   UNL     1     -13.907   8.901 128.583  0.00  0.00    +0.000 HD
ENDBRANCH  25  30
ENDBRANCH  18  22
ENDBRANCH   1  19
TORSDOF 7
ENDMDL
MODEL 7
REMARK VINA RESULT:      -7.8      6.802     10.796
REMARK  Name = Sulfasalazine
REMARK  7 active torsions:
REMARK  status: ('A' for Active; 'I' for Inactive)
REMARK    1  A    between atoms: O_1  and  C_2
REMARK    2  A    between atoms: C_2  and  C_4
REMARK    3  A    between atoms: C_6  and  N_11
REMARK    4  A    between atoms: C_9  and  O_10
REMARK    5  A    between atoms: N_12  and  C_13
REMARK    6  A    between atoms: C_16  and  S_19
REMARK    7  A    between atoms: S_19  and  N_22
REMARK                            x       y       z     vdW  Elec       q    Type
REMARK                         _______ _______ _______ _____ _____    ______ ____
ROOT
ATOM      1  C   UNL     1      -8.409   1.844 132.491  0.00  0.00    +0.000 A 
ATOM      2  C   UNL     1      -8.593   2.882 133.420  0.00  0.00    +0.000 A 
ATOM      3  C   UNL     1      -9.213   4.100 133.061  0.00  0.00    +0.000 A 
ATOM      4  C   UNL     1      -9.608   4.334 131.734  0.00  0.00    +0.000 A 
ATOM      5  C   UNL     1      -9.442   3.317 130.798  0.00  0.00    +0.000 A 
ATOM      6  C   UNL     1      -8.858   2.086 131.180  0.00  0.00    +0.000 A 
ENDROOT
BRANCH   4   7
ATOM      7  S   UNL     1     -10.185   5.983 131.300  0.00  0.00    +0.000 S 
ATOM      8  O   UNL     1     -11.398   6.203 132.065  0.00  0.00    +0.000 OA
ATOM      9  O   UNL     1      -9.034   6.842 131.472  0.00  0.00    +0.000 OA
BRANCH   7  10
ATOM     10  N   UNL     1     -10.566   5.985 129.662  0.00  0.00    +0.000 N 
ATOM     11  C   UNL     1     -11.577   6.871 129.206  0.00  0.00    +0.000 A 
ATOM     12  N   UNL     1     -12.512   6.305 128.416  0.00  0.00    +0.000 NA
ATOM     13  C   UNL     1     -13.493   7.130 127.951  0.00  0.00    +0.000 A 
ATOM     14  C   UNL     1     -13.558   8.491 128.212  0.00  0.00    +0.000 A 
ATOM     15  C   UNL     1     -12.543   9.050 128.975  0.00  0.00    +0.000 A 
ATOM     16  C   UNL     1     -11.533   8.231 129.472  0.00  0.00    +0.000 A 
ATOM     17  H   UNL     1     -10.409   5.183 129.070  0.00  0.00    +0.000 HD
ENDBRANCH   7  10
ENDBRANCH   4   7
BRANCH   1  19
ATOM     18  N   UNL     1      -7.403  -0.125 132.036  0.00  0.00    +0.000 NA
ATOM     19  N   UNL     1      -7.893   0.591 132.942  0.00  0.00    +0.000 NA
BRANCH  18  22
ATOM     20  C   UNL     1      -6.105  -3.648 131.821  0.00  0.00    +0.000 A 
ATOM     21  C   UNL     1      -6.505  -2.330 131.496  0.00  0.00    +0.000 A 
ATOM     22  C   UNL     1      -6.978  -1.423 132.464  0.00  0.00    +0.000 A 
ATOM     23  C   UNL     1      -7.017  -1.888 133.790  0.00  0.00    +0.000 A 
ATOM     24  C   UNL     1      -6.634  -3.201 134.130  0.00  0.00    +0.000 A 
ATOM     25  C   UNL     1      -6.200  -4.087 133.141  0.00  0.00    +0.000 A 
BRANCH  20  26
ATOM     26  C   UNL     1      -5.483  -4.468 130.749  0.00  0.00    +0.000 C 
ATOM     27  O   UNL     1      -5.691  -5.675 130.674  0.00  0.00    +0.000 OA
BRANCH  26  28
ATOM     28  O   UNL     1      -4.637  -3.825 129.920  0.00  0.00    +0.000 OA
ATOM     29  H   UNL     1      -3.730  -3.728 130.270  0.00  0.00    +0.000 HD
ENDBRANCH  26  28
ENDBRANCH  20  26
BRANCH  25  30
ATOM     30  O   UNL     1      -5.866  -5.375 133.457  0.00  0.00    +0.000 OA
ATOM     31  H   UNL     1      -4.987  -5.588 133.091  0.00  0.00    +0.000 HD
ENDBRANCH  25  30
ENDBRANCH  18  22
ENDBRANCH   1  19
TORSDOF 7
ENDMDL
MODEL 8
REMARK VINA RESULT:      -7.8      5.931      6.906
REMARK  Name = Sulfasalazine
REMARK  7 active torsions:
REMARK  status: ('A' for Active; 'I' for Inactive)
REMARK    1  A    between atoms: O_1  and  C_2
REMARK    2  A    between atoms: C_2  and  C_4
REMARK    3  A    between atoms: C_6  and  N_11
REMARK    4  A    between atoms: C_9  and  O_10
REMARK    5  A    between atoms: N_12  and  C_13
REMARK    6  A    between atoms: C_16  and  S_19
REMARK    7  A    between atoms: S_19  and  N_22
REMARK                            x       y       z     vdW  Elec       q    Type
REMARK                         _______ _______ _______ _____ _____    ______ ____
ROOT
ATOM      1  C   UNL     1      -9.533   2.752 130.450  0.00  0.00    +0.000 A 
ATOM      2  C   UNL     1      -8.602   2.037 129.679  0.00  0.00    +0.000 A 
ATOM      3  C   UNL     1      -8.101   0.782 130.093  0.00  0.00    +0.000 A 
ATOM      4  C   UNL     1      -8.476   0.239 131.333  0.00  0.00    +0.000 A 
ATOM      5  C   UNL     1      -9.403   0.928 132.111  0.00  0.00    +0.000 A 
ATOM      6  C   UNL     1      -9.928   2.163 131.665  0.00  0.00    +0.000 A 
ENDROOT
BRANCH   4   7
ATOM      7  S   UNL     1      -7.633  -1.248 131.896  0.00  0.00    +0.000 S 
ATOM      8  O   UNL     1      -8.221  -1.586 133.179  0.00  0.00    +0.000 OA
ATOM      9  O   UNL     1      -7.706  -2.167 130.783  0.00  0.00    +0.000 OA
BRANCH   7  10
ATOM     10  N   UNL     1      -6.010  -0.870 132.124  0.00  0.00    +0.000 N 
ATOM     11  C   UNL     1      -5.685   0.378 132.715  0.00  0.00    +0.000 A 
ATOM     12  N   UNL     1      -4.741   1.087 132.062  0.00  0.00    +0.000 NA
ATOM     13  C   UNL     1      -4.397   2.286 132.609  0.00  0.00    +0.000 A 
ATOM     14  C   UNL     1      -4.925   2.789 133.789  0.00  0.00    +0.000 A 
ATOM     15  C   UNL     1      -5.845   2.003 134.468  0.00  0.00    +0.000 A 
ATOM     16  C   UNL     1      -6.224   0.777 133.929  0.00  0.00    +0.000 A 
ATOM     17  H   UNL     1      -5.277  -1.274 131.559  0.00  0.00    +0.000 HD
ENDBRANCH   7  10
ENDBRANCH   4   7
BRANCH   1  19
ATOM     18  N   UNL     1     -10.535   4.748 130.788  0.00  0.00    +0.000 NA
ATOM     19  N   UNL     1     -10.098   3.952 129.920  0.00  0.00    +0.000 NA
BRANCH  18  22
ATOM     20  C   UNL     1     -11.623   7.344 128.295  0.00  0.00    +0.000 A 
ATOM     21  C   UNL     1     -11.041   6.200 128.893  0.00  0.00    +0.000 A 
ATOM     22  C   UNL     1     -11.195   5.903 130.261  0.00  0.00    +0.000 A 
ATOM     23  C   UNL     1     -11.978   6.797 131.012  0.00  0.00    +0.000 A 
ATOM     24  C   UNL     1     -12.553   7.947 130.435  0.00  0.00    +0.000 A 
ATOM     25  C   UNL     1     -12.356   8.231 129.082  0.00  0.00    +0.000 A 
BRANCH  20  26
ATOM     26  C   UNL     1     -11.522   7.480 126.819  0.00  0.00    +0.000 C 
ATOM     27  O   UNL     1     -10.831   8.357 126.310  0.00  0.00    +0.000 OA
BRANCH  26  28
ATOM     28  O   UNL     1     -12.278   6.637 126.088  0.00  0.00    +0.000 OA
ATOM     29  H   UNL     1     -13.237   6.704 126.266  0.00  0.00    +0.000 HD
ENDBRANCH  26  28
ENDBRANCH  20  26
BRANCH  25  30
ATOM     30  O   UNL     1     -12.876   9.367 128.524  0.00  0.00    +0.000 OA
ATOM     31  H   UNL     1     -12.219   9.775 127.931  0.00  0.00    +0.000 HD
ENDBRANCH  25  30
ENDBRANCH  18  22
ENDBRANCH   1  19
TORSDOF 7
ENDMDL
MODEL 9
REMARK VINA RESULT:      -7.7      6.892     10.910
REMARK  Name = Sulfasalazine
REMARK  7 active torsions:
REMARK  status: ('A' for Active; 'I' for Inactive)
REMARK    1  A    between atoms: O_1  and  C_2
REMARK    2  A    between atoms: C_2  and  C_4
REMARK    3  A    between atoms: C_6  and  N_11
REMARK    4  A    between atoms: C_9  and  O_10
REMARK    5  A    between atoms: N_12  and  C_13
REMARK    6  A    between atoms: C_16  and  S_19
REMARK    7  A    between atoms: S_19  and  N_22
REMARK                            x       y       z     vdW  Elec       q    Type
REMARK                         _______ _______ _______ _____ _____    ______ ____
ROOT
ATOM      1  C   UNL     1      -8.681   1.717 132.277  0.00  0.00    +0.000 A 
ATOM      2  C   UNL     1      -8.669   2.759 133.220  0.00  0.00    +0.000 A 
ATOM      3  C   UNL     1      -9.238   4.021 132.940  0.00  0.00    +0.000 A 
ATOM      4  C   UNL     1      -9.779   4.294 131.674  0.00  0.00    +0.000 A 
ATOM      5  C   UNL     1      -9.807   3.274 130.725  0.00  0.00    +0.000 A 
ATOM      6  C   UNL     1      -9.272   2.002 131.033  0.00  0.00    +0.000 A 
ENDROOT
BRANCH   4   7
ATOM      7  S   UNL     1     -10.283   5.984 131.313  0.00  0.00    +0.000 S 
ATOM      8  O   UNL     1     -11.562   6.175 131.971  0.00  0.00    +0.000 OA
ATOM      9  O   UNL     1      -9.141   6.800 131.662  0.00  0.00    +0.000 OA
BRANCH   7  10
ATOM     10  N   UNL     1     -10.500   6.118 129.651  0.00  0.00    +0.000 N 
ATOM     11  C   UNL     1     -11.544   6.952 129.173  0.00  0.00    +0.000 A 
ATOM     12  N   UNL     1     -12.338   6.389 128.238  0.00  0.00    +0.000 NA
ATOM     13  C   UNL     1     -13.343   7.168 127.749  0.00  0.00    +0.000 A 
ATOM     14  C   UNL     1     -13.566   8.485 128.124  0.00  0.00    +0.000 A 
ATOM     15  C   UNL     1     -12.690   9.051 129.038  0.00  0.00    +0.000 A 
ATOM     16  C   UNL     1     -11.659   8.278 129.564  0.00  0.00    +0.000 A 
ATOM     17  H   UNL     1     -10.209   5.396 129.008  0.00  0.00    +0.000 HD
ENDBRANCH   7  10
ENDBRANCH   4   7
BRANCH   1  19
ATOM     18  N   UNL     1      -7.467  -0.130 131.811  0.00  0.00    +0.000 NA
ATOM     19  N   UNL     1      -8.205   0.426 132.661  0.00  0.00    +0.000 NA
BRANCH  18  22
ATOM     20  C   UNL     1      -7.127  -3.302 133.801  0.00  0.00    +0.000 A 
ATOM     21  C   UNL     1      -7.503  -2.007 133.370  0.00  0.00    +0.000 A 
ATOM     22  C   UNL     1      -7.072  -1.464 132.145  0.00  0.00    +0.000 A 
ATOM     23  C   UNL     1      -6.256  -2.286 131.348  0.00  0.00    +0.000 A 
ATOM     24  C   UNL     1      -5.861  -3.573 131.768  0.00  0.00    +0.000 A 
ATOM     25  C   UNL     1      -6.279  -4.070 133.004  0.00  0.00    +0.000 A 
BRANCH  20  26
ATOM     26  C   UNL     1      -7.759  -3.831 135.038  0.00  0.00    +0.000 C 
ATOM     27  O   UNL     1      -7.145  -4.583 135.790  0.00  0.00    +0.000 OA
BRANCH  26  28
ATOM     28  O   UNL     1      -9.046  -3.493 135.243  0.00  0.00    +0.000 OA
ATOM     29  H   UNL     1      -9.657  -3.802 134.546  0.00  0.00    +0.000 HD
ENDBRANCH  26  28
ENDBRANCH  20  26
BRANCH  25  30
ATOM     30  O   UNL     1      -5.867  -5.301 133.436  0.00  0.00    +0.000 OA
ATOM     31  H   UNL     1      -5.372  -5.751 132.728  0.00  0.00    +0.000 HD
ENDBRANCH  25  30
ENDBRANCH  18  22
ENDBRANCH   1  19
TORSDOF 7
ENDMDL
