MODEL 1
REMARK VINA RESULT:      -6.8      0.000      0.000
REMARK  Name = Sulfadimethoxine
REMARK  8 active torsions:
REMARK  status: ('A' for Active; 'I' for Inactive)
REMARK    1  A    between atoms: C_1  and  O_2
REMARK    2  A    between atoms: O_2  and  C_3
REMARK    3  A    between atoms: C_5  and  O_6
REMARK    4  A    between atoms: O_6  and  C_7
REMARK    5  A    between atoms: C_9  and  N_10
REMARK    6  A    between atoms: N_10  and  S_11
REMARK    7  A    between atoms: S_11  and  C_14
REMARK    8  A    between atoms: C_17  and  N_18
REMARK                            x       y       z     vdW  Elec       q    Type
REMARK                         _______ _______ _______ _____ _____    ______ ____
ROOT
ATOM      1  N   UNL     1      -8.222   1.136 123.095  0.00  0.00    +0.000 N 
ATOM      2  H   UNL     1      -8.981   1.073 122.427  0.00  0.00    +0.000 HD
ENDROOT
BRANCH   1   7
ATOM      3  C   UNL     1      -6.293  -1.944 123.592  0.00  0.00    +0.000 A 
ATOM      4  N   UNL     1      -6.800  -2.379 124.748  0.00  0.00    +0.000 NA
ATOM      5  C   UNL     1      -7.758  -1.622 125.307  0.00  0.00    +0.000 A 
ATOM      6  N   UNL     1      -8.246  -0.463 124.806  0.00  0.00    +0.000 NA
ATOM      7  C   UNL     1      -7.710  -0.086 123.627  0.00  0.00    +0.000 A 
ATOM      8  C   UNL     1      -6.742  -0.810 122.977  0.00  0.00    +0.000 A 
BRANCH   3  10
ATOM      9  C   UNL     1      -4.821  -3.757 123.892  0.00  0.00    +0.000 C 
ATOM     10  O   UNL     1      -5.344  -2.753 123.019  0.00  0.00    +0.000 OA
ENDBRANCH   3  10
BRANCH   5  11
ATOM     11  O   UNL     1      -8.221  -2.147 126.497  0.00  0.00    +0.000 OA
ATOM     12  C   UNL     1      -9.097  -3.254 126.386  0.00  0.00    +0.000 C 
ENDBRANCH   5  11
ENDBRANCH   1   7
BRANCH   1  13
ATOM     13  S   UNL     1      -7.557   2.605 123.578  0.00  0.00    +0.000 S 
ATOM     14  O   UNL     1      -8.625   3.435 124.083  0.00  0.00    +0.000 OA
ATOM     15  O   UNL     1      -6.410   2.288 124.415  0.00  0.00    +0.000 OA
BRANCH  13  16
ATOM     16  C   UNL     1      -6.922   3.410 122.135  0.00  0.00    +0.000 A 
ATOM     17  C   UNL     1      -5.618   3.893 122.112  0.00  0.00    +0.000 A 
ATOM     18  C   UNL     1      -5.160   4.573 120.978  0.00  0.00    +0.000 A 
ATOM     19  C   UNL     1      -5.971   4.734 119.848  0.00  0.00    +0.000 A 
ATOM     20  C   UNL     1      -7.268   4.219 119.875  0.00  0.00    +0.000 A 
ATOM     21  C   UNL     1      -7.747   3.553 121.009  0.00  0.00    +0.000 A 
BRANCH  19  22
ATOM     22  N   UNL     1      -5.535   5.499 118.780  0.00  0.00    +0.000 N 
ATOM     23  H   UNL     1      -5.338   5.059 117.890  0.00  0.00    +0.000 HD
ATOM     24  H   UNL     1      -5.688   6.500 118.777  0.00  0.00    +0.000 HD
ENDBRANCH  19  22
ENDBRANCH  13  16
ENDBRANCH   1  13
TORSDOF 6
ENDMDL
MODEL 2
REMARK VINA RESULT:      -6.6      0.627      2.305
REMARK  Name = Sulfadimethoxine
REMARK  8 active torsions:
REMARK  status: ('A' for Active; 'I' for Inactive)
REMARK    1  A    between atoms: C_1  and  O_2
REMARK    2  A    between atoms: O_2  and  C_3
REMARK    3  A    between atoms: C_5  and  O_6
REMARK    4  A    between atoms: O_6  and  C_7
REMARK    5  A    between atoms: C_9  and  N_10
REMARK    6  A    between atoms: N_10  and  S_11
REMARK    7  A    between atoms: S_11  and  C_14
REMARK    8  A    between atoms: C_17  and  N_18
REMARK                            x       y       z     vdW  Elec       q    Type
REMARK                         _______ _______ _______ _____ _____    ______ ____
ROOT
ATOM      1  N   UNL     1      -8.051   1.030 123.075  0.00  0.00    +0.000 N 
ATOM      2  H   UNL     1      -8.672   0.873 122.290  0.00  0.00    +0.000 HD
ENDROOT
BRANCH   1   7
ATOM      3  C   UNL     1      -7.699  -1.632 125.572  0.00  0.00    +0.000 A 
ATOM      4  N   UNL     1      -6.671  -2.321 125.069  0.00  0.00    +0.000 NA
ATOM      5  C   UNL     1      -6.149  -1.865 123.919  0.00  0.00    +0.000 A 
ATOM      6  N   UNL     1      -6.574  -0.779 123.230  0.00  0.00    +0.000 NA
ATOM      7  C   UNL     1      -7.600  -0.114 123.798  0.00  0.00    +0.000 A 
ATOM      8  C   UNL     1      -8.180  -0.499 124.981  0.00  0.00    +0.000 A 
BRANCH   3  10
ATOM      9  C   UNL     1      -8.908  -3.325 126.674  0.00  0.00    +0.000 C 
ATOM     10  O   UNL     1      -8.191  -2.093 126.768  0.00  0.00    +0.000 OA
ENDBRANCH   3  10
BRANCH   5  11
ATOM     11  O   UNL     1      -5.095  -2.637 123.473  0.00  0.00    +0.000 OA
ATOM     12  C   UNL     1      -5.108  -3.994 123.875  0.00  0.00    +0.000 C 
ENDBRANCH   5  11
ENDBRANCH   1   7
BRANCH   1  13
ATOM     13  S   UNL     1      -7.542   2.567 123.535  0.00  0.00    +0.000 S 
ATOM     14  O   UNL     1      -8.699   3.308 123.980  0.00  0.00    +0.000 OA
ATOM     15  O   UNL     1      -6.401   2.381 124.418  0.00  0.00    +0.000 OA
BRANCH  13  16
ATOM     16  C   UNL     1      -6.934   3.389 122.091  0.00  0.00    +0.000 A 
ATOM     17  C   UNL     1      -5.638   3.895 122.058  0.00  0.00    +0.000 A 
ATOM     18  C   UNL     1      -5.202   4.586 120.923  0.00  0.00    +0.000 A 
ATOM     19  C   UNL     1      -6.025   4.738 119.801  0.00  0.00    +0.000 A 
ATOM     20  C   UNL     1      -7.313   4.201 119.837  0.00  0.00    +0.000 A 
ATOM     21  C   UNL     1      -7.770   3.522 120.972  0.00  0.00    +0.000 A 
BRANCH  19  22
ATOM     22  N   UNL     1      -5.611   5.515 118.732  0.00  0.00    +0.000 N 
ATOM     23  H   UNL     1      -5.713   5.169 117.787  0.00  0.00    +0.000 HD
ATOM     24  H   UNL     1      -5.486   6.513 118.849  0.00  0.00    +0.000 HD
ENDBRANCH  19  22
ENDBRANCH  13  16
ENDBRANCH   1  13
TORSDOF 6
ENDMDL
MODEL 3
REMARK VINA RESULT:      -6.5      7.727      8.915
REMARK  Name = Sulfadimethoxine
REMARK  8 active torsions:
REMARK  status: ('A' for Active; 'I' for Inactive)
REMARK    1  A    between atoms: C_1  and  O_2
REMARK    2  A    between atoms: O_2  and  C_3
REMARK    3  A    between atoms: C_5  and  O_6
REMARK    4  A    between atoms: O_6  and  C_7
REMARK    5  A    between atoms: C_9  and  N_10
REMARK    6  A    between atoms: N_10  and  S_11
REMARK    7  A    between atoms: S_11  and  C_14
REMARK    8  A    between atoms: C_17  and  N_18
REMARK                            x       y       z     vdW  Elec       q    Type
REMARK                         _______ _______ _______ _____ _____    ______ ____
ROOT
ATOM      1  N   UNL     1      -8.749   4.977 130.431  0.00  0.00    +0.000 N 
ATOM      2  H   UNL     1      -9.131   4.168 130.907  0.00  0.00    +0.000 HD
ENDROOT
BRANCH   1   7
ATOM      3  C   UNL     1      -6.024   4.215 128.099  0.00  0.00    +0.000 A 
ATOM      4  N   UNL     1      -6.657   4.306 126.927  0.00  0.00    +0.000 NA
ATOM      5  C   UNL     1      -7.963   4.614 126.972  0.00  0.00    +0.000 A 
ATOM      6  N   UNL     1      -8.688   4.833 128.095  0.00  0.00    +0.000 NA
ATOM      7  C   UNL     1      -7.989   4.747 129.245  0.00  0.00    +0.000 A 
ATOM      8  C   UNL     1      -6.649   4.458 129.289  0.00  0.00    +0.000 A 
BRANCH   3  10
ATOM      9  C   UNL     1      -4.373   2.555 127.846  0.00  0.00    +0.000 C 
ATOM     10  O   UNL     1      -4.681   3.939 128.027  0.00  0.00    +0.000 OA
ENDBRANCH   3  10
BRANCH   5  11
ATOM     11  O   UNL     1      -8.535   4.684 125.718  0.00  0.00    +0.000 OA
ATOM     12  C   UNL     1      -8.335   3.559 124.883  0.00  0.00    +0.000 C 
ENDBRANCH   5  11
ENDBRANCH   1   7
BRANCH   1  13
ATOM     13  S   UNL     1      -8.987   6.550 130.982  0.00  0.00    +0.000 S 
ATOM     14  O   UNL     1      -9.320   6.487 132.386  0.00  0.00    +0.000 OA
ATOM     15  O   UNL     1      -7.846   7.328 130.528  0.00  0.00    +0.000 OA
BRANCH  13  16
ATOM     16  C   UNL     1     -10.407   7.204 130.150  0.00  0.00    +0.000 A 
ATOM     17  C   UNL     1     -11.685   6.982 130.653  0.00  0.00    +0.000 A 
ATOM     18  C   UNL     1     -12.791   7.466 129.946  0.00  0.00    +0.000 A 
ATOM     19  C   UNL     1     -12.637   8.210 128.771  0.00  0.00    +0.000 A 
ATOM     20  C   UNL     1     -11.347   8.450 128.293  0.00  0.00    +0.000 A 
ATOM     21  C   UNL     1     -10.231   7.957 128.979  0.00  0.00    +0.000 A 
BRANCH  19  22
ATOM     22  N   UNL     1     -13.746   8.588 128.033  0.00  0.00    +0.000 N 
ATOM     23  H   UNL     1     -14.436   7.897 127.768  0.00  0.00    +0.000 HD
ATOM     24  H   UNL     1     -14.029   9.560 128.006  0.00  0.00    +0.000 HD
ENDBRANCH  19  22
ENDBRANCH  13  16
ENDBRANCH   1  13
TORSDOF 6
ENDMDL
MODEL 4
REMARK VINA RESULT:      -6.5      1.949      2.117
REMARK  Name = Sulfadimethoxine
REMARK  8 active torsions:
REMARK  status: ('A' for Active; 'I' for Inactive)
REMARK    1  A    between atoms: C_1  and  O_2
REMARK    2  A    between atoms: O_2  and  C_3
REMARK    3  A    between atoms: C_5  and  O_6
REMARK    4  A    between atoms: O_6  and  C_7
REMARK    5  A    between atoms: C_9  and  N_10
REMARK    6  A    between atoms: N_10  and  S_11
REMARK    7  A    between atoms: S_11  and  C_14
REMARK    8  A    between atoms: C_17  and  N_18
REMARK                            x       y       z     vdW  Elec       q    Type
REMARK                         _______ _______ _______ _____ _____    ______ ____
ROOT
ATOM      1  N   UNL     1      -6.949   1.331 122.972  0.00  0.00    +0.000 N 
ATOM      2  H   UNL     1      -6.373   0.965 122.223  0.00  0.00    +0.000 HD
ENDROOT
BRANCH   1   7
ATOM      3  C   UNL     1      -7.188  -0.413 126.189  0.00  0.00    +0.000 A 
ATOM      4  N   UNL     1      -8.138  -1.313 125.922  0.00  0.00    +0.000 NA
ATOM      5  C   UNL     1      -8.655  -1.291 124.684  0.00  0.00    +0.000 A 
ATOM      6  N   UNL     1      -8.303  -0.439 123.692  0.00  0.00    +0.000 NA
ATOM      7  C   UNL     1      -7.325   0.431 124.015  0.00  0.00    +0.000 A 
ATOM      8  C   UNL     1      -6.727   0.464 125.250  0.00  0.00    +0.000 A 
BRANCH   3  10
ATOM      9  C   UNL     1      -5.531  -1.368 127.563  0.00  0.00    +0.000 C 
ATOM     10  O   UNL     1      -6.646  -0.481 127.448  0.00  0.00    +0.000 OA
ENDBRANCH   3  10
BRANCH   5  11
ATOM     11  O   UNL     1      -9.630  -2.251 124.499  0.00  0.00    +0.000 OA
ATOM     12  C   UNL     1      -9.396  -3.176 123.453  0.00  0.00    +0.000 C 
ENDBRANCH   5  11
ENDBRANCH   1   7
BRANCH   1  13
ATOM     13  S   UNL     1      -7.459   2.934 123.024  0.00  0.00    +0.000 S 
ATOM     14  O   UNL     1      -8.903   2.945 123.008  0.00  0.00    +0.000 OA
ATOM     15  O   UNL     1      -6.728   3.569 124.109  0.00  0.00    +0.000 OA
BRANCH  13  16
ATOM     16  C   UNL     1      -6.926   3.718 121.529  0.00  0.00    +0.000 A 
ATOM     17  C   UNL     1      -5.630   4.211 121.413  0.00  0.00    +0.000 A 
ATOM     18  C   UNL     1      -5.253   4.873 120.239  0.00  0.00    +0.000 A 
ATOM     19  C   UNL     1      -6.136   5.008 119.162  0.00  0.00    +0.000 A 
ATOM     20  C   UNL     1      -7.424   4.483 119.281  0.00  0.00    +0.000 A 
ATOM     21  C   UNL     1      -7.823   3.834 120.456  0.00  0.00    +0.000 A 
BRANCH  19  22
ATOM     22  N   UNL     1      -5.777   5.757 118.054  0.00  0.00    +0.000 N 
ATOM     23  H   UNL     1      -4.881   6.226 118.030  0.00  0.00    +0.000 HD
ATOM     24  H   UNL     1      -6.246   5.610 117.169  0.00  0.00    +0.000 HD
ENDBRANCH  19  22
ENDBRANCH  13  16
ENDBRANCH   1  13
TORSDOF 6
ENDMDL
MODEL 5
REMARK VINA RESULT:      -6.5      3.438      4.221
REMARK  Name = Sulfadimethoxine
REMARK  8 active torsions:
REMARK  status: ('A' for Active; 'I' for Inactive)
REMARK    1  A    between atoms: C_1  and  O_2
REMARK    2  A    between atoms: O_2  and  C_3
REMARK    3  A    between atoms: C_5  and  O_6
REMARK    4  A    between atoms: O_6  and  C_7
REMARK    5  A    between atoms: C_9  and  N_10
REMARK    6  A    between atoms: N_10  and  S_11
REMARK    7  A    between atoms: S_11  and  C_14
REMARK    8  A    between atoms: C_17  and  N_18
REMARK                            x       y       z     vdW  Elec       q    Type
REMARK                         _______ _______ _______ _____ _____    ______ ____
ROOT
ATOM      1  N   UNL     1      -7.263   3.973 123.978  0.00  0.00    +0.000 N 
ATOM      2  H   UNL     1      -7.684   4.887 124.096  0.00  0.00    +0.000 HD
ENDROOT
BRANCH   1   7
ATOM      3  C   UNL     1      -4.275   3.453 126.040  0.00  0.00    +0.000 A 
ATOM      4  N   UNL     1      -4.752   2.632 126.979  0.00  0.00    +0.000 NA
ATOM      5  C   UNL     1      -6.048   2.296 126.880  0.00  0.00    +0.000 A 
ATOM      6  N   UNL     1      -6.906   2.718 125.922  0.00  0.00    +0.000 NA
ATOM      7  C   UNL     1      -6.362   3.527 124.990  0.00  0.00    +0.000 A 
ATOM      8  C   UNL     1      -5.042   3.904 125.003  0.00  0.00    +0.000 A 
BRANCH   3  10
ATOM      9  C   UNL     1      -2.518   4.150 127.444  0.00  0.00    +0.000 C 
ATOM     10  O   UNL     1      -2.938   3.751 126.137  0.00  0.00    +0.000 OA
ENDBRANCH   3  10
BRANCH   5  11
ATOM     11  O   UNL     1      -6.454   1.449 127.892  0.00  0.00    +0.000 OA
ATOM     12  C   UNL     1      -5.631   0.321 128.122  0.00  0.00    +0.000 C 
ENDBRANCH   5  11
ENDBRANCH   1   7
BRANCH   1  13
ATOM     13  S   UNL     1      -7.593   2.986 122.655  0.00  0.00    +0.000 S 
ATOM     14  O   UNL     1      -6.817   1.776 122.794  0.00  0.00    +0.000 OA
ATOM     15  O   UNL     1      -9.041   2.924 122.532  0.00  0.00    +0.000 OA
BRANCH  13  16
ATOM     16  C   UNL     1      -6.998   3.810 121.205  0.00  0.00    +0.000 A 
ATOM     17  C   UNL     1      -5.698   4.303 121.156  0.00  0.00    +0.000 A 
ATOM     18  C   UNL     1      -5.273   4.995 120.017  0.00  0.00    +0.000 A 
ATOM     19  C   UNL     1      -6.111   5.161 118.909  0.00  0.00    +0.000 A 
ATOM     20  C   UNL     1      -7.403   4.636 118.961  0.00  0.00    +0.000 A 
ATOM     21  C   UNL     1      -7.850   3.956 120.100  0.00  0.00    +0.000 A 
BRANCH  19  22
ATOM     22  N   UNL     1      -5.706   5.939 117.837  0.00  0.00    +0.000 N 
ATOM     23  H   UNL     1      -5.755   6.948 117.898  0.00  0.00    +0.000 HD
ATOM     24  H   UNL     1      -5.101   5.547 117.126  0.00  0.00    +0.000 HD
ENDBRANCH  19  22
ENDBRANCH  13  16
ENDBRANCH   1  13
TORSDOF 6
ENDMDL
MODEL 6
REMARK VINA RESULT:      -6.5      9.937     10.899
REMARK  Name = Sulfadimethoxine
REMARK  8 active torsions:
REMARK  status: ('A' for Active; 'I' for Inactive)
REMARK    1  A    between atoms: C_1  and  O_2
REMARK    2  A    between atoms: O_2  and  C_3
REMARK    3  A    between atoms: C_5  and  O_6
REMARK    4  A    between atoms: O_6  and  C_7
REMARK    5  A    between atoms: C_9  and  N_10
REMARK    6  A    between atoms: N_10  and  S_11
REMARK    7  A    between atoms: S_11  and  C_14
REMARK    8  A    between atoms: C_17  and  N_18
REMARK                            x       y       z     vdW  Elec       q    Type
REMARK                         _______ _______ _______ _____ _____    ______ ____
ROOT
ATOM      1  N   UNL     1     -10.440   5.151 132.216  0.00  0.00    +0.000 N 
ATOM      2  H   UNL     1     -11.220   5.508 132.756  0.00  0.00    +0.000 HD
ENDROOT
BRANCH   1   7
ATOM      3  C   UNL     1      -7.961   2.791 133.533  0.00  0.00    +0.000 A 
ATOM      4  N   UNL     1      -7.247   3.589 134.331  0.00  0.00    +0.000 NA
ATOM      5  C   UNL     1      -7.626   4.876 134.388  0.00  0.00    +0.000 A 
ATOM      6  N   UNL     1      -8.657   5.430 133.708  0.00  0.00    +0.000 NA
ATOM      7  C   UNL     1      -9.352   4.571 132.935  0.00  0.00    +0.000 A 
ATOM      8  C   UNL     1      -9.047   3.237 132.835  0.00  0.00    +0.000 A 
BRANCH   3  10
ATOM      9  C   UNL     1      -6.238   1.242 133.951  0.00  0.00    +0.000 C 
ATOM     10  O   UNL     1      -7.581   1.472 133.521  0.00  0.00    +0.000 OA
ENDBRANCH   3  10
BRANCH   5  11
ATOM     11  O   UNL     1      -6.832   5.625 135.234  0.00  0.00    +0.000 OA
ATOM     12  C   UNL     1      -7.499   6.254 136.312  0.00  0.00    +0.000 C 
ENDBRANCH   5  11
ENDBRANCH   1   7
BRANCH   1  13
ATOM     13  S   UNL     1     -10.396   5.214 130.535  0.00  0.00    +0.000 S 
ATOM     14  O   UNL     1      -9.019   5.367 130.129  0.00  0.00    +0.000 OA
ATOM     15  O   UNL     1     -11.187   4.091 130.054  0.00  0.00    +0.000 OA
BRANCH  13  16
ATOM     16  C   UNL     1     -11.245   6.682 130.028  0.00  0.00    +0.000 A 
ATOM     17  C   UNL     1     -10.903   7.321 128.840  0.00  0.00    +0.000 A 
ATOM     18  C   UNL     1     -11.554   8.509 128.490  0.00  0.00    +0.000 A 
ATOM     19  C   UNL     1     -12.575   9.042 129.285  0.00  0.00    +0.000 A 
ATOM     20  C   UNL     1     -12.927   8.375 130.460  0.00  0.00    +0.000 A 
ATOM     21  C   UNL     1     -12.272   7.195 130.833  0.00  0.00    +0.000 A 
BRANCH  19  22
ATOM     22  N   UNL     1     -13.132  10.271 128.975  0.00  0.00    +0.000 N 
ATOM     23  H   UNL     1     -13.875  10.331 128.292  0.00  0.00    +0.000 HD
ATOM     24  H   UNL     1     -13.023  11.052 129.611  0.00  0.00    +0.000 HD
ENDBRANCH  19  22
ENDBRANCH  13  16
ENDBRANCH   1  13
TORSDOF 6
ENDMDL
MODEL 7
REMARK VINA RESULT:      -6.5      9.813     10.867
REMARK  Name = Sulfadimethoxine
REMARK  8 active torsions:
REMARK  status: ('A' for Active; 'I' for Inactive)
REMARK    1  A    between atoms: C_1  and  O_2
REMARK    2  A    between atoms: O_2  and  C_3
REMARK    3  A    between atoms: C_5  and  O_6
REMARK    4  A    between atoms: O_6  and  C_7
REMARK    5  A    between atoms: C_9  and  N_10
REMARK    6  A    between atoms: N_10  and  S_11
REMARK    7  A    between atoms: S_11  and  C_14
REMARK    8  A    between atoms: C_17  and  N_18
REMARK                            x       y       z     vdW  Elec       q    Type
REMARK                         _______ _______ _______ _____ _____    ______ ____
ROOT
ATOM      1  N   UNL     1     -10.460   5.126 132.203  0.00  0.00    +0.000 N 
ATOM      2  H   UNL     1     -11.247   5.463 132.745  0.00  0.00    +0.000 HD
ENDROOT
BRANCH   1   7
ATOM      3  C   UNL     1      -7.550   4.715 134.396  0.00  0.00    +0.000 A 
ATOM      4  N   UNL     1      -7.295   3.414 134.241  0.00  0.00    +0.000 NA
ATOM      5  C   UNL     1      -8.108   2.736 133.416  0.00  0.00    +0.000 A 
ATOM      6  N   UNL     1      -9.159   3.254 132.737  0.00  0.00    +0.000 NA
ATOM      7  C   UNL     1      -9.354   4.576 132.917  0.00  0.00    +0.000 A 
ATOM      8  C   UNL     1      -8.558   5.348 133.726  0.00  0.00    +0.000 A 
BRANCH   3  10
ATOM      9  C   UNL     1      -7.300   6.021 136.340  0.00  0.00    +0.000 C 
ATOM     10  O   UNL     1      -6.681   5.396 135.213  0.00  0.00    +0.000 OA
ENDBRANCH   3  10
BRANCH   5  11
ATOM     11  O   UNL     1      -7.772   1.401 133.318  0.00  0.00    +0.000 OA
ATOM     12  C   UNL     1      -8.294   0.712 132.197  0.00  0.00    +0.000 C 
ENDBRANCH   5  11
ENDBRANCH   1   7
BRANCH   1  13
ATOM     13  S   UNL     1     -10.424   5.188 130.521  0.00  0.00    +0.000 S 
ATOM     14  O   UNL     1      -9.048   5.323 130.107  0.00  0.00    +0.000 OA
ATOM     15  O   UNL     1     -11.233   4.076 130.045  0.00  0.00    +0.000 OA
BRANCH  13  16
ATOM     16  C   UNL     1     -11.256   6.668 130.018  0.00  0.00    +0.000 A 
ATOM     17  C   UNL     1     -10.893   7.318 128.843  0.00  0.00    +0.000 A 
ATOM     18  C   UNL     1     -11.532   8.514 128.497  0.00  0.00    +0.000 A 
ATOM     19  C   UNL     1     -12.560   9.044 129.284  0.00  0.00    +0.000 A 
ATOM     20  C   UNL     1     -12.934   8.367 130.446  0.00  0.00    +0.000 A 
ATOM     21  C   UNL     1     -12.292   7.178 130.814  0.00  0.00    +0.000 A 
BRANCH  19  22
ATOM     22  N   UNL     1     -13.105  10.281 128.979  0.00  0.00    +0.000 N 
ATOM     23  H   UNL     1     -14.099  10.367 128.811  0.00  0.00    +0.000 HD
ATOM     24  H   UNL     1     -12.598  11.127 129.206  0.00  0.00    +0.000 HD
ENDBRANCH  19  22
ENDBRANCH  13  16
ENDBRANCH   1  13
TORSDOF 6
ENDMDL
MODEL 8
REMARK VINA RESULT:      -6.5      1.614      1.933
REMARK  Name = Sulfadimethoxine
REMARK  8 active torsions:
REMARK  status: ('A' for Active; 'I' for Inactive)
REMARK    1  A    between atoms: C_1  and  O_2
REMARK    2  A    between atoms: O_2  and  C_3
REMARK    3  A    between atoms: C_5  and  O_6
REMARK    4  A    between atoms: O_6  and  C_7
REMARK    5  A    between atoms: C_9  and  N_10
REMARK    6  A    between atoms: N_10  and  S_11
REMARK    7  A    between atoms: S_11  and  C_14
REMARK    8  A    between atoms: C_17  and  N_18
REMARK                            x       y       z     vdW  Elec       q    Type
REMARK                         _______ _______ _______ _____ _____    ______ ____
ROOT
ATOM      1  N   UNL     1      -6.883   1.605 123.447  0.00  0.00    +0.000 N 
ATOM      2  H   UNL     1      -5.883   1.748 123.360  0.00  0.00    +0.000 HD
ENDROOT
BRANCH   1   7
ATOM      3  C   UNL     1      -7.937  -1.854 124.060  0.00  0.00    +0.000 A 
ATOM      4  N   UNL     1      -8.138  -1.830 125.379  0.00  0.00    +0.000 NA
ATOM      5  C   UNL     1      -7.909  -0.662 126.000  0.00  0.00    +0.000 A 
ATOM      6  N   UNL     1      -7.490   0.482 125.410  0.00  0.00    +0.000 NA
ATOM      7  C   UNL     1      -7.324   0.401 124.074  0.00  0.00    +0.000 A 
ATOM      8  C   UNL     1      -7.555  -0.746 123.357  0.00  0.00    +0.000 A 
BRANCH   3  10
ATOM      9  C   UNL     1      -9.591  -3.431 123.496  0.00  0.00    +0.000 C 
ATOM     10  O   UNL     1      -8.216  -3.046 123.439  0.00  0.00    +0.000 OA
ENDBRANCH   3  10
BRANCH   5  11
ATOM     11  O   UNL     1      -8.141  -0.730 127.360  0.00  0.00    +0.000 OA
ATOM     12  C   UNL     1      -7.273   0.036 128.174  0.00  0.00    +0.000 C 
ENDBRANCH   5  11
ENDBRANCH   1   7
BRANCH   1  13
ATOM     13  S   UNL     1      -8.011   2.725 122.894  0.00  0.00    +0.000 S 
ATOM     14  O   UNL     1      -9.164   1.999 122.415  0.00  0.00    +0.000 OA
ATOM     15  O   UNL     1      -8.151   3.727 123.939  0.00  0.00    +0.000 OA
BRANCH  13  16
ATOM     16  C   UNL     1      -7.310   3.550 121.494  0.00  0.00    +0.000 A 
ATOM     17  C   UNL     1      -5.970   3.924 121.491  0.00  0.00    +0.000 A 
ATOM     18  C   UNL     1      -5.457   4.622 120.393  0.00  0.00    +0.000 A 
ATOM     19  C   UNL     1      -6.250   4.910 119.277  0.00  0.00    +0.000 A 
ATOM     20  C   UNL     1      -7.586   4.505 119.281  0.00  0.00    +0.000 A 
ATOM     21  C   UNL     1      -8.119   3.821 120.380  0.00  0.00    +0.000 A 
BRANCH  19  22
ATOM     22  N   UNL     1      -5.751   5.693 118.249  0.00  0.00    +0.000 N 
ATOM     23  H   UNL     1      -5.129   6.463 118.456  0.00  0.00    +0.000 HD
ATOM     24  H   UNL     1      -5.755   5.343 117.298  0.00  0.00    +0.000 HD
ENDBRANCH  19  22
ENDBRANCH  13  16
ENDBRANCH   1  13
TORSDOF 6
ENDMDL
MODEL 9
REMARK VINA RESULT:      -6.3      8.101      9.154
REMARK  Name = Sulfadimethoxine
REMARK  8 active torsions:
REMARK  status: ('A' for Active; 'I' for Inactive)
REMARK    1  A    between atoms: C_1  and  O_2
REMARK    2  A    between atoms: O_2  and  C_3
REMARK    3  A    between atoms: C_5  and  O_6
REMARK    4  A    between atoms: O_6  and  C_7
REMARK    5  A    between atoms: C_9  and  N_10
REMARK    6  A    between atoms: N_10  and  S_11
REMARK    7  A    between atoms: S_11  and  C_14
REMARK    8  A    between atoms: C_17  and  N_18
REMARK                            x       y       z     vdW  Elec       q    Type
REMARK                         _______ _______ _______ _____ _____    ______ ____
ROOT
ATOM      1  N   UNL     1     -10.162   4.241 131.642  0.00  0.00    +0.000 N 
ATOM      2  H   UNL     1     -11.051   4.017 132.072  0.00  0.00    +0.000 HD
ENDROOT
BRANCH   1   7
ATOM      3  C   UNL     1      -8.140   1.260 130.954  0.00  0.00    +0.000 A 
ATOM      4  N   UNL     1      -8.198   1.214 129.620  0.00  0.00    +0.000 NA
ATOM      5  C   UNL     1      -8.912   2.177 129.017  0.00  0.00    +0.000 A 
ATOM      6  N   UNL     1      -9.576   3.180 129.639  0.00  0.00    +0.000 NA
ATOM      7  C   UNL     1      -9.463   3.186 130.983  0.00  0.00    +0.000 A 
ATOM      8  C   UNL     1      -8.737   2.252 131.678  0.00  0.00    +0.000 A 
BRANCH   3  10
ATOM      9  C   UNL     1      -8.119  -0.692 132.270  0.00  0.00    +0.000 C 
ATOM     10  O   UNL     1      -7.372   0.289 131.547  0.00  0.00    +0.000 OA
ENDBRANCH   3  10
BRANCH   5  11
ATOM     11  O   UNL     1      -8.918   2.050 127.642  0.00  0.00    +0.000 OA
ATOM     12  C   UNL     1      -7.747   2.483 126.975  0.00  0.00    +0.000 C 
ENDBRANCH   5  11
ENDBRANCH   1   7
BRANCH   1  13
ATOM     13  S   UNL     1      -9.502   5.790 131.677  0.00  0.00    +0.000 S 
ATOM     14  O   UNL     1      -9.578   6.278 133.033  0.00  0.00    +0.000 OA
ATOM     15  O   UNL     1      -8.222   5.713 130.990  0.00  0.00    +0.000 OA
BRANCH  13  16
ATOM     16  C   UNL     1     -10.538   6.839 130.697  0.00  0.00    +0.000 A 
ATOM     17  C   UNL     1     -10.037   7.463 129.559  0.00  0.00    +0.000 A 
ATOM     18  C   UNL     1     -10.863   8.329 128.834  0.00  0.00    +0.000 A 
ATOM     19  C   UNL     1     -12.196   8.543 129.202  0.00  0.00    +0.000 A 
ATOM     20  C   UNL     1     -12.694   7.888 130.330  0.00  0.00    +0.000 A 
ATOM     21  C   UNL     1     -11.875   7.033 131.077  0.00  0.00    +0.000 A 
BRANCH  19  22
ATOM     22  N   UNL     1     -12.963   9.483 128.534  0.00  0.00    +0.000 N 
ATOM     23  H   UNL     1     -13.885   9.236 128.198  0.00  0.00    +0.000 HD
ATOM     24  H   UNL     1     -12.754  10.468 128.629  0.00  0.00    +0.000 HD
ENDBRANCH  19  22
ENDBRANCH  13  16
ENDBRANCH   1  13
TORSDOF 6
ENDMDL
