MODEL 1
REMARK VINA RESULT:      -6.0      0.000      0.000
REMARK  Name = Sulfathiazole
REMARK  3 active torsions:
REMARK  status: ('A' for Active; 'I' for Inactive)
REMARK    1  A    between atoms: N_1  and  C_2
REMARK    2  A    between atoms: C_5  and  S_8
REMARK    3  A    between atoms: S_8  and  N_11
REMARK                            x       y       z     vdW  Elec       q    Type
REMARK                         _______ _______ _______ _____ _____    ______ ____
ROOT
ATOM      1  S   UNL     1      -7.685   2.519 123.594  0.00  0.00    +0.000 S 
ATOM      2  O   UNL     1      -6.531   2.030 124.312  0.00  0.00    +0.000 OA
ATOM      3  O   UNL     1      -8.629   3.450 124.189  0.00  0.00    +0.000 OA
ENDROOT
BRANCH   1   4
ATOM      4  N   UNL     1      -8.528   1.200 122.979  0.00  0.00    +0.000 N 
ATOM      5  C   UNL     1      -8.602   0.067 123.831  0.00  0.00    +0.000 A 
ATOM      6  N   UNL     1      -8.980   0.153 125.081  0.00  0.00    +0.000 NA
ATOM      7  C   UNL     1      -9.141  -1.111 125.618  0.00  0.00    +0.000 A 
ATOM      8  C   UNL     1      -8.811  -2.159 124.786  0.00  0.00    +0.000 A 
ATOM      9  S   UNL     1      -8.402  -1.535 123.237  0.00  0.00    +0.000 S 
ATOM     10  H   UNL     1      -8.480   0.997 121.992  0.00  0.00    +0.000 HD
ENDBRANCH   1   4
BRANCH   1  14
ATOM     11  C   UNL     1      -6.031   4.690 119.846  0.00  0.00    +0.000 A 
ATOM     12  C   UNL     1      -7.340   4.208 119.890  0.00  0.00    +0.000 A 
ATOM     13  C   UNL     1      -7.831   3.561 121.039  0.00  0.00    +0.000 A 
ATOM     14  C   UNL     1      -7.009   3.392 122.166  0.00  0.00    +0.000 A 
ATOM     15  C   UNL     1      -5.705   3.886 122.132  0.00  0.00    +0.000 A 
ATOM     16  C   UNL     1      -5.232   4.539 120.983  0.00  0.00    +0.000 A 
BRANCH  11  17
ATOM     17  N   UNL     1      -5.561   5.386 118.746  0.00  0.00    +0.000 N 
ATOM     18  H   UNL     1      -6.154   5.528 117.937  0.00  0.00    +0.000 HD
ATOM     19  H   UNL     1      -4.570   5.555 118.631  0.00  0.00    +0.000 HD
ENDBRANCH  11  17
ENDBRANCH   1  14
TORSDOF 3
ENDMDL
MODEL 2
REMARK VINA RESULT:      -6.0      8.887      9.833
REMARK  Name = Sulfathiazole
REMARK  3 active torsions:
REMARK  status: ('A' for Active; 'I' for Inactive)
REMARK    1  A    between atoms: N_1  and  C_2
REMARK    2  A    between atoms: C_5  and  S_8
REMARK    3  A    between atoms: S_8  and  N_11
REMARK                            x       y       z     vdW  Elec       q    Type
REMARK                         _______ _______ _______ _____ _____    ______ ____
ROOT
ATOM      1  S   UNL     1     -10.235   5.228 129.929  0.00  0.00    +0.000 S 
ATOM      2  O   UNL     1     -11.201   4.159 130.035  0.00  0.00    +0.000 OA
ATOM      3  O   UNL     1      -9.207   5.243 128.902  0.00  0.00    +0.000 OA
ENDROOT
BRANCH   1   4
ATOM      4  N   UNL     1      -9.512   5.443 131.433  0.00  0.00    +0.000 N 
ATOM      5  C   UNL     1      -8.899   4.290 131.989  0.00  0.00    +0.000 A 
ATOM      6  N   UNL     1      -8.056   3.550 131.316  0.00  0.00    +0.000 NA
ATOM      7  C   UNL     1      -7.475   2.612 132.150  0.00  0.00    +0.000 A 
ATOM      8  C   UNL     1      -7.936   2.600 133.449  0.00  0.00    +0.000 A 
ATOM      9  S   UNL     1      -9.052   3.892 133.656  0.00  0.00    +0.000 S 
ATOM     10  H   UNL     1      -9.930   6.075 132.099  0.00  0.00    +0.000 HD
ENDBRANCH   1   4
BRANCH   1  14
ATOM     11  C   UNL     1     -12.659   9.085 129.069  0.00  0.00    +0.000 A 
ATOM     12  C   UNL     1     -11.823   8.521 128.105  0.00  0.00    +0.000 A 
ATOM     13  C   UNL     1     -11.101   7.344 128.378  0.00  0.00    +0.000 A 
ATOM     14  C   UNL     1     -11.215   6.713 129.628  0.00  0.00    +0.000 A 
ATOM     15  C   UNL     1     -12.062   7.265 130.589  0.00  0.00    +0.000 A 
ATOM     16  C   UNL     1     -12.784   8.434 130.299  0.00  0.00    +0.000 A 
BRANCH  11  17
ATOM     17  N   UNL     1     -13.422  10.204 128.787  0.00  0.00    +0.000 N 
ATOM     18  H   UNL     1     -13.207  10.784 127.985  0.00  0.00    +0.000 HD
ATOM     19  H   UNL     1     -14.042  10.592 129.487  0.00  0.00    +0.000 HD
ENDBRANCH  11  17
ENDBRANCH   1  14
TORSDOF 3
ENDMDL
MODEL 3
REMARK VINA RESULT:      -6.0      9.117     10.130
REMARK  Name = Sulfathiazole
REMARK  3 active torsions:
REMARK  status: ('A' for Active; 'I' for Inactive)
REMARK    1  A    between atoms: N_1  and  C_2
REMARK    2  A    between atoms: C_5  and  S_8
REMARK    3  A    between atoms: S_8  and  N_11
REMARK                            x       y       z     vdW  Elec       q    Type
REMARK                         _______ _______ _______ _____ _____    ______ ____
ROOT
ATOM      1  S   UNL     1     -10.227   5.099 129.993  0.00  0.00    +0.000 S 
ATOM      2  O   UNL     1     -11.284   4.125 130.141  0.00  0.00    +0.000 OA
ATOM      3  O   UNL     1      -9.207   4.982 128.966  0.00  0.00    +0.000 OA
ENDROOT
BRANCH   1   4
ATOM      4  N   UNL     1      -9.482   5.307 131.487  0.00  0.00    +0.000 N 
ATOM      5  C   UNL     1      -8.136   5.753 131.444  0.00  0.00    +0.000 A 
ATOM      6  N   UNL     1      -7.762   6.788 130.737  0.00  0.00    +0.000 NA
ATOM      7  C   UNL     1      -6.448   7.111 131.023  0.00  0.00    +0.000 A 
ATOM      8  C   UNL     1      -5.804   6.267 131.902  0.00  0.00    +0.000 A 
ATOM      9  S   UNL     1      -6.927   5.100 132.479  0.00  0.00    +0.000 S 
ATOM     10  H   UNL     1      -9.707   4.681 132.246  0.00  0.00    +0.000 HD
ENDBRANCH   1   4
BRANCH   1  14
ATOM     11  C   UNL     1     -12.508   9.042 129.133  0.00  0.00    +0.000 A 
ATOM     12  C   UNL     1     -12.793   8.267 130.258  0.00  0.00    +0.000 A 
ATOM     13  C   UNL     1     -12.085   7.078 130.511  0.00  0.00    +0.000 A 
ATOM     14  C   UNL     1     -11.073   6.653 129.634  0.00  0.00    +0.000 A 
ATOM     15  C   UNL     1     -10.774   7.433 128.517  0.00  0.00    +0.000 A 
ATOM     16  C   UNL     1     -11.482   8.623 128.283  0.00  0.00    +0.000 A 
BRANCH  11  17
ATOM     17  N   UNL     1     -13.154  10.246 128.912  0.00  0.00    +0.000 N 
ATOM     18  H   UNL     1     -13.860  10.577 129.558  0.00  0.00    +0.000 HD
ATOM     19  H   UNL     1     -13.109  10.693 128.005  0.00  0.00    +0.000 HD
ENDBRANCH  11  17
ENDBRANCH   1  14
TORSDOF 3
ENDMDL
MODEL 4
REMARK VINA RESULT:      -5.9      9.399     11.187
REMARK  Name = Sulfathiazole
REMARK  3 active torsions:
REMARK  status: ('A' for Active; 'I' for Inactive)
REMARK    1  A    between atoms: N_1  and  C_2
REMARK    2  A    between atoms: C_5  and  S_8
REMARK    3  A    between atoms: S_8  and  N_11
REMARK                            x       y       z     vdW  Elec       q    Type
REMARK                         _______ _______ _______ _____ _____    ______ ____
ROOT
ATOM      1  S   UNL     1     -10.680   4.908 130.393  0.00  0.00    +0.000 S 
ATOM      2  O   UNL     1      -9.813   5.438 129.367  0.00  0.00    +0.000 OA
ATOM      3  O   UNL     1     -11.354   3.628 130.252  0.00  0.00    +0.000 OA
ENDROOT
BRANCH   1   4
ATOM      4  N   UNL     1     -11.815   6.085 130.791  0.00  0.00    +0.000 N 
ATOM      5  C   UNL     1     -12.347   6.818 129.699  0.00  0.00    +0.000 A 
ATOM      6  N   UNL     1     -12.829   6.236 128.631  0.00  0.00    +0.000 NA
ATOM      7  C   UNL     1     -13.446   7.169 127.817  0.00  0.00    +0.000 A 
ATOM      8  C   UNL     1     -13.365   8.478 128.241  0.00  0.00    +0.000 A 
ATOM      9  S   UNL     1     -12.592   8.519 129.777  0.00  0.00    +0.000 S 
ATOM     10  H   UNL     1     -11.713   6.602 131.651  0.00  0.00    +0.000 HD
ENDBRANCH   1   4
BRANCH   1  14
ATOM     11  C   UNL     1      -7.891   4.525 134.076  0.00  0.00    +0.000 A 
ATOM     12  C   UNL     1      -8.085   5.749 133.434  0.00  0.00    +0.000 A 
ATOM     13  C   UNL     1      -8.943   5.851 132.323  0.00  0.00    +0.000 A 
ATOM     14  C   UNL     1      -9.624   4.720 131.845  0.00  0.00    +0.000 A 
ATOM     15  C   UNL     1      -9.445   3.498 132.493  0.00  0.00    +0.000 A 
ATOM     16  C   UNL     1      -8.594   3.413 133.607  0.00  0.00    +0.000 A 
BRANCH  11  17
ATOM     17  N   UNL     1      -7.101   4.430 135.209  0.00  0.00    +0.000 N 
ATOM     18  H   UNL     1      -7.060   5.193 135.872  0.00  0.00    +0.000 HD
ATOM     19  H   UNL     1      -6.384   3.718 135.275  0.00  0.00    +0.000 HD
ENDBRANCH  11  17
ENDBRANCH   1  14
TORSDOF 3
ENDMDL
MODEL 5
REMARK VINA RESULT:      -5.8      9.162      9.903
REMARK  Name = Sulfathiazole
REMARK  3 active torsions:
REMARK  status: ('A' for Active; 'I' for Inactive)
REMARK    1  A    between atoms: N_1  and  C_2
REMARK    2  A    between atoms: C_5  and  S_8
REMARK    3  A    between atoms: S_8  and  N_11
REMARK                            x       y       z     vdW  Elec       q    Type
REMARK                         _______ _______ _______ _____ _____    ______ ____
ROOT
ATOM      1  S   UNL     1      -9.444   5.856 131.705  0.00  0.00    +0.000 S 
ATOM      2  O   UNL     1      -8.197   5.892 130.977  0.00  0.00    +0.000 OA
ATOM      3  O   UNL     1      -9.560   6.349 133.066  0.00  0.00    +0.000 OA
ENDROOT
BRANCH   1   4
ATOM      4  N   UNL     1     -10.058   4.291 131.633  0.00  0.00    +0.000 N 
ATOM      5  C   UNL     1      -9.143   3.258 131.967  0.00  0.00    +0.000 A 
ATOM      6  N   UNL     1      -8.422   3.285 133.058  0.00  0.00    +0.000 NA
ATOM      7  C   UNL     1      -7.766   2.079 133.225  0.00  0.00    +0.000 A 
ATOM      8  C   UNL     1      -7.939   1.160 132.213  0.00  0.00    +0.000 A 
ATOM      9  S   UNL     1      -9.062   1.790 131.073  0.00  0.00    +0.000 S 
ATOM     10  H   UNL     1     -10.737   4.056 130.926  0.00  0.00    +0.000 HD
ENDBRANCH   1   4
BRANCH   1  14
ATOM     11  C   UNL     1     -12.243   8.563 129.187  0.00  0.00    +0.000 A 
ATOM     12  C   UNL     1     -10.917   8.338 128.813  0.00  0.00    +0.000 A 
ATOM     13  C   UNL     1     -10.083   7.505 129.582  0.00  0.00    +0.000 A 
ATOM     14  C   UNL     1     -10.574   6.881 130.740  0.00  0.00    +0.000 A 
ATOM     15  C   UNL     1     -11.903   7.091 131.110  0.00  0.00    +0.000 A 
ATOM     16  C   UNL     1     -12.727   7.916 130.327  0.00  0.00    +0.000 A 
BRANCH  11  17
ATOM     17  N   UNL     1     -13.088   9.327 128.402  0.00  0.00    +0.000 N 
ATOM     18  H   UNL     1     -12.721   9.869 127.630  0.00  0.00    +0.000 HD
ATOM     19  H   UNL     1     -14.025   9.543 128.718  0.00  0.00    +0.000 HD
ENDBRANCH  11  17
ENDBRANCH   1  14
TORSDOF 3
ENDMDL
MODEL 6
REMARK VINA RESULT:      -5.7      8.571      9.531
REMARK  Name = Sulfathiazole
REMARK  3 active torsions:
REMARK  status: ('A' for Active; 'I' for Inactive)
REMARK    1  A    between atoms: N_1  and  C_2
REMARK    2  A    between atoms: C_5  and  S_8
REMARK    3  A    between atoms: S_8  and  N_11
REMARK                            x       y       z     vdW  Elec       q    Type
REMARK                         _______ _______ _______ _____ _____    ______ ____
ROOT
ATOM      1  S   UNL     1     -10.413   5.119 130.499  0.00  0.00    +0.000 S 
ATOM      2  O   UNL     1     -10.066   5.319 131.887  0.00  0.00    +0.000 OA
ATOM      3  O   UNL     1     -11.326   4.073 130.073  0.00  0.00    +0.000 OA
ENDROOT
BRANCH   1   4
ATOM      4  N   UNL     1      -8.992   5.004 129.606  0.00  0.00    +0.000 N 
ATOM      5  C   UNL     1      -7.974   4.195 130.173  0.00  0.00    +0.000 A 
ATOM      6  N   UNL     1      -8.200   2.978 130.598  0.00  0.00    +0.000 NA
ATOM      7  C   UNL     1      -7.008   2.358 130.926  0.00  0.00    +0.000 A 
ATOM      8  C   UNL     1      -5.879   3.139 130.812  0.00  0.00    +0.000 A 
ATOM      9  S   UNL     1      -6.320   4.667 130.158  0.00  0.00    +0.000 S 
ATOM     10  H   UNL     1      -8.668   5.804 129.084  0.00  0.00    +0.000 HD
ENDBRANCH   1   4
BRANCH   1  14
ATOM     11  C   UNL     1     -12.552   9.038 129.250  0.00  0.00    +0.000 A 
ATOM     12  C   UNL     1     -12.913   8.348 130.408  0.00  0.00    +0.000 A 
ATOM     13  C   UNL     1     -12.247   7.166 130.780  0.00  0.00    +0.000 A 
ATOM     14  C   UNL     1     -11.201   6.661 129.990  0.00  0.00    +0.000 A 
ATOM     15  C   UNL     1     -10.826   7.355 128.840  0.00  0.00    +0.000 A 
ATOM     16  C   UNL     1     -11.492   8.540 128.487  0.00  0.00    +0.000 A 
BRANCH  11  17
ATOM     17  N   UNL     1     -13.156  10.237 128.914  0.00  0.00    +0.000 N 
ATOM     18  H   UNL     1     -13.640  10.783 129.615  0.00  0.00    +0.000 HD
ATOM     19  H   UNL     1     -13.331  10.468 127.944  0.00  0.00    +0.000 HD
ENDBRANCH  11  17
ENDBRANCH   1  14
TORSDOF 3
ENDMDL
MODEL 7
REMARK VINA RESULT:      -5.6      3.903      7.933
REMARK  Name = Sulfathiazole
REMARK  3 active torsions:
REMARK  status: ('A' for Active; 'I' for Inactive)
REMARK    1  A    between atoms: N_1  and  C_2
REMARK    2  A    between atoms: C_5  and  S_8
REMARK    3  A    between atoms: S_8  and  N_11
REMARK                            x       y       z     vdW  Elec       q    Type
REMARK                         _______ _______ _______ _____ _____    ______ ____
ROOT
ATOM      1  S   UNL     1      -8.621  -2.006 125.551  0.00  0.00    +0.000 S 
ATOM      2  O   UNL     1      -7.620  -2.099 124.514  0.00  0.00    +0.000 OA
ATOM      3  O   UNL     1      -9.836  -2.803 125.528  0.00  0.00    +0.000 OA
ENDROOT
BRANCH   1   4
ATOM      4  N   UNL     1      -9.031  -0.386 125.750  0.00  0.00    +0.000 N 
ATOM      5  C   UNL     1      -9.159   0.366 124.553  0.00  0.00    +0.000 A 
ATOM      6  N   UNL     1      -9.885  -0.041 123.543  0.00  0.00    +0.000 NA
ATOM      7  C   UNL     1      -9.984   0.960 122.594  0.00  0.00    +0.000 A 
ATOM      8  C   UNL     1      -9.268   2.108 122.860  0.00  0.00    +0.000 A 
ATOM      9  S   UNL     1      -8.543   1.966 124.413  0.00  0.00    +0.000 S 
ATOM     10  H   UNL     1      -8.674   0.122 126.545  0.00  0.00    +0.000 HD
ENDBRANCH   1   4
BRANCH   1  14
ATOM     11  C   UNL     1      -6.554  -3.267 129.504  0.00  0.00    +0.000 A 
ATOM     12  C   UNL     1      -7.871  -3.632 129.222  0.00  0.00    +0.000 A 
ATOM     13  C   UNL     1      -8.482  -3.250 128.013  0.00  0.00    +0.000 A 
ATOM     14  C   UNL     1      -7.770  -2.497 127.065  0.00  0.00    +0.000 A 
ATOM     15  C   UNL     1      -6.449  -2.143 127.335  0.00  0.00    +0.000 A 
ATOM     16  C   UNL     1      -5.849  -2.540 128.541  0.00  0.00    +0.000 A 
BRANCH  11  17
ATOM     17  N   UNL     1      -5.925  -3.694 130.660  0.00  0.00    +0.000 N 
ATOM     18  H   UNL     1      -6.351  -3.536 131.565  0.00  0.00    +0.000 HD
ATOM     19  H   UNL     1      -4.946  -3.950 130.647  0.00  0.00    +0.000 HD
ENDBRANCH  11  17
ENDBRANCH   1  14
TORSDOF 3
ENDMDL
MODEL 8
REMARK VINA RESULT:      -5.5      1.613      2.321
REMARK  Name = Sulfathiazole
REMARK  3 active torsions:
REMARK  status: ('A' for Active; 'I' for Inactive)
REMARK    1  A    between atoms: N_1  and  C_2
REMARK    2  A    between atoms: C_5  and  S_8
REMARK    3  A    between atoms: S_8  and  N_11
REMARK                            x       y       z     vdW  Elec       q    Type
REMARK                         _______ _______ _______ _____ _____    ______ ____
ROOT
ATOM      1  S   UNL     1      -8.765   2.046 124.986  0.00  0.00    +0.000 S 
ATOM      2  O   UNL     1      -8.437   3.020 126.002  0.00  0.00    +0.000 OA
ATOM      3  O   UNL     1     -10.138   1.725 124.638  0.00  0.00    +0.000 OA
ENDROOT
BRANCH   1   4
ATOM      4  N   UNL     1      -7.937   0.622 125.327  0.00  0.00    +0.000 N 
ATOM      5  C   UNL     1      -8.452  -0.549 124.714  0.00  0.00    +0.000 A 
ATOM      6  N   UNL     1      -8.715  -0.613 123.434  0.00  0.00    +0.000 NA
ATOM      7  C   UNL     1      -9.024  -1.913 123.075  0.00  0.00    +0.000 A 
ATOM      8  C   UNL     1      -9.063  -2.824 124.108  0.00  0.00    +0.000 A 
ATOM      9  S   UNL     1      -8.577  -2.041 125.561  0.00  0.00    +0.000 S 
ATOM     10  H   UNL     1      -7.532   0.490 126.242  0.00  0.00    +0.000 HD
ENDBRANCH   1   4
BRANCH   1  14
ATOM     11  C   UNL     1      -6.809   3.780 121.157  0.00  0.00    +0.000 A 
ATOM     12  C   UNL     1      -6.059   3.522 122.305  0.00  0.00    +0.000 A 
ATOM     13  C   UNL     1      -6.665   2.986 123.456  0.00  0.00    +0.000 A 
ATOM     14  C   UNL     1      -8.039   2.697 123.467  0.00  0.00    +0.000 A 
ATOM     15  C   UNL     1      -8.790   2.938 122.316  0.00  0.00    +0.000 A 
ATOM     16  C   UNL     1      -8.170   3.463 121.171  0.00  0.00    +0.000 A 
BRANCH  11  17
ATOM     17  N   UNL     1      -6.209   4.244 120.000  0.00  0.00    +0.000 N 
ATOM     18  H   UNL     1      -6.753   4.380 119.157  0.00  0.00    +0.000 HD
ATOM     19  H   UNL     1      -5.201   4.230 119.904  0.00  0.00    +0.000 HD
ENDBRANCH  11  17
ENDBRANCH   1  14
TORSDOF 3
ENDMDL
MODEL 9
REMARK VINA RESULT:      -5.4      8.562      9.787
REMARK  Name = Sulfathiazole
REMARK  3 active torsions:
REMARK  status: ('A' for Active; 'I' for Inactive)
REMARK    1  A    between atoms: N_1  and  C_2
REMARK    2  A    between atoms: C_5  and  S_8
REMARK    3  A    between atoms: S_8  and  N_11
REMARK                            x       y       z     vdW  Elec       q    Type
REMARK                         _______ _______ _______ _____ _____    ______ ____
ROOT
ATOM      1  S   UNL     1      -9.511   5.450 129.416  0.00  0.00    +0.000 S 
ATOM      2  O   UNL     1      -9.228   5.708 128.024  0.00  0.00    +0.000 OA
ATOM      3  O   UNL     1     -10.095   4.198 129.867  0.00  0.00    +0.000 OA
ENDROOT
BRANCH   1   4
ATOM      4  N   UNL     1     -10.421   6.729 130.020  0.00  0.00    +0.000 N 
ATOM      5  C   UNL     1     -11.555   7.094 129.249  0.00  0.00    +0.000 A 
ATOM      6  N   UNL     1     -12.438   6.218 128.843  0.00  0.00    +0.000 NA
ATOM      7  C   UNL     1     -13.525   6.863 128.279  0.00  0.00    +0.000 A 
ATOM      8  C   UNL     1     -13.427   8.235 128.196  0.00  0.00    +0.000 A 
ATOM      9  S   UNL     1     -11.972   8.738 128.963  0.00  0.00    +0.000 S 
ATOM     10  H   UNL     1      -9.956   7.490 130.492  0.00  0.00    +0.000 HD
ENDBRANCH   1   4
BRANCH   1  14
ATOM     11  C   UNL     1      -5.383   5.550 131.523  0.00  0.00    +0.000 A 
ATOM     12  C   UNL     1      -5.683   4.591 130.555  0.00  0.00    +0.000 A 
ATOM     13  C   UNL     1      -6.937   4.580 129.916  0.00  0.00    +0.000 A 
ATOM     14  C   UNL     1      -7.909   5.540 130.242  0.00  0.00    +0.000 A 
ATOM     15  C   UNL     1      -7.608   6.510 131.198  0.00  0.00    +0.000 A 
ATOM     16  C   UNL     1      -6.349   6.516 131.820  0.00  0.00    +0.000 A 
BRANCH  11  17
ATOM     17  N   UNL     1      -4.130   5.609 132.108  0.00  0.00    +0.000 N 
ATOM     18  H   UNL     1      -3.303   5.367 131.575  0.00  0.00    +0.000 HD
ATOM     19  H   UNL     1      -4.036   5.660 133.114  0.00  0.00    +0.000 HD
ENDBRANCH  11  17
ENDBRANCH   1  14
TORSDOF 3
ENDMDL
