MODEL 1
REMARK VINA RESULT:      -7.5      0.000      0.000
REMARK  Name = Sulfacytine
REMARK  5 active torsions:
REMARK  status: ('A' for Active; 'I' for Inactive)
REMARK    1  A    between atoms: C_1  and  C_2
REMARK    2  A    between atoms: C_2  and  N_3
REMARK    3  A    between atoms: N_7  and  S_8
REMARK    4  A    between atoms: S_8  and  C_11
REMARK    5  A    between atoms: C_14  and  N_15
REMARK                            x       y       z     vdW  Elec       q    Type
REMARK                         _______ _______ _______ _____ _____    ______ ____
ROOT
ATOM      1  S   UNL     1      -7.220   2.929 122.817  0.00  0.00    +0.000 S 
ATOM      2  O   UNL     1      -8.661   3.063 122.838  0.00  0.00    +0.000 OA
ATOM      3  O   UNL     1      -6.368   3.479 123.851  0.00  0.00    +0.000 OA
ENDROOT
BRANCH   1   8
ATOM      4  N   UNL     1      -8.581  -1.465 125.208  0.00  0.00    +0.000 N 
ATOM      5  C   UNL     1      -7.524  -1.864 124.396  0.00  0.00    +0.000 A 
ATOM      6  C   UNL     1      -7.065  -1.072 123.418  0.00  0.00    +0.000 A 
ATOM      7  C   UNL     1      -7.534   0.322 123.500  0.00  0.00    +0.000 A 
ATOM      8  N   UNL     1      -6.870   1.268 122.679  0.00  0.00    +0.000 N 
ATOM      9  N   UNL     1      -8.459   0.725 124.284  0.00  0.00    +0.000 NA
ATOM     10  C   UNL     1      -9.106  -0.165 125.080  0.00  0.00    +0.000 A 
ATOM     11  O   UNL     1     -10.127   0.215 125.653  0.00  0.00    +0.000 OA
ATOM     12  H   UNL     1      -6.136   0.999 122.040  0.00  0.00    +0.000 HD
BRANCH   4  14
ATOM     13  C   UNL     1      -8.535  -2.985 127.270  0.00  0.00    +0.000 C 
ATOM     14  C   UNL     1      -9.264  -2.508 126.017  0.00  0.00    +0.000 C 
ENDBRANCH   4  14
ENDBRANCH   1   8
BRANCH   1  15
ATOM     15  C   UNL     1      -6.685   3.744 121.311  0.00  0.00    +0.000 A 
ATOM     16  C   UNL     1      -5.434   4.341 121.192  0.00  0.00    +0.000 A 
ATOM     17  C   UNL     1      -5.157   5.151 120.076  0.00  0.00    +0.000 A 
ATOM     18  C   UNL     1      -6.080   5.320 119.037  0.00  0.00    +0.000 A 
ATOM     19  C   UNL     1      -7.261   4.579 119.092  0.00  0.00    +0.000 A 
ATOM     20  C   UNL     1      -7.600   3.858 120.250  0.00  0.00    +0.000 A 
BRANCH  18  21
ATOM     21  N   UNL     1      -5.721   6.021 117.881  0.00  0.00    +0.000 N 
ATOM     22  H   UNL     1      -4.757   6.342 117.845  0.00  0.00    +0.000 HD
ATOM     23  H   UNL     1      -6.377   6.731 117.570  0.00  0.00    +0.000 HD
ENDBRANCH  18  21
ENDBRANCH   1  15
TORSDOF 4
ENDMDL
MODEL 2
REMARK VINA RESULT:      -7.2      2.128      2.649
REMARK  Name = Sulfacytine
REMARK  5 active torsions:
REMARK  status: ('A' for Active; 'I' for Inactive)
REMARK    1  A    between atoms: C_1  and  C_2
REMARK    2  A    between atoms: C_2  and  N_3
REMARK    3  A    between atoms: N_7  and  S_8
REMARK    4  A    between atoms: S_8  and  C_11
REMARK    5  A    between atoms: C_14  and  N_15
REMARK                            x       y       z     vdW  Elec       q    Type
REMARK                         _______ _______ _______ _____ _____    ______ ____
ROOT
ATOM      1  S   UNL     1      -8.399   2.543 124.111  0.00  0.00    +0.000 S 
ATOM      2  O   UNL     1      -9.403   1.535 123.848  0.00  0.00    +0.000 OA
ATOM      3  O   UNL     1      -8.693   3.774 124.815  0.00  0.00    +0.000 OA
ENDROOT
BRANCH   1   8
ATOM      4  N   UNL     1      -6.308  -2.196 124.298  0.00  0.00    +0.000 N 
ATOM      5  C   UNL     1      -5.682  -1.536 125.351  0.00  0.00    +0.000 A 
ATOM      6  C   UNL     1      -5.755  -0.203 125.474  0.00  0.00    +0.000 A 
ATOM      7  C   UNL     1      -6.785   0.425 124.629  0.00  0.00    +0.000 A 
ATOM      8  N   UNL     1      -7.110   1.775 124.915  0.00  0.00    +0.000 N 
ATOM      9  N   UNL     1      -7.420  -0.179 123.698  0.00  0.00    +0.000 NA
ATOM     10  C   UNL     1      -7.125  -1.473 123.409  0.00  0.00    +0.000 A 
ATOM     11  O   UNL     1      -7.592  -1.950 122.375  0.00  0.00    +0.000 OA
ATOM     12  H   UNL     1      -6.635   2.296 125.638  0.00  0.00    +0.000 HD
BRANCH   4  14
ATOM     13  C   UNL     1      -4.433  -3.819 123.655  0.00  0.00    +0.000 C 
ATOM     14  C   UNL     1      -5.898  -3.597 124.020  0.00  0.00    +0.000 C 
ENDBRANCH   4  14
ENDBRANCH   1   8
BRANCH   1  15
ATOM     15  C   UNL     1      -7.820   3.074 122.498  0.00  0.00    +0.000 A 
ATOM     16  C   UNL     1      -6.472   3.282 122.222  0.00  0.00    +0.000 A 
ATOM     17  C   UNL     1      -6.099   3.907 121.018  0.00  0.00    +0.000 A 
ATOM     18  C   UNL     1      -7.044   4.264 120.047  0.00  0.00    +0.000 A 
ATOM     19  C   UNL     1      -8.371   3.893 120.267  0.00  0.00    +0.000 A 
ATOM     20  C   UNL     1      -8.773   3.374 121.510  0.00  0.00    +0.000 A 
BRANCH  18  21
ATOM     21  N   UNL     1      -6.627   4.757 118.807  0.00  0.00    +0.000 N 
ATOM     22  H   UNL     1      -6.214   4.073 118.179  0.00  0.00    +0.000 HD
ATOM     23  H   UNL     1      -6.104   5.629 118.829  0.00  0.00    +0.000 HD
ENDBRANCH  18  21
ENDBRANCH   1  15
TORSDOF 4
ENDMDL
MODEL 3
REMARK VINA RESULT:      -7.0      1.792      7.327
REMARK  Name = Sulfacytine
REMARK  5 active torsions:
REMARK  status: ('A' for Active; 'I' for Inactive)
REMARK    1  A    between atoms: C_1  and  C_2
REMARK    2  A    between atoms: C_2  and  N_3
REMARK    3  A    between atoms: N_7  and  S_8
REMARK    4  A    between atoms: S_8  and  C_11
REMARK    5  A    between atoms: C_14  and  N_15
REMARK                            x       y       z     vdW  Elec       q    Type
REMARK                         _______ _______ _______ _____ _____    ______ ____
ROOT
ATOM      1  S   UNL     1      -8.777   1.868 124.379  0.00  0.00    +0.000 S 
ATOM      2  O   UNL     1      -9.015   2.334 125.729  0.00  0.00    +0.000 OA
ATOM      3  O   UNL     1      -9.769   1.972 123.329  0.00  0.00    +0.000 OA
ENDROOT
BRANCH   1   8
ATOM      4  N   UNL     1      -7.076   4.086 120.014  0.00  0.00    +0.000 N 
ATOM      5  C   UNL     1      -5.921   3.979 120.782  0.00  0.00    +0.000 A 
ATOM      6  C   UNL     1      -5.983   3.696 122.090  0.00  0.00    +0.000 A 
ATOM      7  C   UNL     1      -7.296   3.201 122.539  0.00  0.00    +0.000 A 
ATOM      8  N   UNL     1      -7.351   2.619 123.830  0.00  0.00    +0.000 N 
ATOM      9  N   UNL     1      -8.357   3.230 121.828  0.00  0.00    +0.000 NA
ATOM     10  C   UNL     1      -8.325   3.782 120.587  0.00  0.00    +0.000 A 
ATOM     11  O   UNL     1      -9.400   3.990 120.024  0.00  0.00    +0.000 OA
ATOM     12  H   UNL     1      -6.541   2.576 124.432  0.00  0.00    +0.000 HD
BRANCH   4  14
ATOM     13  C   UNL     1      -5.881   5.806 118.539  0.00  0.00    +0.000 C 
ATOM     14  C   UNL     1      -6.965   4.742 118.685  0.00  0.00    +0.000 C 
ENDBRANCH   4  14
ENDBRANCH   1   8
BRANCH   1  15
ATOM     15  C   UNL     1      -8.464   0.107 124.530  0.00  0.00    +0.000 A 
ATOM     16  C   UNL     1      -7.701  -0.595 123.603  0.00  0.00    +0.000 A 
ATOM     17  C   UNL     1      -7.675  -2.001 123.650  0.00  0.00    +0.000 A 
ATOM     18  C   UNL     1      -8.339  -2.720 124.651  0.00  0.00    +0.000 A 
ATOM     19  C   UNL     1      -8.957  -1.993 125.670  0.00  0.00    +0.000 A 
ATOM     20  C   UNL     1      -9.088  -0.597 125.574  0.00  0.00    +0.000 A 
BRANCH  18  21
ATOM     21  N   UNL     1      -8.180  -4.106 124.747  0.00  0.00    +0.000 N 
ATOM     22  H   UNL     1      -7.243  -4.454 124.561  0.00  0.00    +0.000 HD
ATOM     23  H   UNL     1      -8.899  -4.668 124.298  0.00  0.00    +0.000 HD
ENDBRANCH  18  21
ENDBRANCH   1  15
TORSDOF 4
ENDMDL
MODEL 4
REMARK VINA RESULT:      -6.8      9.148      9.819
REMARK  Name = Sulfacytine
REMARK  5 active torsions:
REMARK  status: ('A' for Active; 'I' for Inactive)
REMARK    1  A    between atoms: C_1  and  C_2
REMARK    2  A    between atoms: C_2  and  N_3
REMARK    3  A    between atoms: N_7  and  S_8
REMARK    4  A    between atoms: S_8  and  C_11
REMARK    5  A    between atoms: C_14  and  N_15
REMARK                            x       y       z     vdW  Elec       q    Type
REMARK                         _______ _______ _______ _____ _____    ______ ____
ROOT
ATOM      1  S   UNL     1      -9.519   5.854 131.358  0.00  0.00    +0.000 S 
ATOM      2  O   UNL     1      -9.500   6.396 132.700  0.00  0.00    +0.000 OA
ATOM      3  O   UNL     1      -8.334   5.777 130.529  0.00  0.00    +0.000 OA
ENDROOT
BRANCH   1   8
ATOM      4  N   UNL     1      -7.877   1.048 132.397  0.00  0.00    +0.000 N 
ATOM      5  C   UNL     1      -9.165   0.841 131.913  0.00  0.00    +0.000 A 
ATOM      6  C   UNL     1     -10.026   1.859 131.780  0.00  0.00    +0.000 A 
ATOM      7  C   UNL     1      -9.404   3.191 131.867  0.00  0.00    +0.000 A 
ATOM      8  N   UNL     1     -10.194   4.293 131.454  0.00  0.00    +0.000 N 
ATOM      9  N   UNL     1      -8.202   3.401 132.248  0.00  0.00    +0.000 NA
ATOM     10  C   UNL     1      -7.427   2.359 132.645  0.00  0.00    +0.000 A 
ATOM     11  O   UNL     1      -6.363   2.617 133.208  0.00  0.00    +0.000 OA
ATOM     12  H   UNL     1     -11.150   4.180 131.149  0.00  0.00    +0.000 HD
BRANCH   4  14
ATOM     13  C   UNL     1      -7.808  -1.492 132.724  0.00  0.00    +0.000 C 
ATOM     14  C   UNL     1      -7.110  -0.141 132.852  0.00  0.00    +0.000 C 
ENDBRANCH   4  14
ENDBRANCH   1   8
BRANCH   1  15
ATOM     15  C   UNL     1     -10.648   6.900 130.435  0.00  0.00    +0.000 A 
ATOM     16  C   UNL     1     -10.269   7.554 129.267  0.00  0.00    +0.000 A 
ATOM     17  C   UNL     1     -11.118   8.528 128.712  0.00  0.00    +0.000 A 
ATOM     18  C   UNL     1     -12.375   8.812 129.260  0.00  0.00    +0.000 A 
ATOM     19  C   UNL     1     -12.809   8.027 130.330  0.00  0.00    +0.000 A 
ATOM     20  C   UNL     1     -11.929   7.132 130.963  0.00  0.00    +0.000 A 
BRANCH  18  21
ATOM     21  N   UNL     1     -13.249   9.687 128.606  0.00  0.00    +0.000 N 
ATOM     22  H   UNL     1     -12.958  10.661 128.584  0.00  0.00    +0.000 HD
ATOM     23  H   UNL     1     -14.234   9.581 128.831  0.00  0.00    +0.000 HD
ENDBRANCH  18  21
ENDBRANCH   1  15
TORSDOF 4
ENDMDL
MODEL 5
REMARK VINA RESULT:      -6.6      9.978     10.887
REMARK  Name = Sulfacytine
REMARK  5 active torsions:
REMARK  status: ('A' for Active; 'I' for Inactive)
REMARK    1  A    between atoms: C_1  and  C_2
REMARK    2  A    between atoms: C_2  and  N_3
REMARK    3  A    between atoms: N_7  and  S_8
REMARK    4  A    between atoms: S_8  and  C_11
REMARK    5  A    between atoms: C_14  and  N_15
REMARK                            x       y       z     vdW  Elec       q    Type
REMARK                         _______ _______ _______ _____ _____    ______ ____
ROOT
ATOM      1  S   UNL     1      -9.307   6.102 131.353  0.00  0.00    +0.000 S 
ATOM      2  O   UNL     1      -9.354   4.760 130.812  0.00  0.00    +0.000 OA
ATOM      3  O   UNL     1      -9.626   6.400 132.734  0.00  0.00    +0.000 OA
ENDROOT
BRANCH   1   8
ATOM      4  N   UNL     1      -4.457   5.294 132.995  0.00  0.00    +0.000 N 
ATOM      5  C   UNL     1      -4.343   6.457 132.240  0.00  0.00    +0.000 A 
ATOM      6  C   UNL     1      -5.329   6.853 131.425  0.00  0.00    +0.000 A 
ATOM      7  C   UNL     1      -6.611   6.161 131.648  0.00  0.00    +0.000 A 
ATOM      8  N   UNL     1      -7.755   6.723 131.027  0.00  0.00    +0.000 N 
ATOM      9  N   UNL     1      -6.752   5.129 132.388  0.00  0.00    +0.000 NA
ATOM     10  C   UNL     1      -5.669   4.578 132.993  0.00  0.00    +0.000 A 
ATOM     11  O   UNL     1      -5.804   3.470 133.513  0.00  0.00    +0.000 OA
ATOM     12  H   UNL     1      -7.694   7.535 130.430  0.00  0.00    +0.000 HD
BRANCH   4  14
ATOM     13  C   UNL     1      -2.036   4.535 132.642  0.00  0.00    +0.000 C 
ATOM     14  C   UNL     1      -3.217   4.730 133.589  0.00  0.00    +0.000 C 
ENDBRANCH   4  14
ENDBRANCH   1   8
BRANCH   1  15
ATOM     15  C   UNL     1     -10.501   7.045 130.401  0.00  0.00    +0.000 A 
ATOM     16  C   UNL     1     -10.168   7.683 129.212  0.00  0.00    +0.000 A 
ATOM     17  C   UNL     1     -11.078   8.584 128.630  0.00  0.00    +0.000 A 
ATOM     18  C   UNL     1     -12.349   8.806 129.175  0.00  0.00    +0.000 A 
ATOM     19  C   UNL     1     -12.729   8.030 130.271  0.00  0.00    +0.000 A 
ATOM     20  C   UNL     1     -11.793   7.213 130.929  0.00  0.00    +0.000 A 
BRANCH  18  21
ATOM     21  N   UNL     1     -13.278   9.603 128.497  0.00  0.00    +0.000 N 
ATOM     22  H   UNL     1     -14.237   9.533 128.825  0.00  0.00    +0.000 HD
ATOM     23  H   UNL     1     -13.213   9.595 127.483  0.00  0.00    +0.000 HD
ENDBRANCH  18  21
ENDBRANCH   1  15
TORSDOF 4
ENDMDL
MODEL 6
REMARK VINA RESULT:      -6.6      9.028     10.163
REMARK  Name = Sulfacytine
REMARK  5 active torsions:
REMARK  status: ('A' for Active; 'I' for Inactive)
REMARK    1  A    between atoms: C_1  and  C_2
REMARK    2  A    between atoms: C_2  and  N_3
REMARK    3  A    between atoms: N_7  and  S_8
REMARK    4  A    between atoms: S_8  and  C_11
REMARK    5  A    between atoms: C_14  and  N_15
REMARK                            x       y       z     vdW  Elec       q    Type
REMARK                         _______ _______ _______ _____ _____    ______ ____
ROOT
ATOM      1  S   UNL     1     -10.482   5.247 130.048  0.00  0.00    +0.000 S 
ATOM      2  O   UNL     1      -9.346   5.255 129.151  0.00  0.00    +0.000 OA
ATOM      3  O   UNL     1     -11.441   4.162 130.086  0.00  0.00    +0.000 OA
ENDROOT
BRANCH   1   8
ATOM      4  N   UNL     1      -7.473   2.660 133.383  0.00  0.00    +0.000 N 
ATOM      5  C   UNL     1      -8.001   3.682 134.165  0.00  0.00    +0.000 A 
ATOM      6  C   UNL     1      -8.625   4.728 133.608  0.00  0.00    +0.000 A 
ATOM      7  C   UNL     1      -8.978   4.536 132.191  0.00  0.00    +0.000 A 
ATOM      8  N   UNL     1      -9.881   5.471 131.625  0.00  0.00    +0.000 N 
ATOM      9  N   UNL     1      -8.556   3.569 131.469  0.00  0.00    +0.000 NA
ATOM     10  C   UNL     1      -7.692   2.662 131.992  0.00  0.00    +0.000 A 
ATOM     11  O   UNL     1      -7.140   1.882 131.216  0.00  0.00    +0.000 OA
ATOM     12  H   UNL     1     -10.239   6.254 132.153  0.00  0.00    +0.000 HD
BRANCH   4  14
ATOM     13  C   UNL     1      -5.227   2.362 134.578  0.00  0.00    +0.000 C 
ATOM     14  C   UNL     1      -6.500   1.734 134.019  0.00  0.00    +0.000 C 
ENDBRANCH   4  14
ENDBRANCH   1   8
BRANCH   1  15
ATOM     15  C   UNL     1     -11.453   6.690 129.605  0.00  0.00    +0.000 A 
ATOM     16  C   UNL     1     -11.404   7.259 128.337  0.00  0.00    +0.000 A 
ATOM     17  C   UNL     1     -12.010   8.509 128.114  0.00  0.00    +0.000 A 
ATOM     18  C   UNL     1     -12.729   9.171 129.117  0.00  0.00    +0.000 A 
ATOM     19  C   UNL     1     -12.910   8.506 130.331  0.00  0.00    +0.000 A 
ATOM     20  C   UNL     1     -12.218   7.314 130.604  0.00  0.00    +0.000 A 
BRANCH  18  21
ATOM     21  N   UNL     1     -13.431  10.344 128.823  0.00  0.00    +0.000 N 
ATOM     22  H   UNL     1     -12.904  11.059 128.329  0.00  0.00    +0.000 HD
ATOM     23  H   UNL     1     -13.990  10.729 129.580  0.00  0.00    +0.000 HD
ENDBRANCH  18  21
ENDBRANCH   1  15
TORSDOF 4
ENDMDL
MODEL 7
REMARK VINA RESULT:      -6.6      9.927     11.073
REMARK  Name = Sulfacytine
REMARK  5 active torsions:
REMARK  status: ('A' for Active; 'I' for Inactive)
REMARK    1  A    between atoms: C_1  and  C_2
REMARK    2  A    between atoms: C_2  and  N_3
REMARK    3  A    between atoms: N_7  and  S_8
REMARK    4  A    between atoms: S_8  and  C_11
REMARK    5  A    between atoms: C_14  and  N_15
REMARK                            x       y       z     vdW  Elec       q    Type
REMARK                         _______ _______ _______ _____ _____    ______ ____
ROOT
ATOM      1  S   UNL     1      -5.230   6.514 130.673  0.00  0.00    +0.000 S 
ATOM      2  O   UNL     1      -5.088   5.326 129.859  0.00  0.00    +0.000 OA
ATOM      3  O   UNL     1      -5.494   7.822 130.109  0.00  0.00    +0.000 OA
ENDROOT
BRANCH   1   8
ATOM      4  N   UNL     1     -10.405   6.259 130.822  0.00  0.00    +0.000 N 
ATOM      5  C   UNL     1     -10.050   6.215 132.167  0.00  0.00    +0.000 A 
ATOM      6  C   UNL     1      -8.783   5.992 132.542  0.00  0.00    +0.000 A 
ATOM      7  C   UNL     1      -7.800   6.129 131.454  0.00  0.00    +0.000 A 
ATOM      8  N   UNL     1      -6.435   6.191 131.832  0.00  0.00    +0.000 N 
ATOM      9  N   UNL     1      -8.104   6.236 130.217  0.00  0.00    +0.000 NA
ATOM     10  C   UNL     1      -9.406   6.181 129.834  0.00  0.00    +0.000 A 
ATOM     11  O   UNL     1      -9.645   6.066 128.633  0.00  0.00    +0.000 OA
ATOM     12  H   UNL     1      -6.143   6.108 132.796  0.00  0.00    +0.000 HD
BRANCH   4  14
ATOM     13  C   UNL     1     -12.760   7.247 131.026  0.00  0.00    +0.000 C 
ATOM     14  C   UNL     1     -11.849   6.150 130.484  0.00  0.00    +0.000 C 
ENDBRANCH   4  14
ENDBRANCH   1   8
BRANCH   1  15
ATOM     15  C   UNL     1      -3.662   6.700 131.527  0.00  0.00    +0.000 A 
ATOM     16  C   UNL     1      -3.292   7.886 132.152  0.00  0.00    +0.000 A 
ATOM     17  C   UNL     1      -1.971   8.044 132.609  0.00  0.00    +0.000 A 
ATOM     18  C   UNL     1      -1.028   7.013 132.519  0.00  0.00    +0.000 A 
ATOM     19  C   UNL     1      -1.465   5.775 132.044  0.00  0.00    +0.000 A 
ATOM     20  C   UNL     1      -2.745   5.636 131.480  0.00  0.00    +0.000 A 
BRANCH  18  21
ATOM     21  N   UNL     1       0.233   7.157 133.105  0.00  0.00    +0.000 N 
ATOM     22  H   UNL     1       0.714   8.029 132.901  0.00  0.00    +0.000 HD
ATOM     23  H   UNL     1       0.849   6.351 133.039  0.00  0.00    +0.000 HD
ENDBRANCH  18  21
ENDBRANCH   1  15
TORSDOF 4
ENDMDL
MODEL 8
REMARK VINA RESULT:      -6.5      9.416     11.765
REMARK  Name = Sulfacytine
REMARK  5 active torsions:
REMARK  status: ('A' for Active; 'I' for Inactive)
REMARK    1  A    between atoms: C_1  and  C_2
REMARK    2  A    between atoms: C_2  and  N_3
REMARK    3  A    between atoms: N_7  and  S_8
REMARK    4  A    between atoms: S_8  and  C_11
REMARK    5  A    between atoms: C_14  and  N_15
REMARK                            x       y       z     vdW  Elec       q    Type
REMARK                         _______ _______ _______ _____ _____    ______ ____
ROOT
ATOM      1  S   UNL     1      -9.916   4.266 130.052  0.00  0.00    +0.000 S 
ATOM      2  O   UNL     1     -11.329   4.028 130.257  0.00  0.00    +0.000 OA
ATOM      3  O   UNL     1      -9.043   3.296 129.425  0.00  0.00    +0.000 OA
ENDROOT
BRANCH   1   8
ATOM      4  N   UNL     1     -12.483   8.758 129.726  0.00  0.00    +0.000 N 
ATOM      5  C   UNL     1     -11.583   8.833 128.667  0.00  0.00    +0.000 A 
ATOM      6  C   UNL     1     -10.556   7.979 128.569  0.00  0.00    +0.000 A 
ATOM      7  C   UNL     1     -10.661   6.805 129.453  0.00  0.00    +0.000 A 
ATOM      8  N   UNL     1      -9.770   5.733 129.199  0.00  0.00    +0.000 N 
ATOM      9  N   UNL     1     -11.521   6.686 130.392  0.00  0.00    +0.000 NA
ATOM     10  C   UNL     1     -12.385   7.701 130.650  0.00  0.00    +0.000 A 
ATOM     11  O   UNL     1     -13.043   7.644 131.689  0.00  0.00    +0.000 OA
ATOM     12  H   UNL     1      -9.071   5.780 128.472  0.00  0.00    +0.000 HD
BRANCH   4  14
ATOM     13  C   UNL     1     -13.883  10.660 128.733  0.00  0.00    +0.000 C 
ATOM     14  C   UNL     1     -13.365   9.930 129.969  0.00  0.00    +0.000 C 
ENDBRANCH   4  14
ENDBRANCH   1   8
BRANCH   1  15
ATOM     15  C   UNL     1      -9.226   4.499 131.693  0.00  0.00    +0.000 A 
ATOM     16  C   UNL     1      -8.567   5.666 132.064  0.00  0.00    +0.000 A 
ATOM     17  C   UNL     1      -7.859   5.705 133.279  0.00  0.00    +0.000 A 
ATOM     18  C   UNL     1      -7.856   4.622 134.168  0.00  0.00    +0.000 A 
ATOM     19  C   UNL     1      -8.661   3.526 133.857  0.00  0.00    +0.000 A 
ATOM     20  C   UNL     1      -9.280   3.426 132.599  0.00  0.00    +0.000 A 
BRANCH  18  21
ATOM     21  N   UNL     1      -7.255   4.744 135.425  0.00  0.00    +0.000 N 
ATOM     22  H   UNL     1      -6.270   4.496 135.467  0.00  0.00    +0.000 HD
ATOM     23  H   UNL     1      -7.783   4.369 136.208  0.00  0.00    +0.000 HD
ENDBRANCH  18  21
ENDBRANCH   1  15
TORSDOF 4
ENDMDL
MODEL 9
REMARK VINA RESULT:      -6.5      8.804     10.094
REMARK  Name = Sulfacytine
REMARK  5 active torsions:
REMARK  status: ('A' for Active; 'I' for Inactive)
REMARK    1  A    between atoms: C_1  and  C_2
REMARK    2  A    between atoms: C_2  and  N_3
REMARK    3  A    between atoms: N_7  and  S_8
REMARK    4  A    between atoms: S_8  and  C_11
REMARK    5  A    between atoms: C_14  and  N_15
REMARK                            x       y       z     vdW  Elec       q    Type
REMARK                         _______ _______ _______ _____ _____    ______ ____
ROOT
ATOM      1  S   UNL     1      -9.539   5.576 129.839  0.00  0.00    +0.000 S 
ATOM      2  O   UNL     1      -8.877   5.249 128.594  0.00  0.00    +0.000 OA
ATOM      3  O   UNL     1     -10.259   4.594 130.623  0.00  0.00    +0.000 OA
ENDROOT
BRANCH   1   8
ATOM      4  N   UNL     1      -4.408   5.346 130.543  0.00  0.00    +0.000 N 
ATOM      5  C   UNL     1      -4.842   6.086 131.638  0.00  0.00    +0.000 A 
ATOM      6  C   UNL     1      -6.082   6.592 131.685  0.00  0.00    +0.000 A 
ATOM      7  C   UNL     1      -6.999   6.035 130.676  0.00  0.00    +0.000 A 
ATOM      8  N   UNL     1      -8.380   6.307 130.850  0.00  0.00    +0.000 N 
ATOM      9  N   UNL     1      -6.632   5.300 129.697  0.00  0.00    +0.000 NA
ATOM     10  C   UNL     1      -5.315   5.025 129.515  0.00  0.00    +0.000 A 
ATOM     11  O   UNL     1      -4.979   4.506 128.450  0.00  0.00    +0.000 OA
ATOM     12  H   UNL     1      -8.719   6.885 131.605  0.00  0.00    +0.000 HD
BRANCH   4  14
ATOM     13  C   UNL     1      -2.145   6.269 129.774  0.00  0.00    +0.000 C 
ATOM     14  C   UNL     1      -2.946   5.126 130.392  0.00  0.00    +0.000 C 
ENDBRANCH   4  14
ENDBRANCH   1   8
BRANCH   1  15
ATOM     15  C   UNL     1     -10.773   6.808 129.415  0.00  0.00    +0.000 A 
ATOM     16  C   UNL     1     -10.808   7.430 128.172  0.00  0.00    +0.000 A 
ATOM     17  C   UNL     1     -11.652   8.538 127.974  0.00  0.00    +0.000 A 
ATOM     18  C   UNL     1     -12.519   8.994 128.975  0.00  0.00    +0.000 A 
ATOM     19  C   UNL     1     -12.594   8.253 130.155  0.00  0.00    +0.000 A 
ATOM     20  C   UNL     1     -11.678   7.217 130.409  0.00  0.00    +0.000 A 
BRANCH  18  21
ATOM     21  N   UNL     1     -13.440  10.010 128.700  0.00  0.00    +0.000 N 
ATOM     22  H   UNL     1     -13.062  10.829 128.232  0.00  0.00    +0.000 HD
ATOM     23  H   UNL     1     -14.072  10.254 129.458  0.00  0.00    +0.000 HD
ENDBRANCH  18  21
ENDBRANCH   1  15
TORSDOF 4
ENDMDL
