MODEL 1
REMARK VINA RESULT:      -6.6      0.000      0.000
REMARK  Name = Sulfadoxine
REMARK  8 active torsions:
REMARK  status: ('A' for Active; 'I' for Inactive)
REMARK    1  A    between atoms: C_1  and  O_2
REMARK    2  A    between atoms: O_2  and  C_3
REMARK    3  A    between atoms: C_7  and  N_8
REMARK    4  A    between atoms: N_8  and  S_9
REMARK    5  A    between atoms: S_9  and  C_12
REMARK    6  A    between atoms: C_15  and  N_16
REMARK    7  A    between atoms: C_19  and  O_20
REMARK    8  A    between atoms: O_20  and  C_21
REMARK                            x       y       z     vdW  Elec       q    Type
REMARK                         _______ _______ _______ _____ _____    ______ ____
ROOT
ATOM      1  N   UNL     1      -8.899   2.478 123.643  0.00  0.00    +0.000 N 
ATOM      2  H   UNL     1      -9.023   3.111 124.425  0.00  0.00    +0.000 HD
ENDROOT
BRANCH   1   7
ATOM      3  C   UNL     1      -6.545   3.771 121.024  0.00  0.00    +0.000 A 
ATOM      4  N   UNL     1      -7.454   4.070 120.071  0.00  0.00    +0.000 NA
ATOM      5  C   UNL     1      -8.750   3.831 120.355  0.00  0.00    +0.000 A 
ATOM      6  N   UNL     1      -9.245   3.296 121.489  0.00  0.00    +0.000 NA
ATOM      7  C   UNL     1      -8.320   3.017 122.424  0.00  0.00    +0.000 A 
ATOM      8  C   UNL     1      -6.948   3.269 122.248  0.00  0.00    +0.000 A 
BRANCH   3  10
ATOM      9  C   UNL     1      -5.150   5.372 119.878  0.00  0.00    +0.000 C 
ATOM     10  O   UNL     1      -5.286   4.225 120.711  0.00  0.00    +0.000 OA
ENDBRANCH   3  10
BRANCH   8  11
ATOM     11  O   UNL     1      -6.249   3.085 123.369  0.00  0.00    +0.000 OA
ATOM     12  C   UNL     1      -5.647   4.040 124.162  0.00  0.00    +0.000 C 
ENDBRANCH   8  11
ENDBRANCH   1   7
BRANCH   1  13
ATOM     13  S   UNL     1      -9.421   0.874 123.716  0.00  0.00    +0.000 S 
ATOM     14  O   UNL     1     -10.072   0.651 124.985  0.00  0.00    +0.000 OA
ATOM     15  O   UNL     1     -10.070   0.558 122.444  0.00  0.00    +0.000 OA
BRANCH  13  16
ATOM     16  C   UNL     1      -8.022  -0.180 123.726  0.00  0.00    +0.000 A 
ATOM     17  C   UNL     1      -7.995  -1.258 122.832  0.00  0.00    +0.000 A 
ATOM     18  C   UNL     1      -6.951  -2.166 122.885  0.00  0.00    +0.000 A 
ATOM     19  C   UNL     1      -5.939  -2.009 123.831  0.00  0.00    +0.000 A 
ATOM     20  C   UNL     1      -6.021  -0.966 124.764  0.00  0.00    +0.000 A 
ATOM     21  C   UNL     1      -7.074  -0.055 124.732  0.00  0.00    +0.000 A 
BRANCH  19  22
ATOM     22  N   UNL     1      -4.882  -2.896 123.862  0.00  0.00    +0.000 N 
ATOM     23  H   UNL     1      -4.678  -3.473 123.058  0.00  0.00    +0.000 HD
ATOM     24  H   UNL     1      -4.261  -2.926 124.657  0.00  0.00    +0.000 HD
ENDBRANCH  19  22
ENDBRANCH  13  16
ENDBRANCH   1  13
TORSDOF 6
ENDMDL
MODEL 2
REMARK VINA RESULT:      -6.6      9.305     11.699
REMARK  Name = Sulfadoxine
REMARK  8 active torsions:
REMARK  status: ('A' for Active; 'I' for Inactive)
REMARK    1  A    between atoms: C_1  and  O_2
REMARK    2  A    between atoms: O_2  and  C_3
REMARK    3  A    between atoms: C_7  and  N_8
REMARK    4  A    between atoms: N_8  and  S_9
REMARK    5  A    between atoms: S_9  and  C_12
REMARK    6  A    between atoms: C_15  and  N_16
REMARK    7  A    between atoms: C_19  and  O_20
REMARK    8  A    between atoms: O_20  and  C_21
REMARK                            x       y       z     vdW  Elec       q    Type
REMARK                         _______ _______ _______ _____ _____    ______ ____
ROOT
ATOM      1  N   UNL     1     -10.409   4.998 132.180  0.00  0.00    +0.000 N 
ATOM      2  H   UNL     1     -11.194   5.259 132.767  0.00  0.00    +0.000 HD
ENDROOT
BRANCH   1   7
ATOM      3  C   UNL     1      -7.529   3.151 133.719  0.00  0.00    +0.000 A 
ATOM      4  N   UNL     1      -6.804   4.216 134.123  0.00  0.00    +0.000 NA
ATOM      5  C   UNL     1      -7.307   5.441 133.866  0.00  0.00    +0.000 A 
ATOM      6  N   UNL     1      -8.456   5.725 133.221  0.00  0.00    +0.000 NA
ATOM      7  C   UNL     1      -9.162   4.648 132.838  0.00  0.00    +0.000 A 
ATOM      8  C   UNL     1      -8.751   3.327 133.097  0.00  0.00    +0.000 A 
BRANCH   3  10
ATOM      9  C   UNL     1      -6.163   1.195 133.362  0.00  0.00    +0.000 C 
ATOM     10  O   UNL     1      -7.027   1.963 134.193  0.00  0.00    +0.000 OA
ENDBRANCH   3  10
BRANCH   8  11
ATOM     11  O   UNL     1      -9.692   2.433 132.791  0.00  0.00    +0.000 OA
ATOM     12  C   UNL     1      -9.624   1.408 131.870  0.00  0.00    +0.000 C 
ENDBRANCH   8  11
ENDBRANCH   1   7
BRANCH   1  13
ATOM     13  S   UNL     1     -10.513   5.047 130.496  0.00  0.00    +0.000 S 
ATOM     14  O   UNL     1      -9.183   5.173 129.949  0.00  0.00    +0.000 OA
ATOM     15  O   UNL     1     -11.428   3.986 130.074  0.00  0.00    +0.000 OA
BRANCH  13  16
ATOM     16  C   UNL     1     -11.347   6.511 130.019  0.00  0.00    +0.000 A 
ATOM     17  C   UNL     1     -10.916   7.175 128.864  0.00  0.00    +0.000 A 
ATOM     18  C   UNL     1     -11.489   8.387 128.516  0.00  0.00    +0.000 A 
ATOM     19  C   UNL     1     -12.484   8.943 129.319  0.00  0.00    +0.000 A 
ATOM     20  C   UNL     1     -12.851   8.298 130.509  0.00  0.00    +0.000 A 
ATOM     21  C   UNL     1     -12.272   7.087 130.879  0.00  0.00    +0.000 A 
BRANCH  19  22
ATOM     22  N   UNL     1     -13.077  10.134 128.956  0.00  0.00    +0.000 N 
ATOM     23  H   UNL     1     -13.798  10.148 128.247  0.00  0.00    +0.000 HD
ATOM     24  H   UNL     1     -12.852  10.989 129.441  0.00  0.00    +0.000 HD
ENDBRANCH  19  22
ENDBRANCH  13  16
ENDBRANCH   1  13
TORSDOF 6
ENDMDL
MODEL 3
REMARK VINA RESULT:      -6.6      2.296      6.393
REMARK  Name = Sulfadoxine
REMARK  8 active torsions:
REMARK  status: ('A' for Active; 'I' for Inactive)
REMARK    1  A    between atoms: C_1  and  O_2
REMARK    2  A    between atoms: O_2  and  C_3
REMARK    3  A    between atoms: C_7  and  N_8
REMARK    4  A    between atoms: N_8  and  S_9
REMARK    5  A    between atoms: S_9  and  C_12
REMARK    6  A    between atoms: C_15  and  N_16
REMARK    7  A    between atoms: C_19  and  O_20
REMARK    8  A    between atoms: O_20  and  C_21
REMARK                            x       y       z     vdW  Elec       q    Type
REMARK                         _______ _______ _______ _____ _____    ______ ____
ROOT
ATOM      1  N   UNL     1      -7.684   0.931 123.922  0.00  0.00    +0.000 N 
ATOM      2  H   UNL     1      -6.713   1.116 124.148  0.00  0.00    +0.000 HD
ENDROOT
BRANCH   1   7
ATOM      3  C   UNL     1      -9.204  -2.290 125.101  0.00  0.00    +0.000 A 
ATOM      4  N   UNL     1      -8.907  -3.053 124.028  0.00  0.00    +0.000 NA
ATOM      5  C   UNL     1      -8.239  -2.465 123.015  0.00  0.00    +0.000 A 
ATOM      6  N   UNL     1      -7.852  -1.176 122.942  0.00  0.00    +0.000 NA
ATOM      7  C   UNL     1      -8.152  -0.440 124.026  0.00  0.00    +0.000 A 
ATOM      8  C   UNL     1      -8.805  -0.967 125.155  0.00  0.00    +0.000 A 
BRANCH   3  10
ATOM      9  C   UNL     1      -8.811  -3.685 127.030  0.00  0.00    +0.000 C 
ATOM     10  O   UNL     1      -9.711  -3.025 126.145  0.00  0.00    +0.000 OA
ENDBRANCH   3  10
BRANCH   8  11
ATOM     11  O   UNL     1      -8.832  -0.106 126.174  0.00  0.00    +0.000 OA
ATOM     12  C   UNL     1      -7.957  -0.020 127.237  0.00  0.00    +0.000 C 
ENDBRANCH   8  11
ENDBRANCH   1   7
BRANCH   1  13
ATOM     13  S   UNL     1      -8.707   2.152 123.361  0.00  0.00    +0.000 S 
ATOM     14  O   UNL     1      -9.830   1.546 122.684  0.00  0.00    +0.000 OA
ATOM     15  O   UNL     1      -8.883   3.119 124.444  0.00  0.00    +0.000 OA
BRANCH  13  16
ATOM     16  C   UNL     1      -7.871   3.075 122.129  0.00  0.00    +0.000 A 
ATOM     17  C   UNL     1      -8.598   3.501 121.011  0.00  0.00    +0.000 A 
ATOM     18  C   UNL     1      -7.944   4.146 119.974  0.00  0.00    +0.000 A 
ATOM     19  C   UNL     1      -6.568   4.358 120.044  0.00  0.00    +0.000 A 
ATOM     20  C   UNL     1      -5.847   3.859 121.138  0.00  0.00    +0.000 A 
ATOM     21  C   UNL     1      -6.489   3.196 122.180  0.00  0.00    +0.000 A 
BRANCH  19  22
ATOM     22  N   UNL     1      -5.921   5.028 119.026  0.00  0.00    +0.000 N 
ATOM     23  H   UNL     1      -5.658   4.540 118.181  0.00  0.00    +0.000 HD
ATOM     24  H   UNL     1      -5.769   6.024 119.082  0.00  0.00    +0.000 HD
ENDBRANCH  19  22
ENDBRANCH  13  16
ENDBRANCH   1  13
TORSDOF 6
ENDMDL
MODEL 4
REMARK VINA RESULT:      -6.4      8.440     11.179
REMARK  Name = Sulfadoxine
REMARK  8 active torsions:
REMARK  status: ('A' for Active; 'I' for Inactive)
REMARK    1  A    between atoms: C_1  and  O_2
REMARK    2  A    between atoms: O_2  and  C_3
REMARK    3  A    between atoms: C_7  and  N_8
REMARK    4  A    between atoms: N_8  and  S_9
REMARK    5  A    between atoms: S_9  and  C_12
REMARK    6  A    between atoms: C_15  and  N_16
REMARK    7  A    between atoms: C_19  and  O_20
REMARK    8  A    between atoms: O_20  and  C_21
REMARK                            x       y       z     vdW  Elec       q    Type
REMARK                         _______ _______ _______ _____ _____    ______ ____
ROOT
ATOM      1  N   UNL     1     -10.543   4.502 131.113  0.00  0.00    +0.000 N 
ATOM      2  H   UNL     1     -11.546   4.424 131.238  0.00  0.00    +0.000 HD
ENDROOT
BRANCH   1   7
ATOM      3  C   UNL     1      -8.636   1.337 131.759  0.00  0.00    +0.000 A 
ATOM      4  N   UNL     1      -8.335   1.022 130.481  0.00  0.00    +0.000 NA
ATOM      5  C   UNL     1      -8.771   1.859 129.518  0.00  0.00    +0.000 A 
ATOM      6  N   UNL     1      -9.505   2.977 129.689  0.00  0.00    +0.000 NA
ATOM      7  C   UNL     1      -9.783   3.272 130.971  0.00  0.00    +0.000 A 
ATOM      8  C   UNL     1      -9.337   2.491 132.053  0.00  0.00    +0.000 A 
BRANCH   3  10
ATOM      9  C   UNL     1      -7.977  -0.878 132.454  0.00  0.00    +0.000 C 
ATOM     10  O   UNL     1      -7.989   0.530 132.665  0.00  0.00    +0.000 OA
ENDBRANCH   3  10
BRANCH   8  11
ATOM     11  O   UNL     1      -9.574   3.072 133.230  0.00  0.00    +0.000 OA
ATOM     12  C   UNL     1      -8.662   3.633 134.100  0.00  0.00    +0.000 C 
ENDBRANCH   8  11
ENDBRANCH   1   7
BRANCH   1  13
ATOM     13  S   UNL     1      -9.763   5.999 131.152  0.00  0.00    +0.000 S 
ATOM     14  O   UNL     1      -9.639   6.426 132.525  0.00  0.00    +0.000 OA
ATOM     15  O   UNL     1      -8.610   5.924 130.255  0.00  0.00    +0.000 OA
BRANCH  13  16
ATOM     16  C   UNL     1     -10.789   7.196 130.389  0.00  0.00    +0.000 A 
ATOM     17  C   UNL     1     -12.072   7.400 130.910  0.00  0.00    +0.000 A 
ATOM     18  C   UNL     1     -12.942   8.266 130.269  0.00  0.00    +0.000 A 
ATOM     19  C   UNL     1     -12.540   8.923 129.107  0.00  0.00    +0.000 A 
ATOM     20  C   UNL     1     -11.278   8.650 128.561  0.00  0.00    +0.000 A 
ATOM     21  C   UNL     1     -10.400   7.770 129.187  0.00  0.00    +0.000 A 
BRANCH  19  22
ATOM     22  N   UNL     1     -13.395   9.811 128.486  0.00  0.00    +0.000 N 
ATOM     23  H   UNL     1     -14.384   9.795 128.694  0.00  0.00    +0.000 HD
ATOM     24  H   UNL     1     -13.035  10.529 127.876  0.00  0.00    +0.000 HD
ENDBRANCH  19  22
ENDBRANCH  13  16
ENDBRANCH   1  13
TORSDOF 6
ENDMDL
MODEL 5
REMARK VINA RESULT:      -6.3      9.421     11.274
REMARK  Name = Sulfadoxine
REMARK  8 active torsions:
REMARK  status: ('A' for Active; 'I' for Inactive)
REMARK    1  A    between atoms: C_1  and  O_2
REMARK    2  A    between atoms: O_2  and  C_3
REMARK    3  A    between atoms: C_7  and  N_8
REMARK    4  A    between atoms: N_8  and  S_9
REMARK    5  A    between atoms: S_9  and  C_12
REMARK    6  A    between atoms: C_15  and  N_16
REMARK    7  A    between atoms: C_19  and  O_20
REMARK    8  A    between atoms: O_20  and  C_21
REMARK                            x       y       z     vdW  Elec       q    Type
REMARK                         _______ _______ _______ _____ _____    ______ ____
ROOT
ATOM      1  N   UNL     1     -10.262   5.027 131.934  0.00  0.00    +0.000 N 
ATOM      2  H   UNL     1     -10.775   5.607 132.588  0.00  0.00    +0.000 HD
ENDROOT
BRANCH   1   7
ATOM      3  C   UNL     1      -6.904   3.999 133.253  0.00  0.00    +0.000 A 
ATOM      4  N   UNL     1      -7.128   2.670 133.352  0.00  0.00    +0.000 NA
ATOM      5  C   UNL     1      -8.343   2.219 132.982  0.00  0.00    +0.000 A 
ATOM      6  N   UNL     1      -9.382   2.957 132.543  0.00  0.00    +0.000 NA
ATOM      7  C   UNL     1      -9.130   4.273 132.446  0.00  0.00    +0.000 A 
ATOM      8  C   UNL     1      -7.883   4.842 132.762  0.00  0.00    +0.000 A 
BRANCH   3  10
ATOM      9  C   UNL     1      -4.628   4.059 132.454  0.00  0.00    +0.000 C 
ATOM     10  O   UNL     1      -5.587   4.327 133.472  0.00  0.00    +0.000 OA
ENDBRANCH   3  10
BRANCH   8  11
ATOM     11  O   UNL     1      -7.808   6.129 132.417  0.00  0.00    +0.000 OA
ATOM     12  C   UNL     1      -7.093   6.690 131.379  0.00  0.00    +0.000 C 
ENDBRANCH   8  11
ENDBRANCH   1   7
BRANCH   1  13
ATOM     13  S   UNL     1     -10.647   4.996 130.291  0.00  0.00    +0.000 S 
ATOM     14  O   UNL     1      -9.424   4.991 129.524  0.00  0.00    +0.000 OA
ATOM     15  O   UNL     1     -11.690   3.989 130.096  0.00  0.00    +0.000 OA
BRANCH  13  16
ATOM     16  C   UNL     1     -11.450   6.494 129.866  0.00  0.00    +0.000 A 
ATOM     17  C   UNL     1     -11.031   7.168 128.713  0.00  0.00    +0.000 A 
ATOM     18  C   UNL     1     -11.577   8.403 128.405  0.00  0.00    +0.000 A 
ATOM     19  C   UNL     1     -12.531   8.972 129.247  0.00  0.00    +0.000 A 
ATOM     20  C   UNL     1     -12.884   8.315 130.434  0.00  0.00    +0.000 A 
ATOM     21  C   UNL     1     -12.332   7.080 130.763  0.00  0.00    +0.000 A 
BRANCH  19  22
ATOM     22  N   UNL     1     -13.098  10.188 128.923  0.00  0.00    +0.000 N 
ATOM     23  H   UNL     1     -14.103  10.284 128.875  0.00  0.00    +0.000 HD
ATOM     24  H   UNL     1     -12.523  11.007 128.802  0.00  0.00    +0.000 HD
ENDBRANCH  19  22
ENDBRANCH  13  16
ENDBRANCH   1  13
TORSDOF 6
ENDMDL
MODEL 6
REMARK VINA RESULT:      -6.2      2.440      6.489
REMARK  Name = Sulfadoxine
REMARK  8 active torsions:
REMARK  status: ('A' for Active; 'I' for Inactive)
REMARK    1  A    between atoms: C_1  and  O_2
REMARK    2  A    between atoms: O_2  and  C_3
REMARK    3  A    between atoms: C_7  and  N_8
REMARK    4  A    between atoms: N_8  and  S_9
REMARK    5  A    between atoms: S_9  and  C_12
REMARK    6  A    between atoms: C_15  and  N_16
REMARK    7  A    between atoms: C_19  and  O_20
REMARK    8  A    between atoms: O_20  and  C_21
REMARK                            x       y       z     vdW  Elec       q    Type
REMARK                         _______ _______ _______ _____ _____    ______ ____
ROOT
ATOM      1  N   UNL     1      -6.951   1.534 123.959  0.00  0.00    +0.000 N 
ATOM      2  H   UNL     1      -6.007   1.475 123.593  0.00  0.00    +0.000 HD
ENDROOT
BRANCH   1   7
ATOM      3  C   UNL     1      -7.751  -1.427 126.119  0.00  0.00    +0.000 A 
ATOM      4  N   UNL     1      -8.002  -0.769 127.271  0.00  0.00    +0.000 NA
ATOM      5  C   UNL     1      -7.894   0.575 127.253  0.00  0.00    +0.000 A 
ATOM      6  N   UNL     1      -7.535   1.344 126.206  0.00  0.00    +0.000 NA
ATOM      7  C   UNL     1      -7.299   0.665 125.070  0.00  0.00    +0.000 A 
ATOM      8  C   UNL     1      -7.427  -0.732 124.969  0.00  0.00    +0.000 A 
BRANCH   3  10
ATOM      9  C   UNL     1      -9.433  -3.156 126.071  0.00  0.00    +0.000 C 
ATOM     10  O   UNL     1      -8.071  -2.761 126.195  0.00  0.00    +0.000 OA
ENDBRANCH   3  10
BRANCH   8  11
ATOM     11  O   UNL     1      -7.324  -1.162 123.710  0.00  0.00    +0.000 OA
ATOM     12  C   UNL     1      -8.324  -1.644 122.892  0.00  0.00    +0.000 C 
ENDBRANCH   8  11
ENDBRANCH   1   7
BRANCH   1  13
ATOM     13  S   UNL     1      -8.108   2.540 123.254  0.00  0.00    +0.000 S 
ATOM     14  O   UNL     1      -9.110   1.722 122.612  0.00  0.00    +0.000 OA
ATOM     15  O   UNL     1      -8.458   3.571 124.231  0.00  0.00    +0.000 OA
BRANCH  13  16
ATOM     16  C   UNL     1      -7.360   3.450 121.958  0.00  0.00    +0.000 A 
ATOM     17  C   UNL     1      -8.094   3.664 120.786  0.00  0.00    +0.000 A 
ATOM     18  C   UNL     1      -7.495   4.293 119.707  0.00  0.00    +0.000 A 
ATOM     19  C   UNL     1      -6.164   4.701 119.790  0.00  0.00    +0.000 A 
ATOM     20  C   UNL     1      -5.425   4.414 120.946  0.00  0.00    +0.000 A 
ATOM     21  C   UNL     1      -6.011   3.768 122.032  0.00  0.00    +0.000 A 
BRANCH  19  22
ATOM     22  N   UNL     1      -5.577   5.356 118.727  0.00  0.00    +0.000 N 
ATOM     23  H   UNL     1      -4.604   5.197 118.506  0.00  0.00    +0.000 HD
ATOM     24  H   UNL     1      -6.127   5.943 118.118  0.00  0.00    +0.000 HD
ENDBRANCH  19  22
ENDBRANCH  13  16
ENDBRANCH   1  13
TORSDOF 6
ENDMDL
MODEL 7
REMARK VINA RESULT:      -6.1      8.939     10.934
REMARK  Name = Sulfadoxine
REMARK  8 active torsions:
REMARK  status: ('A' for Active; 'I' for Inactive)
REMARK    1  A    between atoms: C_1  and  O_2
REMARK    2  A    between atoms: O_2  and  C_3
REMARK    3  A    between atoms: C_7  and  N_8
REMARK    4  A    between atoms: N_8  and  S_9
REMARK    5  A    between atoms: S_9  and  C_12
REMARK    6  A    between atoms: C_15  and  N_16
REMARK    7  A    between atoms: C_19  and  O_20
REMARK    8  A    between atoms: O_20  and  C_21
REMARK                            x       y       z     vdW  Elec       q    Type
REMARK                         _______ _______ _______ _____ _____    ______ ____
ROOT
ATOM      1  N   UNL     1      -8.977   5.052 129.757  0.00  0.00    +0.000 N 
ATOM      2  H   UNL     1      -8.905   4.701 128.808  0.00  0.00    +0.000 HD
ENDROOT
BRANCH   1   7
ATOM      3  C   UNL     1      -5.792   4.820 131.726  0.00  0.00    +0.000 A 
ATOM      4  N   UNL     1      -5.486   6.134 131.762  0.00  0.00    +0.000 NA
ATOM      5  C   UNL     1      -6.334   6.985 131.149  0.00  0.00    +0.000 A 
ATOM      6  N   UNL     1      -7.456   6.664 130.475  0.00  0.00    +0.000 NA
ATOM      7  C   UNL     1      -7.742   5.351 130.462  0.00  0.00    +0.000 A 
ATOM      8  C   UNL     1      -6.950   4.385 131.108  0.00  0.00    +0.000 A 
BRANCH   3  10
ATOM      9  C   UNL     1      -5.114   4.165 133.947  0.00  0.00    +0.000 C 
ATOM     10  O   UNL     1      -4.974   4.067 132.533  0.00  0.00    +0.000 OA
ENDBRANCH   3  10
BRANCH   8  11
ATOM     11  O   UNL     1      -7.524   3.180 131.117  0.00  0.00    +0.000 OA
ATOM     12  C   UNL     1      -8.103   2.523 132.182  0.00  0.00    +0.000 C 
ENDBRANCH   8  11
ENDBRANCH   1   7
BRANCH   1  13
ATOM     13  S   UNL     1     -10.471   5.207 130.529  0.00  0.00    +0.000 S 
ATOM     14  O   UNL     1     -11.367   4.195 130.020  0.00  0.00    +0.000 OA
ATOM     15  O   UNL     1     -10.219   5.371 131.960  0.00  0.00    +0.000 OA
BRANCH  13  16
ATOM     16  C   UNL     1     -11.194   6.734 130.070  0.00  0.00    +0.000 A 
ATOM     17  C   UNL     1     -12.293   7.196 130.804  0.00  0.00    +0.000 A 
ATOM     18  C   UNL     1     -12.948   8.350 130.404  0.00  0.00    +0.000 A 
ATOM     19  C   UNL     1     -12.518   9.037 129.271  0.00  0.00    +0.000 A 
ATOM     20  C   UNL     1     -11.462   8.519 128.508  0.00  0.00    +0.000 A 
ATOM     21  C   UNL     1     -10.804   7.353 128.890  0.00  0.00    +0.000 A 
BRANCH  19  22
ATOM     22  N   UNL     1     -13.150  10.204 128.891  0.00  0.00    +0.000 N 
ATOM     23  H   UNL     1     -12.857  11.090 129.277  0.00  0.00    +0.000 HD
ATOM     24  H   UNL     1     -13.860  10.193 128.174  0.00  0.00    +0.000 HD
ENDBRANCH  19  22
ENDBRANCH  13  16
ENDBRANCH   1  13
TORSDOF 6
ENDMDL
MODEL 8
REMARK VINA RESULT:      -6.1      8.338     11.020
REMARK  Name = Sulfadoxine
REMARK  8 active torsions:
REMARK  status: ('A' for Active; 'I' for Inactive)
REMARK    1  A    between atoms: C_1  and  O_2
REMARK    2  A    between atoms: O_2  and  C_3
REMARK    3  A    between atoms: C_7  and  N_8
REMARK    4  A    between atoms: N_8  and  S_9
REMARK    5  A    between atoms: S_9  and  C_12
REMARK    6  A    between atoms: C_15  and  N_16
REMARK    7  A    between atoms: C_19  and  O_20
REMARK    8  A    between atoms: O_20  and  C_21
REMARK                            x       y       z     vdW  Elec       q    Type
REMARK                         _______ _______ _______ _____ _____    ______ ____
ROOT
ATOM      1  N   UNL     1      -8.570   5.579 130.791  0.00  0.00    +0.000 N 
ATOM      2  H   UNL     1      -7.973   6.396 130.862  0.00  0.00    +0.000 HD
ENDROOT
BRANCH   1   7
ATOM      3  C   UNL     1      -7.528   2.544 132.734  0.00  0.00    +0.000 A 
ATOM      4  N   UNL     1      -8.339   2.705 133.802  0.00  0.00    +0.000 NA
ATOM      5  C   UNL     1      -9.155   3.778 133.804  0.00  0.00    +0.000 A 
ATOM      6  N   UNL     1      -9.236   4.735 132.858  0.00  0.00    +0.000 NA
ATOM      7  C   UNL     1      -8.425   4.547 131.803  0.00  0.00    +0.000 A 
ATOM      8  C   UNL     1      -7.569   3.438 131.680  0.00  0.00    +0.000 A 
BRANCH   3  10
ATOM      9  C   UNL     1      -5.469   1.300 132.917  0.00  0.00    +0.000 C 
ATOM     10  O   UNL     1      -6.882   1.331 132.743  0.00  0.00    +0.000 OA
ENDBRANCH   3  10
BRANCH   8  11
ATOM     11  O   UNL     1      -7.001   3.365 130.475  0.00  0.00    +0.000 OA
ATOM     12  C   UNL     1      -7.194   2.409 129.501  0.00  0.00    +0.000 C 
ENDBRANCH   8  11
ENDBRANCH   1   7
BRANCH   1  13
ATOM     13  S   UNL     1      -9.638   5.378 129.499  0.00  0.00    +0.000 S 
ATOM     14  O   UNL     1      -8.881   5.319 128.271  0.00  0.00    +0.000 OA
ATOM     15  O   UNL     1     -10.597   4.338 129.870  0.00  0.00    +0.000 OA
BRANCH  13  16
ATOM     16  C   UNL     1     -10.635   6.811 129.355  0.00  0.00    +0.000 A 
ATOM     17  C   UNL     1     -11.632   7.026 130.314  0.00  0.00    +0.000 A 
ATOM     18  C   UNL     1     -12.500   8.096 130.172  0.00  0.00    +0.000 A 
ATOM     19  C   UNL     1     -12.385   8.945 129.073  0.00  0.00    +0.000 A 
ATOM     20  C   UNL     1     -11.427   8.670 128.086  0.00  0.00    +0.000 A 
ATOM     21  C   UNL     1     -10.558   7.590 128.209  0.00  0.00    +0.000 A 
BRANCH  19  22
ATOM     22  N   UNL     1     -13.229  10.029 128.947  0.00  0.00    +0.000 N 
ATOM     23  H   UNL     1     -12.937  10.942 129.268  0.00  0.00    +0.000 HD
ATOM     24  H   UNL     1     -14.114   9.939 128.472  0.00  0.00    +0.000 HD
ENDBRANCH  19  22
ENDBRANCH  13  16
ENDBRANCH   1  13
TORSDOF 6
ENDMDL
MODEL 9
REMARK VINA RESULT:      -6.1      9.286     11.057
REMARK  Name = Sulfadoxine
REMARK  8 active torsions:
REMARK  status: ('A' for Active; 'I' for Inactive)
REMARK    1  A    between atoms: C_1  and  O_2
REMARK    2  A    between atoms: O_2  and  C_3
REMARK    3  A    between atoms: C_7  and  N_8
REMARK    4  A    between atoms: N_8  and  S_9
REMARK    5  A    between atoms: S_9  and  C_12
REMARK    6  A    between atoms: C_15  and  N_16
REMARK    7  A    between atoms: C_19  and  O_20
REMARK    8  A    between atoms: O_20  and  C_21
REMARK                            x       y       z     vdW  Elec       q    Type
REMARK                         _______ _______ _______ _____ _____    ______ ____
ROOT
ATOM      1  N   UNL     1      -8.570   6.543 131.393  0.00  0.00    +0.000 N 
ATOM      2  H   UNL     1      -8.948   7.165 132.099  0.00  0.00    +0.000 HD
ENDROOT
BRANCH   1   7
ATOM      3  C   UNL     1      -5.106   5.182 131.868  0.00  0.00    +0.000 A 
ATOM      4  N   UNL     1      -4.419   6.172 131.257  0.00  0.00    +0.000 NA
ATOM      5  C   UNL     1      -5.132   7.195 130.745  0.00  0.00    +0.000 A 
ATOM      6  N   UNL     1      -6.473   7.332 130.753  0.00  0.00    +0.000 NA
ATOM      7  C   UNL     1      -7.131   6.339 131.374  0.00  0.00    +0.000 A 
ATOM      8  C   UNL     1      -6.483   5.249 131.982  0.00  0.00    +0.000 A 
BRANCH   3  10
ATOM      9  C   UNL     1      -3.326   4.785 133.448  0.00  0.00    +0.000 C 
ATOM     10  O   UNL     1      -4.283   4.292 132.515  0.00  0.00    +0.000 OA
ENDBRANCH   3  10
BRANCH   8  11
ATOM     11  O   UNL     1      -7.319   4.490 132.691  0.00  0.00    +0.000 OA
ATOM     12  C   UNL     1      -7.629   3.159 132.501  0.00  0.00    +0.000 C 
ENDBRANCH   8  11
ENDBRANCH   1   7
BRANCH   1  13
ATOM     13  S   UNL     1      -9.557   5.834 130.222  0.00  0.00    +0.000 S 
ATOM     14  O   UNL     1      -8.771   5.579 129.038  0.00  0.00    +0.000 OA
ATOM     15  O   UNL     1     -10.339   4.783 130.874  0.00  0.00    +0.000 OA
BRANCH  13  16
ATOM     16  C   UNL     1     -10.774   6.991 129.725  0.00  0.00    +0.000 A 
ATOM     17  C   UNL     1     -10.541   7.745 128.568  0.00  0.00    +0.000 A 
ATOM     18  C   UNL     1     -11.437   8.738 128.205  0.00  0.00    +0.000 A 
ATOM     19  C   UNL     1     -12.558   8.986 128.996  0.00  0.00    +0.000 A 
ATOM     20  C   UNL     1     -12.735   8.270 130.188  0.00  0.00    +0.000 A 
ATOM     21  C   UNL     1     -11.835   7.281 130.572  0.00  0.00    +0.000 A 
BRANCH  19  22
ATOM     22  N   UNL     1     -13.467   9.953 128.617  0.00  0.00    +0.000 N 
ATOM     23  H   UNL     1     -13.732  10.050 127.646  0.00  0.00    +0.000 HD
ATOM     24  H   UNL     1     -13.929  10.523 129.309  0.00  0.00    +0.000 HD
ENDBRANCH  19  22
ENDBRANCH  13  16
ENDBRANCH   1  13
TORSDOF 6
ENDMDL
