MODEL 1
REMARK VINA RESULT:      -6.5      0.000      0.000
REMARK  Name = Sulfametopyrazine
REMARK  5 active torsions:
REMARK  status: ('A' for Active; 'I' for Inactive)
REMARK    1  A    between atoms: C_1  and  O_2
REMARK    2  A    between atoms: O_2  and  C_3
REMARK    3  A    between atoms: N_9  and  S_10
REMARK    4  A    between atoms: S_10  and  C_13
REMARK    5  A    between atoms: C_16  and  N_17
REMARK                            x       y       z     vdW  Elec       q    Type
REMARK                         _______ _______ _______ _____ _____    ______ ____
ROOT
ATOM      1  S   UNL     1      -7.529   2.987 122.705  0.00  0.00    +0.000 S 
ATOM      2  O   UNL     1      -6.753   1.765 122.809  0.00  0.00    +0.000 OA
ATOM      3  O   UNL     1      -8.973   2.984 122.625  0.00  0.00    +0.000 OA
ENDROOT
BRANCH   1  10
ATOM      4  C   UNL     1      -8.200   2.490 125.710  0.00  0.00    +0.000 A 
ATOM      5  N   UNL     1      -8.483   2.203 127.006  0.00  0.00    +0.000 NA
ATOM      6  C   UNL     1      -8.020   3.087 127.905  0.00  0.00    +0.000 A 
ATOM      7  C   UNL     1      -7.319   4.223 127.526  0.00  0.00    +0.000 A 
ATOM      8  N   UNL     1      -7.023   4.523 126.227  0.00  0.00    +0.000 NA
ATOM      9  C   UNL     1      -7.459   3.622 125.308  0.00  0.00    +0.000 A 
ATOM     10  N   UNL     1      -7.107   3.990 123.969  0.00  0.00    +0.000 N 
ATOM     11  H   UNL     1      -6.586   4.851 123.842  0.00  0.00    +0.000 HD
BRANCH   4  13
ATOM     12  C   UNL     1      -8.496   0.224 125.403  0.00  0.00    +0.000 C 
ATOM     13  O   UNL     1      -8.559   1.519 124.822  0.00  0.00    +0.000 OA
ENDBRANCH   4  13
ENDBRANCH   1  10
BRANCH   1  14
ATOM     14  C   UNL     1      -6.984   3.745 121.202  0.00  0.00    +0.000 A 
ATOM     15  C   UNL     1      -5.697   4.298 121.164  0.00  0.00    +0.000 A 
ATOM     16  C   UNL     1      -5.278   5.005 120.039  0.00  0.00    +0.000 A 
ATOM     17  C   UNL     1      -6.134   5.171 118.951  0.00  0.00    +0.000 A 
ATOM     18  C   UNL     1      -7.430   4.644 119.019  0.00  0.00    +0.000 A 
ATOM     19  C   UNL     1      -7.869   3.943 120.147  0.00  0.00    +0.000 A 
BRANCH  17  20
ATOM     20  N   UNL     1      -5.700   5.836 117.822  0.00  0.00    +0.000 N 
ATOM     21  H   UNL     1      -4.749   6.172 117.756  0.00  0.00    +0.000 HD
ATOM     22  H   UNL     1      -6.333   6.028 117.058  0.00  0.00    +0.000 HD
ENDBRANCH  17  20
ENDBRANCH   1  14
TORSDOF 4
ENDMDL
MODEL 2
REMARK VINA RESULT:      -6.4      2.235      3.618
REMARK  Name = Sulfametopyrazine
REMARK  5 active torsions:
REMARK  status: ('A' for Active; 'I' for Inactive)
REMARK    1  A    between atoms: C_1  and  O_2
REMARK    2  A    between atoms: O_2  and  C_3
REMARK    3  A    between atoms: N_9  and  S_10
REMARK    4  A    between atoms: S_10  and  C_13
REMARK    5  A    between atoms: C_16  and  N_17
REMARK                            x       y       z     vdW  Elec       q    Type
REMARK                         _______ _______ _______ _____ _____    ______ ____
ROOT
ATOM      1  S   UNL     1      -7.559   2.342 123.430  0.00  0.00    +0.000 S 
ATOM      2  O   UNL     1      -8.971   2.673 123.505  0.00  0.00    +0.000 OA
ATOM      3  O   UNL     1      -6.659   2.528 124.546  0.00  0.00    +0.000 OA
ENDROOT
BRANCH   1  10
ATOM      4  C   UNL     1      -8.707  -0.130 124.950  0.00  0.00    +0.000 A 
ATOM      5  N   UNL     1      -9.262  -1.164 125.629  0.00  0.00    +0.000 NA
ATOM      6  C   UNL     1      -9.102  -2.374 125.067  0.00  0.00    +0.000 A 
ATOM      7  C   UNL     1      -8.400  -2.548 123.884  0.00  0.00    +0.000 A 
ATOM      8  N   UNL     1      -7.838  -1.517 123.186  0.00  0.00    +0.000 NA
ATOM      9  C   UNL     1      -8.018  -0.283 123.727  0.00  0.00    +0.000 A 
ATOM     10  N   UNL     1      -7.415   0.753 122.942  0.00  0.00    +0.000 N 
ATOM     11  H   UNL     1      -6.935   0.477 122.092  0.00  0.00    +0.000 HD
BRANCH   4  13
ATOM     12  C   UNL     1      -8.856   1.131 126.874  0.00  0.00    +0.000 C 
ATOM     13  O   UNL     1      -8.990   1.103 125.460  0.00  0.00    +0.000 OA
ENDBRANCH   4  13
ENDBRANCH   1  10
BRANCH   1  14
ATOM     14  C   UNL     1      -6.919   3.369 122.141  0.00  0.00    +0.000 A 
ATOM     15  C   UNL     1      -7.678   3.525 120.973  0.00  0.00    +0.000 A 
ATOM     16  C   UNL     1      -7.154   4.229 119.892  0.00  0.00    +0.000 A 
ATOM     17  C   UNL     1      -5.874   4.777 119.962  0.00  0.00    +0.000 A 
ATOM     18  C   UNL     1      -5.112   4.581 121.121  0.00  0.00    +0.000 A 
ATOM     19  C   UNL     1      -5.621   3.865 122.209  0.00  0.00    +0.000 A 
BRANCH  17  20
ATOM     20  N   UNL     1      -5.375   5.510 118.903  0.00  0.00    +0.000 N 
ATOM     21  H   UNL     1      -4.558   6.093 119.021  0.00  0.00    +0.000 HD
ATOM     22  H   UNL     1      -5.837   5.502 118.005  0.00  0.00    +0.000 HD
ENDBRANCH  17  20
ENDBRANCH   1  14
TORSDOF 4
ENDMDL
MODEL 3
REMARK VINA RESULT:      -6.3      8.013      9.057
REMARK  Name = Sulfametopyrazine
REMARK  5 active torsions:
REMARK  status: ('A' for Active; 'I' for Inactive)
REMARK    1  A    between atoms: C_1  and  O_2
REMARK    2  A    between atoms: O_2  and  C_3
REMARK    3  A    between atoms: N_9  and  S_10
REMARK    4  A    between atoms: S_10  and  C_13
REMARK    5  A    between atoms: C_16  and  N_17
REMARK                            x       y       z     vdW  Elec       q    Type
REMARK                         _______ _______ _______ _____ _____    ______ ____
ROOT
ATOM      1  S   UNL     1     -10.635   5.281 130.058  0.00  0.00    +0.000 S 
ATOM      2  O   UNL     1      -9.522   5.292 129.125  0.00  0.00    +0.000 OA
ATOM      3  O   UNL     1     -11.611   4.215 130.087  0.00  0.00    +0.000 OA
ENDROOT
BRANCH   1  10
ATOM      4  C   UNL     1      -9.005   3.105 131.589  0.00  0.00    +0.000 A 
ATOM      5  N   UNL     1      -8.267   2.140 132.192  0.00  0.00    +0.000 NA
ATOM      6  C   UNL     1      -7.805   2.449 133.415  0.00  0.00    +0.000 A 
ATOM      7  C   UNL     1      -8.084   3.665 134.021  0.00  0.00    +0.000 A 
ATOM      8  N   UNL     1      -8.823   4.647 133.425  0.00  0.00    +0.000 NA
ATOM      9  C   UNL     1      -9.272   4.361 132.175  0.00  0.00    +0.000 A 
ATOM     10  N   UNL     1     -10.028   5.435 131.604  0.00  0.00    +0.000 N 
ATOM     11  H   UNL     1     -10.148   6.272 132.165  0.00  0.00    +0.000 HD
BRANCH   4  13
ATOM     12  C   UNL     1      -8.419   1.962 129.674  0.00  0.00    +0.000 C 
ATOM     13  O   UNL     1      -9.354   2.831 130.298  0.00  0.00    +0.000 OA
ENDBRANCH   4  13
ENDBRANCH   1  10
BRANCH   1  14
ATOM     14  C   UNL     1     -11.556   6.743 129.685  0.00  0.00    +0.000 A 
ATOM     15  C   UNL     1     -11.402   7.323 128.418  0.00  0.00    +0.000 A 
ATOM     16  C   UNL     1     -12.019   8.538 128.130  0.00  0.00    +0.000 A 
ATOM     17  C   UNL     1     -12.788   9.185 129.097  0.00  0.00    +0.000 A 
ATOM     18  C   UNL     1     -12.903   8.612 130.370  0.00  0.00    +0.000 A 
ATOM     19  C   UNL     1     -12.277   7.399 130.677  0.00  0.00    +0.000 A 
BRANCH  17  20
ATOM     20  N   UNL     1     -13.432  10.368 128.793  0.00  0.00    +0.000 N 
ATOM     21  H   UNL     1     -13.892  10.489 127.902  0.00  0.00    +0.000 HD
ATOM     22  H   UNL     1     -13.425  11.142 129.442  0.00  0.00    +0.000 HD
ENDBRANCH  17  20
ENDBRANCH   1  14
TORSDOF 4
ENDMDL
MODEL 4
REMARK VINA RESULT:      -6.2      8.432      9.282
REMARK  Name = Sulfametopyrazine
REMARK  5 active torsions:
REMARK  status: ('A' for Active; 'I' for Inactive)
REMARK    1  A    between atoms: C_1  and  O_2
REMARK    2  A    between atoms: O_2  and  C_3
REMARK    3  A    between atoms: N_9  and  S_10
REMARK    4  A    between atoms: S_10  and  C_13
REMARK    5  A    between atoms: C_16  and  N_17
REMARK                            x       y       z     vdW  Elec       q    Type
REMARK                         _______ _______ _______ _____ _____    ______ ____
ROOT
ATOM      1  S   UNL     1      -9.507   6.028 130.841  0.00  0.00    +0.000 S 
ATOM      2  O   UNL     1      -9.338   6.517 132.198  0.00  0.00    +0.000 OA
ATOM      3  O   UNL     1      -8.422   6.002 129.885  0.00  0.00    +0.000 OA
ENDROOT
BRANCH   1  10
ATOM      4  C   UNL     1      -8.010   3.505 131.905  0.00  0.00    +0.000 A 
ATOM      5  N   UNL     1      -7.328   2.451 132.416  0.00  0.00    +0.000 NA
ATOM      6  C   UNL     1      -8.004   1.290 132.453  0.00  0.00    +0.000 A 
ATOM      7  C   UNL     1      -9.303   1.182 131.980  0.00  0.00    +0.000 A 
ATOM      8  N   UNL     1     -10.005   2.235 131.466  0.00  0.00    +0.000 NA
ATOM      9  C   UNL     1      -9.344   3.422 131.450  0.00  0.00    +0.000 A 
ATOM     10  N   UNL     1     -10.139   4.485 130.910  0.00  0.00    +0.000 N 
ATOM     11  H   UNL     1     -11.079   4.258 130.607  0.00  0.00    +0.000 HD
BRANCH   4  13
ATOM     12  C   UNL     1      -5.954   4.530 132.102  0.00  0.00    +0.000 C 
ATOM     13  O   UNL     1      -7.361   4.702 131.997  0.00  0.00    +0.000 OA
ENDBRANCH   4  13
ENDBRANCH   1  10
BRANCH   1  14
ATOM     14  C   UNL     1     -10.730   7.086 130.126  0.00  0.00    +0.000 A 
ATOM     15  C   UNL     1     -10.407   7.780 128.951  0.00  0.00    +0.000 A 
ATOM     16  C   UNL     1     -11.300   8.710 128.426  0.00  0.00    +0.000 A 
ATOM     17  C   UNL     1     -12.515   8.960 129.063  0.00  0.00    +0.000 A 
ATOM     18  C   UNL     1     -12.807   8.287 130.256  0.00  0.00    +0.000 A 
ATOM     19  C   UNL     1     -11.914   7.360 130.803  0.00  0.00    +0.000 A 
BRANCH  17  20
ATOM     20  N   UNL     1     -13.414   9.852 128.516  0.00  0.00    +0.000 N 
ATOM     21  H   UNL     1     -14.253  10.111 129.017  0.00  0.00    +0.000 HD
ATOM     22  H   UNL     1     -13.268  10.234 127.592  0.00  0.00    +0.000 HD
ENDBRANCH  17  20
ENDBRANCH   1  14
TORSDOF 4
ENDMDL
MODEL 5
REMARK VINA RESULT:      -6.2      7.392      8.888
REMARK  Name = Sulfametopyrazine
REMARK  5 active torsions:
REMARK  status: ('A' for Active; 'I' for Inactive)
REMARK    1  A    between atoms: C_1  and  O_2
REMARK    2  A    between atoms: O_2  and  C_3
REMARK    3  A    between atoms: N_9  and  S_10
REMARK    4  A    between atoms: S_10  and  C_13
REMARK    5  A    between atoms: C_16  and  N_17
REMARK                            x       y       z     vdW  Elec       q    Type
REMARK                         _______ _______ _______ _____ _____    ______ ____
ROOT
ATOM      1  S   UNL     1     -10.730   5.507 130.422  0.00  0.00    +0.000 S 
ATOM      2  O   UNL     1     -11.484   4.379 129.906  0.00  0.00    +0.000 OA
ATOM      3  O   UNL     1     -10.475   5.690 131.834  0.00  0.00    +0.000 OA
ENDROOT
BRANCH   1  10
ATOM      4  C   UNL     1      -8.464   3.382 130.709  0.00  0.00    +0.000 A 
ATOM      5  N   UNL     1      -7.529   2.408 130.839  0.00  0.00    +0.000 NA
ATOM      6  C   UNL     1      -6.421   2.571 130.098  0.00  0.00    +0.000 A 
ATOM      7  C   UNL     1      -6.242   3.672 129.274  0.00  0.00    +0.000 A 
ATOM      8  N   UNL     1      -7.175   4.660 129.130  0.00  0.00    +0.000 NA
ATOM      9  C   UNL     1      -8.315   4.493 129.851  0.00  0.00    +0.000 A 
ATOM     10  N   UNL     1      -9.254   5.555 129.645  0.00  0.00    +0.000 N 
ATOM     11  H   UNL     1      -8.989   6.297 129.006  0.00  0.00    +0.000 HD
BRANCH   4  13
ATOM     12  C   UNL     1      -9.595   1.906 132.071  0.00  0.00    +0.000 C 
ATOM     13  O   UNL     1      -9.636   3.137 131.362  0.00  0.00    +0.000 OA
ENDBRANCH   4  13
ENDBRANCH   1  10
BRANCH   1  14
ATOM     14  C   UNL     1     -11.652   6.934 129.930  0.00  0.00    +0.000 A 
ATOM     15  C   UNL     1     -11.443   7.451 128.644  0.00  0.00    +0.000 A 
ATOM     16  C   UNL     1     -12.062   8.640 128.264  0.00  0.00    +0.000 A 
ATOM     17  C   UNL     1     -12.887   9.322 129.158  0.00  0.00    +0.000 A 
ATOM     18  C   UNL     1     -13.057   8.812 130.451  0.00  0.00    +0.000 A 
ATOM     19  C   UNL     1     -12.430   7.627 130.851  0.00  0.00    +0.000 A 
BRANCH  17  20
ATOM     20  N   UNL     1     -13.532  10.477 128.763  0.00  0.00    +0.000 N 
ATOM     21  H   UNL     1     -13.586  10.728 127.785  0.00  0.00    +0.000 HD
ATOM     22  H   UNL     1     -13.930  11.107 129.445  0.00  0.00    +0.000 HD
ENDBRANCH  17  20
ENDBRANCH   1  14
TORSDOF 4
ENDMDL
MODEL 6
REMARK VINA RESULT:      -5.8      5.272      8.871
REMARK  Name = Sulfametopyrazine
REMARK  5 active torsions:
REMARK  status: ('A' for Active; 'I' for Inactive)
REMARK    1  A    between atoms: C_1  and  O_2
REMARK    2  A    between atoms: O_2  and  C_3
REMARK    3  A    between atoms: N_9  and  S_10
REMARK    4  A    between atoms: S_10  and  C_13
REMARK    5  A    between atoms: C_16  and  N_17
REMARK                            x       y       z     vdW  Elec       q    Type
REMARK                         _______ _______ _______ _____ _____    ______ ____
ROOT
ATOM      1  S   UNL     1      -7.865  -2.387 126.605  0.00  0.00    +0.000 S 
ATOM      2  O   UNL     1      -8.997  -3.296 126.574  0.00  0.00    +0.000 OA
ATOM      3  O   UNL     1      -6.744  -2.514 125.700  0.00  0.00    +0.000 OA
ENDROOT
BRANCH   1  10
ATOM      4  C   UNL     1      -9.043  -1.118 124.010  0.00  0.00    +0.000 A 
ATOM      5  N   UNL     1      -9.583  -0.630 122.865  0.00  0.00    +0.000 NA
ATOM      6  C   UNL     1     -10.050   0.627 122.940  0.00  0.00    +0.000 A 
ATOM      7  C   UNL     1      -9.964   1.376 124.104  0.00  0.00    +0.000 A 
ATOM      8  N   UNL     1      -9.426   0.898 125.265  0.00  0.00    +0.000 NA
ATOM      9  C   UNL     1      -8.977  -0.384 125.213  0.00  0.00    +0.000 A 
ATOM     10  N   UNL     1      -8.437  -0.827 126.465  0.00  0.00    +0.000 N 
ATOM     11  H   UNL     1      -8.444  -0.168 127.236  0.00  0.00    +0.000 HD
BRANCH   4  13
ATOM     12  C   UNL     1      -9.618  -3.194 123.186  0.00  0.00    +0.000 C 
ATOM     13  O   UNL     1      -8.695  -2.437 123.958  0.00  0.00    +0.000 OA
ENDBRANCH   4  13
ENDBRANCH   1  10
BRANCH   1  14
ATOM     14  C   UNL     1      -7.177  -2.573 128.223  0.00  0.00    +0.000 A 
ATOM     15  C   UNL     1      -5.788  -2.457 128.375  0.00  0.00    +0.000 A 
ATOM     16  C   UNL     1      -5.201  -2.713 129.611  0.00  0.00    +0.000 A 
ATOM     17  C   UNL     1      -5.985  -3.089 130.701  0.00  0.00    +0.000 A 
ATOM     18  C   UNL     1      -7.367  -3.237 130.525  0.00  0.00    +0.000 A 
ATOM     19  C   UNL     1      -7.969  -2.996 129.286  0.00  0.00    +0.000 A 
BRANCH  17  20
ATOM     20  N   UNL     1      -5.403  -3.301 131.935  0.00  0.00    +0.000 N 
ATOM     21  H   UNL     1      -5.828  -3.927 132.604  0.00  0.00    +0.000 HD
ATOM     22  H   UNL     1      -4.563  -2.808 132.202  0.00  0.00    +0.000 HD
ENDBRANCH  17  20
ENDBRANCH   1  14
TORSDOF 4
ENDMDL
MODEL 7
REMARK VINA RESULT:      -5.7      8.801     10.534
REMARK  Name = Sulfametopyrazine
REMARK  5 active torsions:
REMARK  status: ('A' for Active; 'I' for Inactive)
REMARK    1  A    between atoms: C_1  and  O_2
REMARK    2  A    between atoms: O_2  and  C_3
REMARK    3  A    between atoms: N_9  and  S_10
REMARK    4  A    between atoms: S_10  and  C_13
REMARK    5  A    between atoms: C_16  and  N_17
REMARK                            x       y       z     vdW  Elec       q    Type
REMARK                         _______ _______ _______ _____ _____    ______ ____
ROOT
ATOM      1  S   UNL     1      -5.718   6.549 130.948  0.00  0.00    +0.000 S 
ATOM      2  O   UNL     1      -5.509   7.827 130.291  0.00  0.00    +0.000 OA
ATOM      3  O   UNL     1      -5.474   5.287 130.285  0.00  0.00    +0.000 OA
ENDROOT
BRANCH   1  10
ATOM      4  C   UNL     1      -2.605   6.531 131.156  0.00  0.00    +0.000 A 
ATOM      5  N   UNL     1      -1.249   6.565 131.187  0.00  0.00    +0.000 NA
ATOM      6  C   UNL     1      -0.704   6.611 132.414  0.00  0.00    +0.000 A 
ATOM      7  C   UNL     1      -1.478   6.602 133.565  0.00  0.00    +0.000 A 
ATOM      8  N   UNL     1      -2.844   6.572 133.549  0.00  0.00    +0.000 NA
ATOM      9  C   UNL     1      -3.411   6.557 132.314  0.00  0.00    +0.000 A 
ATOM     10  N   UNL     1      -4.843   6.536 132.368  0.00  0.00    +0.000 N 
ATOM     11  H   UNL     1      -5.276   6.538 133.285  0.00  0.00    +0.000 HD
BRANCH   4  13
ATOM     12  C   UNL     1      -2.174   6.400 128.894  0.00  0.00    +0.000 C 
ATOM     13  O   UNL     1      -3.147   6.620 129.907  0.00  0.00    +0.000 OA
ENDBRANCH   4  13
ENDBRANCH   1  10
BRANCH   1  14
ATOM     14  C   UNL     1      -7.436   6.529 131.366  0.00  0.00    +0.000 A 
ATOM     15  C   UNL     1      -7.828   5.875 132.542  0.00  0.00    +0.000 A 
ATOM     16  C   UNL     1      -9.181   5.736 132.842  0.00  0.00    +0.000 A 
ATOM     17  C   UNL     1     -10.151   6.242 131.977  0.00  0.00    +0.000 A 
ATOM     18  C   UNL     1      -9.745   6.860 130.787  0.00  0.00    +0.000 A 
ATOM     19  C   UNL     1      -8.390   6.994 130.467  0.00  0.00    +0.000 A 
BRANCH  17  20
ATOM     20  N   UNL     1     -11.489   6.140 132.299  0.00  0.00    +0.000 N 
ATOM     21  H   UNL     1     -12.049   5.381 131.938  0.00  0.00    +0.000 HD
ATOM     22  H   UNL     1     -11.938   6.840 132.873  0.00  0.00    +0.000 HD
ENDBRANCH  17  20
ENDBRANCH   1  14
TORSDOF 4
ENDMDL
MODEL 8
REMARK VINA RESULT:      -5.6      4.371      6.036
REMARK  Name = Sulfametopyrazine
REMARK  5 active torsions:
REMARK  status: ('A' for Active; 'I' for Inactive)
REMARK    1  A    between atoms: C_1  and  O_2
REMARK    2  A    between atoms: O_2  and  C_3
REMARK    3  A    between atoms: N_9  and  S_10
REMARK    4  A    between atoms: S_10  and  C_13
REMARK    5  A    between atoms: C_16  and  N_17
REMARK                            x       y       z     vdW  Elec       q    Type
REMARK                         _______ _______ _______ _____ _____    ______ ____
ROOT
ATOM      1  S   UNL     1      -6.995   1.390 124.894  0.00  0.00    +0.000 S 
ATOM      2  O   UNL     1      -6.914   1.755 123.491  0.00  0.00    +0.000 OA
ATOM      3  O   UNL     1      -8.153   1.689 125.707  0.00  0.00    +0.000 OA
ENDROOT
BRANCH   1  10
ATOM      4  C   UNL     1      -8.865  -0.873 123.839  0.00  0.00    +0.000 A 
ATOM      5  N   UNL     1      -9.694  -1.816 123.325  0.00  0.00    +0.000 NA
ATOM      6  C   UNL     1      -9.282  -3.086 123.471  0.00  0.00    +0.000 A 
ATOM      7  C   UNL     1      -8.101  -3.406 124.122  0.00  0.00    +0.000 A 
ATOM      8  N   UNL     1      -7.254  -2.469 124.643  0.00  0.00    +0.000 NA
ATOM      9  C   UNL     1      -7.642  -1.177 124.475  0.00  0.00    +0.000 A 
ATOM     10  N   UNL     1      -6.705  -0.247 125.032  0.00  0.00    +0.000 N 
ATOM     11  H   UNL     1      -5.877  -0.627 125.477  0.00  0.00    +0.000 HD
BRANCH   4  13
ATOM     12  C   UNL     1     -10.159   0.482 122.496  0.00  0.00    +0.000 C 
ATOM     13  O   UNL     1      -9.227   0.413 123.566  0.00  0.00    +0.000 OA
ENDBRANCH   4  13
ENDBRANCH   1  10
BRANCH   1  14
ATOM     14  C   UNL     1      -5.654   2.248 125.665  0.00  0.00    +0.000 A 
ATOM     15  C   UNL     1      -5.290   3.505 125.161  0.00  0.00    +0.000 A 
ATOM     16  C   UNL     1      -4.166   4.156 125.665  0.00  0.00    +0.000 A 
ATOM     17  C   UNL     1      -3.397   3.563 126.666  0.00  0.00    +0.000 A 
ATOM     18  C   UNL     1      -3.753   2.291 127.133  0.00  0.00    +0.000 A 
ATOM     19  C   UNL     1      -4.870   1.620 126.627  0.00  0.00    +0.000 A 
BRANCH  17  20
ATOM     20  N   UNL     1      -2.309   4.231 127.192  0.00  0.00    +0.000 N 
ATOM     21  H   UNL     1      -1.738   3.802 127.906  0.00  0.00    +0.000 HD
ATOM     22  H   UNL     1      -2.087   5.171 126.896  0.00  0.00    +0.000 HD
ENDBRANCH  17  20
ENDBRANCH   1  14
TORSDOF 4
ENDMDL
MODEL 9
REMARK VINA RESULT:      -5.6      2.233      2.620
REMARK  Name = Sulfametopyrazine
REMARK  5 active torsions:
REMARK  status: ('A' for Active; 'I' for Inactive)
REMARK    1  A    between atoms: C_1  and  O_2
REMARK    2  A    between atoms: O_2  and  C_3
REMARK    3  A    between atoms: N_9  and  S_10
REMARK    4  A    between atoms: S_10  and  C_13
REMARK    5  A    between atoms: C_16  and  N_17
REMARK                            x       y       z     vdW  Elec       q    Type
REMARK                         _______ _______ _______ _____ _____    ______ ____
ROOT
ATOM      1  S   UNL     1      -7.063   2.667 124.174  0.00  0.00    +0.000 S 
ATOM      2  O   UNL     1      -7.022   1.227 123.993  0.00  0.00    +0.000 OA
ATOM      3  O   UNL     1      -8.125   3.327 124.900  0.00  0.00    +0.000 OA
ENDROOT
BRANCH   1  10
ATOM      4  C   UNL     1      -6.077   1.921 127.039  0.00  0.00    +0.000 A 
ATOM      5  N   UNL     1      -5.680   1.534 128.276  0.00  0.00    +0.000 NA
ATOM      6  C   UNL     1      -4.465   1.967 128.653  0.00  0.00    +0.000 A 
ATOM      7  C   UNL     1      -3.686   2.772 127.836  0.00  0.00    +0.000 A 
ATOM      8  N   UNL     1      -4.071   3.169 126.586  0.00  0.00    +0.000 NA
ATOM      9  C   UNL     1      -5.285   2.712 126.180  0.00  0.00    +0.000 A 
ATOM     10  N   UNL     1      -5.622   3.154 124.859  0.00  0.00    +0.000 N 
ATOM     11  H   UNL     1      -4.949   3.738 124.375  0.00  0.00    +0.000 HD
BRANCH   4  13
ATOM     12  C   UNL     1      -8.174   1.216 127.688  0.00  0.00    +0.000 C 
ATOM     13  O   UNL     1      -7.250   1.366 126.618  0.00  0.00    +0.000 OA
ENDBRANCH   4  13
ENDBRANCH   1  10
BRANCH   1  14
ATOM     14  C   UNL     1      -7.140   3.329 122.537  0.00  0.00    +0.000 A 
ATOM     15  C   UNL     1      -8.384   3.372 121.893  0.00  0.00    +0.000 A 
ATOM     16  C   UNL     1      -8.465   3.777 120.562  0.00  0.00    +0.000 A 
ATOM     17  C   UNL     1      -7.313   4.136 119.863  0.00  0.00    +0.000 A 
ATOM     18  C   UNL     1      -6.072   4.052 120.509  0.00  0.00    +0.000 A 
ATOM     19  C   UNL     1      -5.975   3.634 121.840  0.00  0.00    +0.000 A 
BRANCH  17  20
ATOM     20  N   UNL     1      -7.402   4.576 118.558  0.00  0.00    +0.000 N 
ATOM     21  H   UNL     1      -6.620   4.477 117.926  0.00  0.00    +0.000 HD
ATOM     22  H   UNL     1      -8.238   5.035 118.223  0.00  0.00    +0.000 HD
ENDBRANCH  17  20
ENDBRANCH   1  14
TORSDOF 4
ENDMDL
