MODEL 1
REMARK VINA RESULT:      -8.3      0.000      0.000
REMARK  Name = Sulfaphenazole
REMARK  5 active torsions:
REMARK  status: ('A' for Active; 'I' for Inactive)
REMARK    1  A    between atoms: N_1  and  C_2
REMARK    2  A    between atoms: C_5  and  S_8
REMARK    3  A    between atoms: S_8  and  N_11
REMARK    4  A    between atoms: N_11  and  C_12
REMARK    5  A    between atoms: N_16  and  C_17
REMARK                            x       y       z     vdW  Elec       q    Type
REMARK                         _______ _______ _______ _____ _____    ______ ____
ROOT
ATOM      1  N   UNL     1      -7.144   1.375 123.806  0.00  0.00    +0.000 N 
ATOM      2  H   UNL     1      -6.501   0.760 124.271  0.00  0.00    +0.000 HD
ENDROOT
BRANCH   1   3
ATOM      3  C   UNL     1      -8.347   0.811 123.375  0.00  0.00    +0.000 A 
ATOM      4  C   UNL     1      -9.518   1.473 123.095  0.00  0.00    +0.000 A 
ATOM      5  C   UNL     1     -10.399   0.469 122.650  0.00  0.00    +0.000 A 
ATOM      6  N   UNL     1      -9.817  -0.732 122.583  0.00  0.00    +0.000 NA
ATOM      7  N   UNL     1      -8.574  -0.525 123.073  0.00  0.00    +0.000 N 
BRANCH   7   8
ATOM      8  C   UNL     1      -7.714  -1.599 123.374  0.00  0.00    +0.000 A 
ATOM      9  C   UNL     1      -6.403  -1.615 122.890  0.00  0.00    +0.000 A 
ATOM     10  C   UNL     1      -5.571  -2.688 123.223  0.00  0.00    +0.000 A 
ATOM     11  C   UNL     1      -6.041  -3.717 124.046  0.00  0.00    +0.000 A 
ATOM     12  C   UNL     1      -7.359  -3.704 124.502  0.00  0.00    +0.000 A 
ATOM     13  C   UNL     1      -8.200  -2.645 124.170  0.00  0.00    +0.000 A 
ENDBRANCH   7   8
ENDBRANCH   1   3
BRANCH   1  14
ATOM     14  S   UNL     1      -6.988   2.992 124.000  0.00  0.00    +0.000 S 
ATOM     15  O   UNL     1      -5.842   3.242 124.848  0.00  0.00    +0.000 OA
ATOM     16  O   UNL     1      -8.277   3.577 124.316  0.00  0.00    +0.000 OA
BRANCH  14  20
ATOM     17  C   UNL     1      -5.738   4.814 119.947  0.00  0.00    +0.000 A 
ATOM     18  C   UNL     1      -4.908   4.885 121.066  0.00  0.00    +0.000 A 
ATOM     19  C   UNL     1      -5.299   4.322 122.289  0.00  0.00    +0.000 A 
ATOM     20  C   UNL     1      -6.540   3.674 122.401  0.00  0.00    +0.000 A 
ATOM     21  C   UNL     1      -7.370   3.585 121.284  0.00  0.00    +0.000 A 
ATOM     22  C   UNL     1      -6.958   4.144 120.067  0.00  0.00    +0.000 A 
BRANCH  17  23
ATOM     23  N   UNL     1      -5.338   5.325 118.728  0.00  0.00    +0.000 N 
ATOM     24  H   UNL     1      -5.308   4.739 117.904  0.00  0.00    +0.000 HD
ATOM     25  H   UNL     1      -4.899   6.235 118.665  0.00  0.00    +0.000 HD
ENDBRANCH  17  23
ENDBRANCH  14  20
ENDBRANCH   1  14
TORSDOF 5
ENDMDL
MODEL 2
REMARK VINA RESULT:      -8.2      2.320      3.294
REMARK  Name = Sulfaphenazole
REMARK  5 active torsions:
REMARK  status: ('A' for Active; 'I' for Inactive)
REMARK    1  A    between atoms: N_1  and  C_2
REMARK    2  A    between atoms: C_5  and  S_8
REMARK    3  A    between atoms: S_8  and  N_11
REMARK    4  A    between atoms: N_11  and  C_12
REMARK    5  A    between atoms: N_16  and  C_17
REMARK                            x       y       z     vdW  Elec       q    Type
REMARK                         _______ _______ _______ _____ _____    ______ ____
ROOT
ATOM      1  N   UNL     1      -8.427  -0.060 124.511  0.00  0.00    +0.000 N 
ATOM      2  H   UNL     1      -9.387  -0.247 124.288  0.00  0.00    +0.000 HD
ENDROOT
BRANCH   1   3
ATOM      3  C   UNL     1      -7.494  -1.021 124.114  0.00  0.00    +0.000 A 
ATOM      4  C   UNL     1      -6.836  -1.087 122.910  0.00  0.00    +0.000 A 
ATOM      5  C   UNL     1      -5.976  -2.196 123.033  0.00  0.00    +0.000 A 
ATOM      6  N   UNL     1      -6.028  -2.754 124.246  0.00  0.00    +0.000 NA
ATOM      7  N   UNL     1      -6.994  -2.059 124.887  0.00  0.00    +0.000 N 
BRANCH   7   8
ATOM      8  C   UNL     1      -7.506  -2.487 126.129  0.00  0.00    +0.000 A 
ATOM      9  C   UNL     1      -8.600  -3.354 126.184  0.00  0.00    +0.000 A 
ATOM     10  C   UNL     1      -9.072  -3.771 127.433  0.00  0.00    +0.000 A 
ATOM     11  C   UNL     1      -8.441  -3.342 128.605  0.00  0.00    +0.000 A 
ATOM     12  C   UNL     1      -7.365  -2.457 128.539  0.00  0.00    +0.000 A 
ATOM     13  C   UNL     1      -6.893  -2.026 127.302  0.00  0.00    +0.000 A 
ENDBRANCH   7   8
ENDBRANCH   1   3
BRANCH   1  14
ATOM     14  S   UNL     1      -7.969   1.472 124.857  0.00  0.00    +0.000 S 
ATOM     15  O   UNL     1      -6.636   1.435 125.418  0.00  0.00    +0.000 OA
ATOM     16  O   UNL     1      -9.040   2.161 125.551  0.00  0.00    +0.000 OA
BRANCH  14  20
ATOM     17  C   UNL     1      -7.383   3.719 120.867  0.00  0.00    +0.000 A 
ATOM     18  C   UNL     1      -6.299   3.358 121.666  0.00  0.00    +0.000 A 
ATOM     19  C   UNL     1      -6.493   2.671 122.873  0.00  0.00    +0.000 A 
ATOM     20  C   UNL     1      -7.790   2.335 123.292  0.00  0.00    +0.000 A 
ATOM     21  C   UNL     1      -8.880   2.679 122.492  0.00  0.00    +0.000 A 
ATOM     22  C   UNL     1      -8.666   3.356 121.284  0.00  0.00    +0.000 A 
BRANCH  17  23
ATOM     23  N   UNL     1      -7.196   4.354 119.655  0.00  0.00    +0.000 N 
ATOM     24  H   UNL     1      -6.347   4.213 119.121  0.00  0.00    +0.000 HD
ATOM     25  H   UNL     1      -7.809   5.102 119.359  0.00  0.00    +0.000 HD
ENDBRANCH  17  23
ENDBRANCH  14  20
ENDBRANCH   1  14
TORSDOF 5
ENDMDL
MODEL 3
REMARK VINA RESULT:      -8.1      2.862      5.102
REMARK  Name = Sulfaphenazole
REMARK  5 active torsions:
REMARK  status: ('A' for Active; 'I' for Inactive)
REMARK    1  A    between atoms: N_1  and  C_2
REMARK    2  A    between atoms: C_5  and  S_8
REMARK    3  A    between atoms: S_8  and  N_11
REMARK    4  A    between atoms: N_11  and  C_12
REMARK    5  A    between atoms: N_16  and  C_17
REMARK                            x       y       z     vdW  Elec       q    Type
REMARK                         _______ _______ _______ _____ _____    ______ ____
ROOT
ATOM      1  N   UNL     1      -7.128   1.490 123.633  0.00  0.00    +0.000 N 
ATOM      2  H   UNL     1      -6.354   1.305 123.020  0.00  0.00    +0.000 HD
ENDROOT
BRANCH   1   3
ATOM      3  C   UNL     1      -8.354   0.922 123.279  0.00  0.00    +0.000 A 
ATOM      4  C   UNL     1      -9.522   1.587 122.994  0.00  0.00    +0.000 A 
ATOM      5  C   UNL     1     -10.435   0.573 122.645  0.00  0.00    +0.000 A 
ATOM      6  N   UNL     1      -9.876  -0.641 122.638  0.00  0.00    +0.000 NA
ATOM      7  N   UNL     1      -8.614  -0.426 123.073  0.00  0.00    +0.000 N 
BRANCH   7   8
ATOM      8  C   UNL     1      -7.762  -1.494 123.416  0.00  0.00    +0.000 A 
ATOM      9  C   UNL     1      -6.461  -1.556 122.908  0.00  0.00    +0.000 A 
ATOM     10  C   UNL     1      -5.637  -2.621 123.283  0.00  0.00    +0.000 A 
ATOM     11  C   UNL     1      -6.105  -3.597 124.170  0.00  0.00    +0.000 A 
ATOM     12  C   UNL     1      -7.413  -3.540 124.650  0.00  0.00    +0.000 A 
ATOM     13  C   UNL     1      -8.246  -2.489 124.276  0.00  0.00    +0.000 A 
ENDBRANCH   7   8
ENDBRANCH   1   3
BRANCH   1  14
ATOM     14  S   UNL     1      -6.836   1.990 125.162  0.00  0.00    +0.000 S 
ATOM     15  O   UNL     1      -8.014   2.673 125.652  0.00  0.00    +0.000 OA
ATOM     16  O   UNL     1      -5.535   2.628 125.233  0.00  0.00    +0.000 OA
BRANCH  14  20
ATOM     17  C   UNL     1      -6.587  -1.760 127.843  0.00  0.00    +0.000 A 
ATOM     18  C   UNL     1      -7.760  -1.012 127.743  0.00  0.00    +0.000 A 
ATOM     19  C   UNL     1      -7.822   0.122 126.920  0.00  0.00    +0.000 A 
ATOM     20  C   UNL     1      -6.695   0.518 126.181  0.00  0.00    +0.000 A 
ATOM     21  C   UNL     1      -5.523  -0.232 126.263  0.00  0.00    +0.000 A 
ATOM     22  C   UNL     1      -5.483  -1.368 127.083  0.00  0.00    +0.000 A 
BRANCH  17  23
ATOM     23  N   UNL     1      -6.535  -2.904 128.614  0.00  0.00    +0.000 N 
ATOM     24  H   UNL     1      -6.086  -3.743 128.269  0.00  0.00    +0.000 HD
ATOM     25  H   UNL     1      -7.091  -2.990 129.456  0.00  0.00    +0.000 HD
ENDBRANCH  17  23
ENDBRANCH  14  20
ENDBRANCH   1  14
TORSDOF 5
ENDMDL
MODEL 4
REMARK VINA RESULT:      -7.8      3.383      4.886
REMARK  Name = Sulfaphenazole
REMARK  5 active torsions:
REMARK  status: ('A' for Active; 'I' for Inactive)
REMARK    1  A    between atoms: N_1  and  C_2
REMARK    2  A    between atoms: C_5  and  S_8
REMARK    3  A    between atoms: S_8  and  N_11
REMARK    4  A    between atoms: N_11  and  C_12
REMARK    5  A    between atoms: N_16  and  C_17
REMARK                            x       y       z     vdW  Elec       q    Type
REMARK                         _______ _______ _______ _____ _____    ______ ____
ROOT
ATOM      1  N   UNL     1      -6.360  -1.304 127.685  0.00  0.00    +0.000 N 
ATOM      2  H   UNL     1      -5.435  -1.587 127.953  0.00  0.00    +0.000 HD
ENDROOT
BRANCH   1   3
ATOM      3  C   UNL     1      -7.311  -2.318 127.558  0.00  0.00    +0.000 A 
ATOM      4  C   UNL     1      -7.962  -2.974 128.574  0.00  0.00    +0.000 A 
ATOM      5  C   UNL     1      -8.849  -3.853 127.923  0.00  0.00    +0.000 A 
ATOM      6  N   UNL     1      -8.820  -3.720 126.593  0.00  0.00    +0.000 NA
ATOM      7  N   UNL     1      -7.842  -2.812 126.374  0.00  0.00    +0.000 N 
BRANCH   7   8
ATOM      8  C   UNL     1      -7.350  -2.560 125.078  0.00  0.00    +0.000 A 
ATOM      9  C   UNL     1      -8.205  -2.110 124.069  0.00  0.00    +0.000 A 
ATOM     10  C   UNL     1      -7.680  -1.854 122.799  0.00  0.00    +0.000 A 
ATOM     11  C   UNL     1      -6.313  -2.025 122.553  0.00  0.00    +0.000 A 
ATOM     12  C   UNL     1      -5.473  -2.498 123.561  0.00  0.00    +0.000 A 
ATOM     13  C   UNL     1      -5.987  -2.766 124.827  0.00  0.00    +0.000 A 
ENDBRANCH   7   8
ENDBRANCH   1   3
BRANCH   1  14
ATOM     14  S   UNL     1      -6.806   0.258 127.880  0.00  0.00    +0.000 S 
ATOM     15  O   UNL     1      -5.614   1.052 128.087  0.00  0.00    +0.000 OA
ATOM     16  O   UNL     1      -7.915   0.340 128.812  0.00  0.00    +0.000 OA
BRANCH  14  20
ATOM     17  C   UNL     1      -8.632   1.657 123.878  0.00  0.00    +0.000 A 
ATOM     18  C   UNL     1      -9.433   1.351 124.977  0.00  0.00    +0.000 A 
ATOM     19  C   UNL     1      -8.864   0.933 126.188  0.00  0.00    +0.000 A 
ATOM     20  C   UNL     1      -7.469   0.817 126.308  0.00  0.00    +0.000 A 
ATOM     21  C   UNL     1      -6.659   1.135 125.219  0.00  0.00    +0.000 A 
ATOM     22  C   UNL     1      -7.245   1.562 124.019  0.00  0.00    +0.000 A 
BRANCH  17  23
ATOM     23  N   UNL     1      -9.184   2.115 122.698  0.00  0.00    +0.000 N 
ATOM     24  H   UNL     1     -10.062   1.743 122.357  0.00  0.00    +0.000 HD
ATOM     25  H   UNL     1      -8.649   2.693 122.063  0.00  0.00    +0.000 HD
ENDBRANCH  17  23
ENDBRANCH  14  20
ENDBRANCH   1  14
TORSDOF 5
ENDMDL
MODEL 5
REMARK VINA RESULT:      -7.8      3.900      6.734
REMARK  Name = Sulfaphenazole
REMARK  5 active torsions:
REMARK  status: ('A' for Active; 'I' for Inactive)
REMARK    1  A    between atoms: N_1  and  C_2
REMARK    2  A    between atoms: C_5  and  S_8
REMARK    3  A    between atoms: S_8  and  N_11
REMARK    4  A    between atoms: N_11  and  C_12
REMARK    5  A    between atoms: N_16  and  C_17
REMARK                            x       y       z     vdW  Elec       q    Type
REMARK                         _______ _______ _______ _____ _____    ______ ____
ROOT
ATOM      1  N   UNL     1      -5.110  -0.224 126.575  0.00  0.00    +0.000 N 
ATOM      2  H   UNL     1      -4.648  -0.421 125.705  0.00  0.00    +0.000 HD
ENDROOT
BRANCH   1   3
ATOM      3  C   UNL     1      -5.342   1.121 126.868  0.00  0.00    +0.000 A 
ATOM      4  C   UNL     1      -4.622   1.918 127.725  0.00  0.00    +0.000 A 
ATOM      5  C   UNL     1      -5.221   3.188 127.622  0.00  0.00    +0.000 A 
ATOM      6  N   UNL     1      -6.204   3.220 126.717  0.00  0.00    +0.000 NA
ATOM      7  N   UNL     1      -6.304   1.941 126.293  0.00  0.00    +0.000 N 
BRANCH   7   8
ATOM      8  C   UNL     1      -7.380   1.514 125.489  0.00  0.00    +0.000 A 
ATOM      9  C   UNL     1      -7.202   1.299 124.120  0.00  0.00    +0.000 A 
ATOM     10  C   UNL     1      -8.287   0.860 123.356  0.00  0.00    +0.000 A 
ATOM     11  C   UNL     1      -9.525   0.620 123.961  0.00  0.00    +0.000 A 
ATOM     12  C   UNL     1      -9.699   0.862 125.324  0.00  0.00    +0.000 A 
ATOM     13  C   UNL     1      -8.628   1.308 126.093  0.00  0.00    +0.000 A 
ENDBRANCH   7   8
ENDBRANCH   1   3
BRANCH   1  14
ATOM     14  S   UNL     1      -5.953  -1.411 127.320  0.00  0.00    +0.000 S 
ATOM     15  O   UNL     1      -6.776  -0.811 128.348  0.00  0.00    +0.000 OA
ATOM     16  O   UNL     1      -5.071  -2.518 127.638  0.00  0.00    +0.000 OA
BRANCH  14  20
ATOM     17  C   UNL     1      -9.024  -3.130 124.332  0.00  0.00    +0.000 A 
ATOM     18  C   UNL     1      -9.356  -2.900 125.667  0.00  0.00    +0.000 A 
ATOM     19  C   UNL     1      -8.414  -2.371 126.561  0.00  0.00    +0.000 A 
ATOM     20  C   UNL     1      -7.117  -2.066 126.118  0.00  0.00    +0.000 A 
ATOM     21  C   UNL     1      -6.780  -2.279 124.782  0.00  0.00    +0.000 A 
ATOM     22  C   UNL     1      -7.737  -2.798 123.900  0.00  0.00    +0.000 A 
BRANCH  17  23
ATOM     23  N   UNL     1      -9.961  -3.605 123.436  0.00  0.00    +0.000 N 
ATOM     24  H   UNL     1     -10.457  -2.973 122.819  0.00  0.00    +0.000 HD
ATOM     25  H   UNL     1     -10.302  -4.556 123.495  0.00  0.00    +0.000 HD
ENDBRANCH  17  23
ENDBRANCH  14  20
ENDBRANCH   1  14
TORSDOF 5
ENDMDL
MODEL 6
REMARK VINA RESULT:      -7.7      8.928      9.978
REMARK  Name = Sulfaphenazole
REMARK  5 active torsions:
REMARK  status: ('A' for Active; 'I' for Inactive)
REMARK    1  A    between atoms: N_1  and  C_2
REMARK    2  A    between atoms: C_5  and  S_8
REMARK    3  A    between atoms: S_8  and  N_11
REMARK    4  A    between atoms: N_11  and  C_12
REMARK    5  A    between atoms: N_16  and  C_17
REMARK                            x       y       z     vdW  Elec       q    Type
REMARK                         _______ _______ _______ _____ _____    ______ ____
ROOT
ATOM      1  N   UNL     1     -10.197   4.823 131.756  0.00  0.00    +0.000 N 
ATOM      2  H   UNL     1     -10.839   4.445 132.428  0.00  0.00    +0.000 HD
ENDROOT
BRANCH   1   3
ATOM      3  C   UNL     1      -8.862   4.921 132.153  0.00  0.00    +0.000 A 
ATOM      4  C   UNL     1      -8.212   6.046 132.601  0.00  0.00    +0.000 A 
ATOM      5  C   UNL     1      -6.914   5.605 132.922  0.00  0.00    +0.000 A 
ATOM      6  N   UNL     1      -6.764   4.287 132.760  0.00  0.00    +0.000 NA
ATOM      7  N   UNL     1      -7.946   3.881 132.245  0.00  0.00    +0.000 N 
BRANCH   7   8
ATOM      8  C   UNL     1      -8.115   2.582 131.726  0.00  0.00    +0.000 A 
ATOM      9  C   UNL     1      -7.409   2.174 130.591  0.00  0.00    +0.000 A 
ATOM     10  C   UNL     1      -7.588   0.872 130.113  0.00  0.00    +0.000 A 
ATOM     11  C   UNL     1      -8.446  -0.011 130.777  0.00  0.00    +0.000 A 
ATOM     12  C   UNL     1      -9.165   0.415 131.894  0.00  0.00    +0.000 A 
ATOM     13  C   UNL     1      -9.002   1.711 132.373  0.00  0.00    +0.000 A 
ENDBRANCH   7   8
ENDBRANCH   1   3
BRANCH   1  14
ATOM     14  S   UNL     1     -10.613   4.841 130.174  0.00  0.00    +0.000 S 
ATOM     15  O   UNL     1     -11.696   3.901 129.975  0.00  0.00    +0.000 OA
ATOM     16  O   UNL     1      -9.421   4.774 129.350  0.00  0.00    +0.000 OA
BRANCH  14  20
ATOM     17  C   UNL     1     -12.547   8.960 129.398  0.00  0.00    +0.000 A 
ATOM     18  C   UNL     1     -12.848   8.217 130.540  0.00  0.00    +0.000 A 
ATOM     19  C   UNL     1     -12.248   6.970 130.764  0.00  0.00    +0.000 A 
ATOM     20  C   UNL     1     -11.331   6.452 129.835  0.00  0.00    +0.000 A 
ATOM     21  C   UNL     1     -11.012   7.194 128.698  0.00  0.00    +0.000 A 
ATOM     22  C   UNL     1     -11.614   8.444 128.496  0.00  0.00    +0.000 A 
BRANCH  17  23
ATOM     23  N   UNL     1     -13.099  10.210 129.195  0.00  0.00    +0.000 N 
ATOM     24  H   UNL     1     -12.750  11.018 129.695  0.00  0.00    +0.000 HD
ATOM     25  H   UNL     1     -13.968  10.319 128.687  0.00  0.00    +0.000 HD
ENDBRANCH  17  23
ENDBRANCH  14  20
ENDBRANCH   1  14
TORSDOF 5
ENDMDL
MODEL 7
REMARK VINA RESULT:      -7.7      2.953      3.835
REMARK  Name = Sulfaphenazole
REMARK  5 active torsions:
REMARK  status: ('A' for Active; 'I' for Inactive)
REMARK    1  A    between atoms: N_1  and  C_2
REMARK    2  A    between atoms: C_5  and  S_8
REMARK    3  A    between atoms: S_8  and  N_11
REMARK    4  A    between atoms: N_11  and  C_12
REMARK    5  A    between atoms: N_16  and  C_17
REMARK                            x       y       z     vdW  Elec       q    Type
REMARK                         _______ _______ _______ _____ _____    ______ ____
ROOT
ATOM      1  N   UNL     1      -7.582   1.937 123.987  0.00  0.00    +0.000 N 
ATOM      2  H   UNL     1      -6.658   1.798 123.622  0.00  0.00    +0.000 HD
ENDROOT
BRANCH   1   3
ATOM      3  C   UNL     1      -8.584   1.104 123.485  0.00  0.00    +0.000 A 
ATOM      4  C   UNL     1      -9.829   1.481 123.043  0.00  0.00    +0.000 A 
ATOM      5  C   UNL     1     -10.425   0.287 122.592  0.00  0.00    +0.000 A 
ATOM      6  N   UNL     1      -9.601  -0.761 122.674  0.00  0.00    +0.000 NA
ATOM      7  N   UNL     1      -8.492  -0.264 123.265  0.00  0.00    +0.000 N 
BRANCH   7   8
ATOM      8  C   UNL     1      -7.464  -1.108 123.729  0.00  0.00    +0.000 A 
ATOM      9  C   UNL     1      -7.325  -1.374 125.094  0.00  0.00    +0.000 A 
ATOM     10  C   UNL     1      -6.305  -2.230 125.518  0.00  0.00    +0.000 A 
ATOM     11  C   UNL     1      -5.451  -2.827 124.584  0.00  0.00    +0.000 A 
ATOM     12  C   UNL     1      -5.582  -2.535 123.227  0.00  0.00    +0.000 A 
ATOM     13  C   UNL     1      -6.588  -1.676 122.793  0.00  0.00    +0.000 A 
ENDBRANCH   7   8
ENDBRANCH   1   3
BRANCH   1  14
ATOM     14  S   UNL     1      -7.771   2.729 125.406  0.00  0.00    +0.000 S 
ATOM     15  O   UNL     1      -8.236   1.785 126.399  0.00  0.00    +0.000 OA
ATOM     16  O   UNL     1      -8.484   3.973 125.184  0.00  0.00    +0.000 OA
BRANCH  14  20
ATOM     17  C   UNL     1      -3.531   3.854 126.844  0.00  0.00    +0.000 A 
ATOM     18  C   UNL     1      -3.848   2.552 126.455  0.00  0.00    +0.000 A 
ATOM     19  C   UNL     1      -5.139   2.228 126.015  0.00  0.00    +0.000 A 
ATOM     20  C   UNL     1      -6.134   3.217 125.960  0.00  0.00    +0.000 A 
ATOM     21  C   UNL     1      -5.823   4.524 126.333  0.00  0.00    +0.000 A 
ATOM     22  C   UNL     1      -4.524   4.833 126.760  0.00  0.00    +0.000 A 
BRANCH  17  23
ATOM     23  N   UNL     1      -2.249   4.190 127.233  0.00  0.00    +0.000 N 
ATOM     24  H   UNL     1      -1.856   5.093 127.000  0.00  0.00    +0.000 HD
ATOM     25  H   UNL     1      -1.616   3.489 127.598  0.00  0.00    +0.000 HD
ENDBRANCH  17  23
ENDBRANCH  14  20
ENDBRANCH   1  14
TORSDOF 5
ENDMDL
MODEL 8
REMARK VINA RESULT:      -7.6      3.997      5.512
REMARK  Name = Sulfaphenazole
REMARK  5 active torsions:
REMARK  status: ('A' for Active; 'I' for Inactive)
REMARK    1  A    between atoms: N_1  and  C_2
REMARK    2  A    between atoms: C_5  and  S_8
REMARK    3  A    between atoms: S_8  and  N_11
REMARK    4  A    between atoms: N_11  and  C_12
REMARK    5  A    between atoms: N_16  and  C_17
REMARK                            x       y       z     vdW  Elec       q    Type
REMARK                         _______ _______ _______ _____ _____    ______ ____
ROOT
ATOM      1  N   UNL     1      -8.902  -1.101 124.049  0.00  0.00    +0.000 N 
ATOM      2  H   UNL     1      -9.702  -1.613 123.724  0.00  0.00    +0.000 HD
ENDROOT
BRANCH   1   3
ATOM      3  C   UNL     1      -7.667  -1.747 123.954  0.00  0.00    +0.000 A 
ATOM      4  C   UNL     1      -6.859  -1.829 122.846  0.00  0.00    +0.000 A 
ATOM      5  C   UNL     1      -5.718  -2.528 123.286  0.00  0.00    +0.000 A 
ATOM      6  N   UNL     1      -5.761  -2.811 124.591  0.00  0.00    +0.000 NA
ATOM      7  N   UNL     1      -6.977  -2.371 124.984  0.00  0.00    +0.000 N 
BRANCH   7   8
ATOM      8  C   UNL     1      -7.496  -2.685 126.256  0.00  0.00    +0.000 A 
ATOM      9  C   UNL     1      -8.584  -3.553 126.385  0.00  0.00    +0.000 A 
ATOM     10  C   UNL     1      -9.063  -3.855 127.663  0.00  0.00    +0.000 A 
ATOM     11  C   UNL     1      -8.445  -3.312 128.794  0.00  0.00    +0.000 A 
ATOM     12  C   UNL     1      -7.376  -2.427 128.654  0.00  0.00    +0.000 A 
ATOM     13  C   UNL     1      -6.897  -2.111 127.386  0.00  0.00    +0.000 A 
ENDBRANCH   7   8
ENDBRANCH   1   3
BRANCH   1  14
ATOM     14  S   UNL     1      -8.998   0.525 124.199  0.00  0.00    +0.000 S 
ATOM     15  O   UNL     1     -10.383   0.882 124.423  0.00  0.00    +0.000 OA
ATOM     16  O   UNL     1      -8.236   1.163 123.143  0.00  0.00    +0.000 OA
BRANCH  14  20
ATOM     17  C   UNL     1      -6.712   1.638 128.052  0.00  0.00    +0.000 A 
ATOM     18  C   UNL     1      -6.070   1.577 126.815  0.00  0.00    +0.000 A 
ATOM     19  C   UNL     1      -6.780   1.243 125.653  0.00  0.00    +0.000 A 
ATOM     20  C   UNL     1      -8.154   0.965 125.722  0.00  0.00    +0.000 A 
ATOM     21  C   UNL     1      -8.808   1.038 126.952  0.00  0.00    +0.000 A 
ATOM     22  C   UNL     1      -8.085   1.384 128.102  0.00  0.00    +0.000 A 
BRANCH  17  23
ATOM     23  N   UNL     1      -6.029   2.013 129.192  0.00  0.00    +0.000 N 
ATOM     24  H   UNL     1      -5.875   1.354 129.946  0.00  0.00    +0.000 HD
ATOM     25  H   UNL     1      -5.825   2.987 129.380  0.00  0.00    +0.000 HD
ENDBRANCH  17  23
ENDBRANCH  14  20
ENDBRANCH   1  14
TORSDOF 5
ENDMDL
MODEL 9
REMARK VINA RESULT:      -7.6      3.929      5.521
REMARK  Name = Sulfaphenazole
REMARK  5 active torsions:
REMARK  status: ('A' for Active; 'I' for Inactive)
REMARK    1  A    between atoms: N_1  and  C_2
REMARK    2  A    between atoms: C_5  and  S_8
REMARK    3  A    between atoms: S_8  and  N_11
REMARK    4  A    between atoms: N_11  and  C_12
REMARK    5  A    between atoms: N_16  and  C_17
REMARK                            x       y       z     vdW  Elec       q    Type
REMARK                         _______ _______ _______ _____ _____    ______ ____
ROOT
ATOM      1  N   UNL     1      -9.336  -2.110 125.985  0.00  0.00    +0.000 N 
ATOM      2  H   UNL     1     -10.334  -2.125 126.089  0.00  0.00    +0.000 HD
ENDROOT
BRANCH   1   3
ATOM      3  C   UNL     1      -8.587  -2.520 127.090  0.00  0.00    +0.000 A 
ATOM      4  C   UNL     1      -8.739  -3.682 127.808  0.00  0.00    +0.000 A 
ATOM      5  C   UNL     1      -7.713  -3.644 128.772  0.00  0.00    +0.000 A 
ATOM      6  N   UNL     1      -6.922  -2.575 128.638  0.00  0.00    +0.000 NA
ATOM      7  N   UNL     1      -7.490  -1.867 127.636  0.00  0.00    +0.000 N 
BRANCH   7   8
ATOM      8  C   UNL     1      -7.077  -0.554 127.336  0.00  0.00    +0.000 A 
ATOM      9  C   UNL     1      -5.826  -0.318 126.759  0.00  0.00    +0.000 A 
ATOM     10  C   UNL     1      -5.455   0.996 126.459  0.00  0.00    +0.000 A 
ATOM     11  C   UNL     1      -6.334   2.053 126.715  0.00  0.00    +0.000 A 
ATOM     12  C   UNL     1      -7.569   1.810 127.315  0.00  0.00    +0.000 A 
ATOM     13  C   UNL     1      -7.946   0.506 127.627  0.00  0.00    +0.000 A 
ENDBRANCH   7   8
ENDBRANCH   1   3
BRANCH   1  14
ATOM     14  S   UNL     1      -8.688  -2.087 124.483  0.00  0.00    +0.000 S 
ATOM     15  O   UNL     1      -9.674  -2.592 123.552  0.00  0.00    +0.000 OA
ATOM     16  O   UNL     1      -7.351  -2.650 124.515  0.00  0.00    +0.000 OA
BRANCH  14  20
ATOM     17  C   UNL     1      -7.980   2.319 123.305  0.00  0.00    +0.000 A 
ATOM     18  C   UNL     1      -7.017   1.338 123.068  0.00  0.00    +0.000 A 
ATOM     19  C   UNL     1      -7.250   0.002 123.427  0.00  0.00    +0.000 A 
ATOM     20  C   UNL     1      -8.463  -0.364 124.032  0.00  0.00    +0.000 A 
ATOM     21  C   UNL     1      -9.437   0.608 124.259  0.00  0.00    +0.000 A 
ATOM     22  C   UNL     1      -9.192   1.936 123.884  0.00  0.00    +0.000 A 
BRANCH  17  23
ATOM     23  N   UNL     1      -7.776   3.627 122.911  0.00  0.00    +0.000 N 
ATOM     24  H   UNL     1      -8.474   4.121 122.369  0.00  0.00    +0.000 HD
ATOM     25  H   UNL     1      -6.865   4.060 122.996  0.00  0.00    +0.000 HD
ENDBRANCH  17  23
ENDBRANCH  14  20
ENDBRANCH   1  14
TORSDOF 5
ENDMDL
