MODEL 1
REMARK VINA RESULT:      -7.3      0.000      0.000
REMARK  Name = Sulfamerazine
REMARK  4 active torsions:
REMARK  status: ('A' for Active; 'I' for Inactive)
REMARK    1  A    between atoms: C_1  and  C_2
REMARK    2  A    between atoms: N_5  and  S_6
REMARK    3  A    between atoms: S_6  and  C_9
REMARK    4  A    between atoms: C_12  and  N_13
REMARK                            x       y       z     vdW  Elec       q    Type
REMARK                         _______ _______ _______ _____ _____    ______ ____
ROOT
ATOM      1  S   UNL     1      -7.973   2.708 124.357  0.00  0.00    +0.000 S 
ATOM      2  O   UNL     1      -8.755   3.782 124.944  0.00  0.00    +0.000 OA
ATOM      3  O   UNL     1      -6.675   2.336 124.874  0.00  0.00    +0.000 OA
ENDROOT
BRANCH   1   8
ATOM      4  C   UNL     1      -9.644  -3.255 123.248  0.00  0.00    +0.000 C 
ATOM      5  C   UNL     1      -8.722  -2.069 123.351  0.00  0.00    +0.000 A 
ATOM      6  N   UNL     1      -9.228  -0.883 123.781  0.00  0.00    +0.000 NA
ATOM      7  C   UNL     1      -8.359   0.143 123.841  0.00  0.00    +0.000 A 
ATOM      8  N   UNL     1      -8.921   1.350 124.269  0.00  0.00    +0.000 N 
ATOM      9  N   UNL     1      -7.067   0.087 123.535  0.00  0.00    +0.000 NA
ATOM     10  C   UNL     1      -6.608  -1.101 123.111  0.00  0.00    +0.000 A 
ATOM     11  C   UNL     1      -7.395  -2.222 122.994  0.00  0.00    +0.000 A 
ATOM     12  H   UNL     1      -9.913   1.321 124.438  0.00  0.00    +0.000 HD
ENDBRANCH   1   8
BRANCH   1  13
ATOM     13  C   UNL     1      -7.658   3.247 122.670  0.00  0.00    +0.000 A 
ATOM     14  C   UNL     1      -6.383   3.557 122.202  0.00  0.00    +0.000 A 
ATOM     15  C   UNL     1      -6.211   3.973 120.874  0.00  0.00    +0.000 A 
ATOM     16  C   UNL     1      -7.289   4.058 119.988  0.00  0.00    +0.000 A 
ATOM     17  C   UNL     1      -8.565   3.755 120.466  0.00  0.00    +0.000 A 
ATOM     18  C   UNL     1      -8.754   3.350 121.797  0.00  0.00    +0.000 A 
BRANCH  16  19
ATOM     19  N   UNL     1      -7.103   4.532 118.700  0.00  0.00    +0.000 N 
ATOM     20  H   UNL     1      -7.677   4.186 117.943  0.00  0.00    +0.000 HD
ATOM     21  H   UNL     1      -6.584   5.385 118.540  0.00  0.00    +0.000 HD
ENDBRANCH  16  19
ENDBRANCH   1  13
TORSDOF 3
ENDMDL
MODEL 2
REMARK VINA RESULT:      -7.3      1.304      1.685
REMARK  Name = Sulfamerazine
REMARK  4 active torsions:
REMARK  status: ('A' for Active; 'I' for Inactive)
REMARK    1  A    between atoms: C_1  and  C_2
REMARK    2  A    between atoms: N_5  and  S_6
REMARK    3  A    between atoms: S_6  and  C_9
REMARK    4  A    between atoms: C_12  and  N_13
REMARK                            x       y       z     vdW  Elec       q    Type
REMARK                         _______ _______ _______ _____ _____    ______ ____
ROOT
ATOM      1  S   UNL     1      -7.376   2.651 123.534  0.00  0.00    +0.000 S 
ATOM      2  O   UNL     1      -8.555   3.392 123.945  0.00  0.00    +0.000 OA
ATOM      3  O   UNL     1      -6.217   2.521 124.388  0.00  0.00    +0.000 OA
ENDROOT
BRANCH   1   8
ATOM      4  C   UNL     1      -9.326  -3.321 123.890  0.00  0.00    +0.000 C 
ATOM      5  C   UNL     1      -8.954  -1.951 124.391  0.00  0.00    +0.000 A 
ATOM      6  N   UNL     1      -8.579  -1.004 123.491  0.00  0.00    +0.000 NA
ATOM      7  C   UNL     1      -8.247   0.197 123.999  0.00  0.00    +0.000 A 
ATOM      8  N   UNL     1      -7.848   1.137 123.044  0.00  0.00    +0.000 N 
ATOM      9  N   UNL     1      -8.271   0.530 125.286  0.00  0.00    +0.000 NA
ATOM     10  C   UNL     1      -8.643  -0.435 126.142  0.00  0.00    +0.000 A 
ATOM     11  C   UNL     1      -8.995  -1.704 125.751  0.00  0.00    +0.000 A 
ATOM     12  H   UNL     1      -7.814   0.794 122.099  0.00  0.00    +0.000 HD
ENDBRANCH   1   8
BRANCH   1  13
ATOM     13  C   UNL     1      -6.780   3.519 122.076  0.00  0.00    +0.000 A 
ATOM     14  C   UNL     1      -5.515   4.099 122.009  0.00  0.00    +0.000 A 
ATOM     15  C   UNL     1      -5.116   4.764 120.840  0.00  0.00    +0.000 A 
ATOM     16  C   UNL     1      -5.947   4.836 119.719  0.00  0.00    +0.000 A 
ATOM     17  C   UNL     1      -7.216   4.261 119.797  0.00  0.00    +0.000 A 
ATOM     18  C   UNL     1      -7.635   3.604 120.965  0.00  0.00    +0.000 A 
BRANCH  16  19
ATOM     19  N   UNL     1      -5.555   5.552 118.600  0.00  0.00    +0.000 N 
ATOM     20  H   UNL     1      -6.208   5.712 117.844  0.00  0.00    +0.000 HD
ATOM     21  H   UNL     1      -4.722   6.125 118.626  0.00  0.00    +0.000 HD
ENDBRANCH  16  19
ENDBRANCH   1  13
TORSDOF 3
ENDMDL
MODEL 3
REMARK VINA RESULT:      -6.8      8.933     10.756
REMARK  Name = Sulfamerazine
REMARK  4 active torsions:
REMARK  status: ('A' for Active; 'I' for Inactive)
REMARK    1  A    between atoms: C_1  and  C_2
REMARK    2  A    between atoms: N_5  and  S_6
REMARK    3  A    between atoms: S_6  and  C_9
REMARK    4  A    between atoms: C_12  and  N_13
REMARK                            x       y       z     vdW  Elec       q    Type
REMARK                         _______ _______ _______ _____ _____    ______ ____
ROOT
ATOM      1  S   UNL     1      -9.667   5.564 129.583  0.00  0.00    +0.000 S 
ATOM      2  O   UNL     1     -10.596   4.534 130.012  0.00  0.00    +0.000 OA
ATOM      3  O   UNL     1      -9.091   5.572 128.257  0.00  0.00    +0.000 OA
ENDROOT
BRANCH   1   8
ATOM      4  C   UNL     1     -13.623  10.432 129.097  0.00  0.00    +0.000 C 
ATOM      5  C   UNL     1     -13.077   9.056 128.824  0.00  0.00    +0.000 A 
ATOM      6  N   UNL     1     -11.960   8.653 129.484  0.00  0.00    +0.000 NA
ATOM      7  C   UNL     1     -11.512   7.418 129.191  0.00  0.00    +0.000 A 
ATOM      8  N   UNL     1     -10.350   7.047 129.875  0.00  0.00    +0.000 N 
ATOM      9  N   UNL     1     -12.073   6.571 128.334  0.00  0.00    +0.000 NA
ATOM     10  C   UNL     1     -13.172   7.010 127.699  0.00  0.00    +0.000 A 
ATOM     11  C   UNL     1     -13.722   8.253 127.902  0.00  0.00    +0.000 A 
ATOM     12  H   UNL     1      -9.963   7.760 130.470  0.00  0.00    +0.000 HD
ENDBRANCH   1   8
BRANCH   1  13
ATOM     13  C   UNL     1      -8.262   5.398 130.694  0.00  0.00    +0.000 A 
ATOM     14  C   UNL     1      -7.873   4.177 131.240  0.00  0.00    +0.000 A 
ATOM     15  C   UNL     1      -6.768   4.121 132.102  0.00  0.00    +0.000 A 
ATOM     16  C   UNL     1      -6.020   5.260 132.408  0.00  0.00    +0.000 A 
ATOM     17  C   UNL     1      -6.421   6.482 131.865  0.00  0.00    +0.000 A 
ATOM     18  C   UNL     1      -7.533   6.556 131.012  0.00  0.00    +0.000 A 
BRANCH  16  19
ATOM     19  N   UNL     1      -4.972   5.190 133.311  0.00  0.00    +0.000 N 
ATOM     20  H   UNL     1      -4.975   4.490 134.040  0.00  0.00    +0.000 HD
ATOM     21  H   UNL     1      -4.095   5.653 133.112  0.00  0.00    +0.000 HD
ENDBRANCH  16  19
ENDBRANCH   1  13
TORSDOF 3
ENDMDL
MODEL 4
REMARK VINA RESULT:      -6.7      9.322     10.447
REMARK  Name = Sulfamerazine
REMARK  4 active torsions:
REMARK  status: ('A' for Active; 'I' for Inactive)
REMARK    1  A    between atoms: C_1  and  C_2
REMARK    2  A    between atoms: N_5  and  S_6
REMARK    3  A    between atoms: S_6  and  C_9
REMARK    4  A    between atoms: C_12  and  N_13
REMARK                            x       y       z     vdW  Elec       q    Type
REMARK                         _______ _______ _______ _____ _____    ______ ____
ROOT
ATOM      1  S   UNL     1     -10.401   5.689 129.926  0.00  0.00    +0.000 S 
ATOM      2  O   UNL     1      -9.374   5.628 128.903  0.00  0.00    +0.000 OA
ATOM      3  O   UNL     1     -11.320   4.596 130.154  0.00  0.00    +0.000 OA
ENDROOT
BRANCH   1   8
ATOM      4  C   UNL     1      -7.466   5.007 135.449  0.00  0.00    +0.000 C 
ATOM      5  C   UNL     1      -8.056   4.583 134.131  0.00  0.00    +0.000 A 
ATOM      6  N   UNL     1      -8.599   5.531 133.322  0.00  0.00    +0.000 NA
ATOM      7  C   UNL     1      -9.122   5.092 132.163  0.00  0.00    +0.000 A 
ATOM      8  N   UNL     1      -9.688   6.094 131.368  0.00  0.00    +0.000 N 
ATOM      9  N   UNL     1      -9.136   3.830 131.745  0.00  0.00    +0.000 NA
ATOM     10  C   UNL     1      -8.594   2.924 132.575  0.00  0.00    +0.000 A 
ATOM     11  C   UNL     1      -8.039   3.243 133.791  0.00  0.00    +0.000 A 
ATOM     12  H   UNL     1      -9.677   7.014 131.774  0.00  0.00    +0.000 HD
ENDBRANCH   1   8
BRANCH   1  13
ATOM     13  C   UNL     1     -11.443   7.072 129.441  0.00  0.00    +0.000 A 
ATOM     14  C   UNL     1     -11.637   7.440 128.112  0.00  0.00    +0.000 A 
ATOM     15  C   UNL     1     -12.462   8.533 127.806  0.00  0.00    +0.000 A 
ATOM     16  C   UNL     1     -13.125   9.252 128.804  0.00  0.00    +0.000 A 
ATOM     17  C   UNL     1     -12.918   8.884 130.134  0.00  0.00    +0.000 A 
ATOM     18  C   UNL     1     -12.084   7.801 130.457  0.00  0.00    +0.000 A 
BRANCH  16  19
ATOM     19  N   UNL     1     -13.883  10.365 128.481  0.00  0.00    +0.000 N 
ATOM     20  H   UNL     1     -13.551  11.023 127.789  0.00  0.00    +0.000 HD
ATOM     21  H   UNL     1     -14.861  10.407 128.733  0.00  0.00    +0.000 HD
ENDBRANCH  16  19
ENDBRANCH   1  13
TORSDOF 3
ENDMDL
MODEL 5
REMARK VINA RESULT:      -6.7      1.961      5.786
REMARK  Name = Sulfamerazine
REMARK  4 active torsions:
REMARK  status: ('A' for Active; 'I' for Inactive)
REMARK    1  A    between atoms: C_1  and  C_2
REMARK    2  A    between atoms: N_5  and  S_6
REMARK    3  A    between atoms: S_6  and  C_9
REMARK    4  A    between atoms: C_12  and  N_13
REMARK                            x       y       z     vdW  Elec       q    Type
REMARK                         _______ _______ _______ _____ _____    ______ ____
ROOT
ATOM      1  S   UNL     1      -9.899   1.531 124.047  0.00  0.00    +0.000 S 
ATOM      2  O   UNL     1      -9.365   2.298 125.158  0.00  0.00    +0.000 OA
ATOM      3  O   UNL     1     -11.313   1.262 123.912  0.00  0.00    +0.000 OA
ENDROOT
BRANCH   1   8
ATOM      4  C   UNL     1      -6.101   4.538 120.032  0.00  0.00    +0.000 C 
ATOM      5  C   UNL     1      -6.526   3.909 121.331  0.00  0.00    +0.000 A 
ATOM      6  N   UNL     1      -7.747   3.315 121.402  0.00  0.00    +0.000 NA
ATOM      7  C   UNL     1      -8.077   2.781 122.592  0.00  0.00    +0.000 A 
ATOM      8  N   UNL     1      -9.348   2.197 122.631  0.00  0.00    +0.000 N 
ATOM      9  N   UNL     1      -7.313   2.772 123.680  0.00  0.00    +0.000 NA
ATOM     10  C   UNL     1      -6.117   3.372 123.569  0.00  0.00    +0.000 A 
ATOM     11  C   UNL     1      -5.668   3.965 122.413  0.00  0.00    +0.000 A 
ATOM     12  H   UNL     1      -9.881   2.285 121.782  0.00  0.00    +0.000 HD
ENDBRANCH   1   8
BRANCH   1  13
ATOM     13  C   UNL     1      -9.135  -0.089 124.205  0.00  0.00    +0.000 A 
ATOM     14  C   UNL     1      -8.582  -0.549 125.398  0.00  0.00    +0.000 A 
ATOM     15  C   UNL     1      -8.000  -1.824 125.449  0.00  0.00    +0.000 A 
ATOM     16  C   UNL     1      -7.984  -2.667 124.335  0.00  0.00    +0.000 A 
ATOM     17  C   UNL     1      -8.531  -2.196 123.140  0.00  0.00    +0.000 A 
ATOM     18  C   UNL     1      -9.105  -0.917 123.070  0.00  0.00    +0.000 A 
BRANCH  16  19
ATOM     19  N   UNL     1      -7.347  -3.896 124.393  0.00  0.00    +0.000 N 
ATOM     20  H   UNL     1      -6.736  -4.115 125.167  0.00  0.00    +0.000 HD
ATOM     21  H   UNL     1      -7.668  -4.664 123.819  0.00  0.00    +0.000 HD
ENDBRANCH  16  19
ENDBRANCH   1  13
TORSDOF 3
ENDMDL
MODEL 6
REMARK VINA RESULT:      -6.6      8.759      9.569
REMARK  Name = Sulfamerazine
REMARK  4 active torsions:
REMARK  status: ('A' for Active; 'I' for Inactive)
REMARK    1  A    between atoms: C_1  and  C_2
REMARK    2  A    between atoms: N_5  and  S_6
REMARK    3  A    between atoms: S_6  and  C_9
REMARK    4  A    between atoms: C_12  and  N_13
REMARK                            x       y       z     vdW  Elec       q    Type
REMARK                         _______ _______ _______ _____ _____    ______ ____
ROOT
ATOM      1  S   UNL     1      -9.204   6.237 131.099  0.00  0.00    +0.000 S 
ATOM      2  O   UNL     1      -9.417   6.539 132.503  0.00  0.00    +0.000 OA
ATOM      3  O   UNL     1      -7.956   6.536 130.432  0.00  0.00    +0.000 OA
ENDROOT
BRANCH   1   8
ATOM      4  C   UNL     1      -8.999  -0.029 131.625  0.00  0.00    +0.000 C 
ATOM      5  C   UNL     1      -8.650   1.401 131.939  0.00  0.00    +0.000 A 
ATOM      6  N   UNL     1      -9.282   2.393 131.258  0.00  0.00    +0.000 NA
ATOM      7  C   UNL     1      -8.921   3.651 131.574  0.00  0.00    +0.000 A 
ATOM      8  N   UNL     1      -9.578   4.642 130.839  0.00  0.00    +0.000 N 
ATOM      9  N   UNL     1      -8.023   3.994 132.492  0.00  0.00    +0.000 NA
ATOM     10  C   UNL     1      -7.419   2.984 133.138  0.00  0.00    +0.000 A 
ATOM     11  C   UNL     1      -7.691   1.658 132.900  0.00  0.00    +0.000 A 
ATOM     12  H   UNL     1     -10.208   4.300 130.133  0.00  0.00    +0.000 HD
ENDBRANCH   1   8
BRANCH   1  13
ATOM     13  C   UNL     1     -10.435   7.221 130.232  0.00  0.00    +0.000 A 
ATOM     14  C   UNL     1     -10.171   7.869 129.028  0.00  0.00    +0.000 A 
ATOM     15  C   UNL     1     -11.179   8.622 128.407  0.00  0.00    +0.000 A 
ATOM     16  C   UNL     1     -12.462   8.717 128.952  0.00  0.00    +0.000 A 
ATOM     17  C   UNL     1     -12.717   8.073 130.164  0.00  0.00    +0.000 A 
ATOM     18  C   UNL     1     -11.714   7.327 130.804  0.00  0.00    +0.000 A 
BRANCH  16  19
ATOM     19  N   UNL     1     -13.421   9.517 128.354  0.00  0.00    +0.000 N 
ATOM     20  H   UNL     1     -14.399   9.264 128.404  0.00  0.00    +0.000 HD
ATOM     21  H   UNL     1     -13.199  10.466 128.085  0.00  0.00    +0.000 HD
ENDBRANCH  16  19
ENDBRANCH   1  13
TORSDOF 3
ENDMDL
MODEL 7
REMARK VINA RESULT:      -6.6      9.923     10.748
REMARK  Name = Sulfamerazine
REMARK  4 active torsions:
REMARK  status: ('A' for Active; 'I' for Inactive)
REMARK    1  A    between atoms: C_1  and  C_2
REMARK    2  A    between atoms: N_5  and  S_6
REMARK    3  A    between atoms: S_6  and  C_9
REMARK    4  A    between atoms: C_12  and  N_13
REMARK                            x       y       z     vdW  Elec       q    Type
REMARK                         _______ _______ _______ _____ _____    ______ ____
ROOT
ATOM      1  S   UNL     1      -9.301   6.262 131.120  0.00  0.00    +0.000 S 
ATOM      2  O   UNL     1      -9.354   4.945 130.511  0.00  0.00    +0.000 OA
ATOM      3  O   UNL     1      -9.545   6.463 132.531  0.00  0.00    +0.000 OA
ENDROOT
BRANCH   1   8
ATOM      4  C   UNL     1      -3.145   7.556 131.228  0.00  0.00    +0.000 C 
ATOM      5  C   UNL     1      -4.419   6.843 131.596  0.00  0.00    +0.000 A 
ATOM      6  N   UNL     1      -5.575   7.213 130.984  0.00  0.00    +0.000 NA
ATOM      7  C   UNL     1      -6.683   6.548 131.362  0.00  0.00    +0.000 A 
ATOM      8  N   UNL     1      -7.854   6.970 130.725  0.00  0.00    +0.000 N 
ATOM      9  N   UNL     1      -6.734   5.567 132.257  0.00  0.00    +0.000 NA
ATOM     10  C   UNL     1      -5.571   5.235 132.841  0.00  0.00    +0.000 A 
ATOM     11  C   UNL     1      -4.374   5.845 132.552  0.00  0.00    +0.000 A 
ATOM     12  H   UNL     1      -7.739   7.746 130.095  0.00  0.00    +0.000 HD
ENDBRANCH   1   8
BRANCH   1  13
ATOM     13  C   UNL     1     -10.595   7.197 130.292  0.00  0.00    +0.000 A 
ATOM     14  C   UNL     1     -11.915   7.213 130.735  0.00  0.00    +0.000 A 
ATOM     15  C   UNL     1     -12.874   7.963 130.038  0.00  0.00    +0.000 A 
ATOM     16  C   UNL     1     -12.534   8.726 128.918  0.00  0.00    +0.000 A 
ATOM     17  C   UNL     1     -11.211   8.698 128.474  0.00  0.00    +0.000 A 
ATOM     18  C   UNL     1     -10.243   7.940 129.153  0.00  0.00    +0.000 A 
BRANCH  16  19
ATOM     19  N   UNL     1     -13.510   9.407 128.210  0.00  0.00    +0.000 N 
ATOM     20  H   UNL     1     -14.487   9.189 128.352  0.00  0.00    +0.000 HD
ATOM     21  H   UNL     1     -13.289  10.278 127.745  0.00  0.00    +0.000 HD
ENDBRANCH  16  19
ENDBRANCH   1  13
TORSDOF 3
ENDMDL
MODEL 8
REMARK VINA RESULT:      -6.3      8.211      9.401
REMARK  Name = Sulfamerazine
REMARK  4 active torsions:
REMARK  status: ('A' for Active; 'I' for Inactive)
REMARK    1  A    between atoms: C_1  and  C_2
REMARK    2  A    between atoms: N_5  and  S_6
REMARK    3  A    between atoms: S_6  and  C_9
REMARK    4  A    between atoms: C_12  and  N_13
REMARK                            x       y       z     vdW  Elec       q    Type
REMARK                         _______ _______ _______ _____ _____    ______ ____
ROOT
ATOM      1  S   UNL     1     -10.390   5.421 130.469  0.00  0.00    +0.000 S 
ATOM      2  O   UNL     1     -11.193   4.313 129.985  0.00  0.00    +0.000 OA
ATOM      3  O   UNL     1     -10.088   5.592 131.872  0.00  0.00    +0.000 OA
ENDROOT
BRANCH   1   8
ATOM      4  C   UNL     1      -4.536   3.962 128.683  0.00  0.00    +0.000 C 
ATOM      5  C   UNL     1      -5.817   3.846 129.465  0.00  0.00    +0.000 A 
ATOM      6  N   UNL     1      -6.837   4.698 129.180  0.00  0.00    +0.000 NA
ATOM      7  C   UNL     1      -7.952   4.554 129.920  0.00  0.00    +0.000 A 
ATOM      8  N   UNL     1      -8.971   5.461 129.610  0.00  0.00    +0.000 N 
ATOM      9  N   UNL     1      -8.138   3.652 130.878  0.00  0.00    +0.000 NA
ATOM     10  C   UNL     1      -7.105   2.833 131.132  0.00  0.00    +0.000 A 
ATOM     11  C   UNL     1      -5.910   2.886 130.455  0.00  0.00    +0.000 A 
ATOM     12  H   UNL     1      -8.735   6.139 128.906  0.00  0.00    +0.000 HD
ENDBRANCH   1   8
BRANCH   1  13
ATOM     13  C   UNL     1     -11.326   6.889 130.017  0.00  0.00    +0.000 A 
ATOM     14  C   UNL     1     -12.342   7.410 130.815  0.00  0.00    +0.000 A 
ATOM     15  C   UNL     1     -13.033   8.559 130.399  0.00  0.00    +0.000 A 
ATOM     16  C   UNL     1     -12.708   9.219 129.212  0.00  0.00    +0.000 A 
ATOM     17  C   UNL     1     -11.694   8.686 128.413  0.00  0.00    +0.000 A 
ATOM     18  C   UNL     1     -11.003   7.529 128.809  0.00  0.00    +0.000 A 
BRANCH  16  19
ATOM     19  N   UNL     1     -13.446  10.313 128.793  0.00  0.00    +0.000 N 
ATOM     20  H   UNL     1     -14.014  10.827 129.453  0.00  0.00    +0.000 HD
ATOM     21  H   UNL     1     -13.240  10.759 127.908  0.00  0.00    +0.000 HD
ENDBRANCH  16  19
ENDBRANCH   1  13
TORSDOF 3
ENDMDL
MODEL 9
REMARK VINA RESULT:      -6.3      8.595      9.863
REMARK  Name = Sulfamerazine
REMARK  4 active torsions:
REMARK  status: ('A' for Active; 'I' for Inactive)
REMARK    1  A    between atoms: C_1  and  C_2
REMARK    2  A    between atoms: N_5  and  S_6
REMARK    3  A    between atoms: S_6  and  C_9
REMARK    4  A    between atoms: C_12  and  N_13
REMARK                            x       y       z     vdW  Elec       q    Type
REMARK                         _______ _______ _______ _____ _____    ______ ____
ROOT
ATOM      1  S   UNL     1     -10.420   4.815 130.555  0.00  0.00    +0.000 S 
ATOM      2  O   UNL     1     -11.352   3.800 130.098  0.00  0.00    +0.000 OA
ATOM      3  O   UNL     1     -10.131   5.013 131.957  0.00  0.00    +0.000 OA
ENDROOT
BRANCH   1   8
ATOM      4  C   UNL     1      -4.345   5.495 129.067  0.00  0.00    +0.000 C 
ATOM      5  C   UNL     1      -5.602   5.667 129.878  0.00  0.00    +0.000 A 
ATOM      6  N   UNL     1      -6.740   5.055 129.456  0.00  0.00    +0.000 NA
ATOM      7  C   UNL     1      -7.834   5.254 130.214  0.00  0.00    +0.000 A 
ATOM      8  N   UNL     1      -8.989   4.625 129.738  0.00  0.00    +0.000 N 
ATOM      9  N   UNL     1      -7.887   5.975 131.330  0.00  0.00    +0.000 NA
ATOM     10  C   UNL     1      -6.742   6.566 131.709  0.00  0.00    +0.000 A 
ATOM     11  C   UNL     1      -5.561   6.450 131.016  0.00  0.00    +0.000 A 
ATOM     12  H   UNL     1      -8.877   4.137 128.865  0.00  0.00    +0.000 HD
ENDBRANCH   1   8
BRANCH   1  13
ATOM     13  C   UNL     1     -11.141   6.370 130.009  0.00  0.00    +0.000 A 
ATOM     14  C   UNL     1     -10.720   7.034 128.860  0.00  0.00    +0.000 A 
ATOM     15  C   UNL     1     -11.326   8.246 128.495  0.00  0.00    +0.000 A 
ATOM     16  C   UNL     1     -12.371   8.795 129.241  0.00  0.00    +0.000 A 
ATOM     17  C   UNL     1     -12.782   8.129 130.397  0.00  0.00    +0.000 A 
ATOM     18  C   UNL     1     -12.175   6.923 130.783  0.00  0.00    +0.000 A 
BRANCH  16  19
ATOM     19  N   UNL     1     -12.910  10.023 128.895  0.00  0.00    +0.000 N 
ATOM     20  H   UNL     1     -12.806  10.817 129.513  0.00  0.00    +0.000 HD
ATOM     21  H   UNL     1     -13.187  10.209 127.940  0.00  0.00    +0.000 HD
ENDBRANCH  16  19
ENDBRANCH   1  13
TORSDOF 3
ENDMDL
