MODEL 1
REMARK VINA RESULT:      -3.8      0.000      0.000
REMARK  Name = Sulfur hexafluoride
REMARK  0 active torsions:
REMARK  status: ('A' for Active; 'I' for Inactive)
REMARK                            x       y       z     vdW  Elec       q    Type
REMARK                         _______ _______ _______ _____ _____    ______ ____
ROOT
ATOM      1  F   UNL     1     -11.056   7.682 130.264  0.00  0.00    +0.000 F 
ATOM      2  S   UNL     1     -12.455   8.021 129.273  0.00  0.00    +0.000 S 
ATOM      3  F   UNL     1     -11.456   8.948 128.181  0.00  0.00    +0.000 F 
ATOM      4  F   UNL     1     -12.141   6.581 128.337  0.00  0.00    +0.000 F 
ATOM      5  F   UNL     1     -13.853   8.360 128.283  0.00  0.00    +0.000 F 
ATOM      6  F   UNL     1     -13.454   7.094 130.366  0.00  0.00    +0.000 F 
ATOM      7  F   UNL     1     -12.769   9.462 130.210  0.00  0.00    +0.000 F 
ENDROOT
TORSDOF 0
ENDMDL
MODEL 2
REMARK VINA RESULT:      -3.8      0.013      2.641
REMARK  Name = Sulfur hexafluoride
REMARK  0 active torsions:
REMARK  status: ('A' for Active; 'I' for Inactive)
REMARK                            x       y       z     vdW  Elec       q    Type
REMARK                         _______ _______ _______ _____ _____    ______ ____
ROOT
ATOM      1  F   UNL     1     -13.441   7.096 130.375  0.00  0.00    +0.000 F 
ATOM      2  S   UNL     1     -12.448   8.018 129.273  0.00  0.00    +0.000 S 
ATOM      3  F   UNL     1     -13.851   8.346 128.284  0.00  0.00    +0.000 F 
ATOM      4  F   UNL     1     -12.763   9.464 130.199  0.00  0.00    +0.000 F 
ATOM      5  F   UNL     1     -11.455   8.941 128.170  0.00  0.00    +0.000 F 
ATOM      6  F   UNL     1     -11.045   7.689 130.261  0.00  0.00    +0.000 F 
ATOM      7  F   UNL     1     -12.133   6.571 128.345  0.00  0.00    +0.000 F 
ENDROOT
TORSDOF 0
ENDMDL
MODEL 3
REMARK VINA RESULT:      -3.8      0.069      2.263
REMARK  Name = Sulfur hexafluoride
REMARK  0 active torsions:
REMARK  status: ('A' for Active; 'I' for Inactive)
REMARK                            x       y       z     vdW  Elec       q    Type
REMARK                         _______ _______ _______ _____ _____    ______ ____
ROOT
ATOM      1  F   UNL     1     -12.108   6.632 128.310  0.00  0.00    +0.000 F 
ATOM      2  S   UNL     1     -12.456   8.034 129.293  0.00  0.00    +0.000 S 
ATOM      3  F   UNL     1     -13.826   8.407 128.275  0.00  0.00    +0.000 F 
ATOM      4  F   UNL     1     -13.482   7.062 130.318  0.00  0.00    +0.000 F 
ATOM      5  F   UNL     1     -12.804   9.437 130.275  0.00  0.00    +0.000 F 
ATOM      6  F   UNL     1     -11.085   7.662 130.310  0.00  0.00    +0.000 F 
ATOM      7  F   UNL     1     -11.430   9.007 128.267  0.00  0.00    +0.000 F 
ENDROOT
TORSDOF 0
ENDMDL
MODEL 4
REMARK VINA RESULT:      -3.8      0.115      2.283
REMARK  Name = Sulfur hexafluoride
REMARK  0 active torsions:
REMARK  status: ('A' for Active; 'I' for Inactive)
REMARK                            x       y       z     vdW  Elec       q    Type
REMARK                         _______ _______ _______ _____ _____    ______ ____
ROOT
ATOM      1  F   UNL     1     -12.755   9.548 130.056  0.00  0.00    +0.000 F 
ATOM      2  S   UNL     1     -12.471   8.050 129.203  0.00  0.00    +0.000 S 
ATOM      3  F   UNL     1     -13.887   8.340 128.222  0.00  0.00    +0.000 F 
ATOM      4  F   UNL     1     -11.489   8.901 128.036  0.00  0.00    +0.000 F 
ATOM      5  F   UNL     1     -12.187   6.552 128.350  0.00  0.00    +0.000 F 
ATOM      6  F   UNL     1     -11.056   7.759 130.185  0.00  0.00    +0.000 F 
ATOM      7  F   UNL     1     -13.454   7.199 130.370  0.00  0.00    +0.000 F 
ENDROOT
TORSDOF 0
ENDMDL
MODEL 5
REMARK VINA RESULT:      -3.8      0.076      2.641
REMARK  Name = Sulfur hexafluoride
REMARK  0 active torsions:
REMARK  status: ('A' for Active; 'I' for Inactive)
REMARK                            x       y       z     vdW  Elec       q    Type
REMARK                         _______ _______ _______ _____ _____    ______ ____
ROOT
ATOM      1  F   UNL     1     -13.793   8.406 128.187  0.00  0.00    +0.000 F 
ATOM      2  S   UNL     1     -12.443   8.033 129.232  0.00  0.00    +0.000 S 
ATOM      3  F   UNL     1     -13.502   7.112 130.272  0.00  0.00    +0.000 F 
ATOM      4  F   UNL     1     -12.115   6.597 128.295  0.00  0.00    +0.000 F 
ATOM      5  F   UNL     1     -11.093   7.660 130.276  0.00  0.00    +0.000 F 
ATOM      6  F   UNL     1     -11.384   8.955 128.192  0.00  0.00    +0.000 F 
ATOM      7  F   UNL     1     -12.772   9.470 130.169  0.00  0.00    +0.000 F 
ENDROOT
TORSDOF 0
ENDMDL
MODEL 6
REMARK VINA RESULT:      -3.8      0.086      2.641
REMARK  Name = Sulfur hexafluoride
REMARK  0 active torsions:
REMARK  status: ('A' for Active; 'I' for Inactive)
REMARK                            x       y       z     vdW  Elec       q    Type
REMARK                         _______ _______ _______ _____ _____    ______ ____
ROOT
ATOM      1  F   UNL     1     -13.881   8.225 128.277  0.00  0.00    +0.000 F 
ATOM      2  S   UNL     1     -12.463   7.982 129.269  0.00  0.00    +0.000 S 
ATOM      3  F   UNL     1     -11.509   8.903 128.130  0.00  0.00    +0.000 F 
ATOM      4  F   UNL     1     -12.827   9.446 130.148  0.00  0.00    +0.000 F 
ATOM      5  F   UNL     1     -11.045   7.739 130.260  0.00  0.00    +0.000 F 
ATOM      6  F   UNL     1     -13.416   7.061 130.406  0.00  0.00    +0.000 F 
ATOM      7  F   UNL     1     -12.099   6.517 128.389  0.00  0.00    +0.000 F 
ENDROOT
TORSDOF 0
ENDMDL
MODEL 7
REMARK VINA RESULT:      -3.8      0.287      2.642
REMARK  Name = Sulfur hexafluoride
REMARK  0 active torsions:
REMARK  status: ('A' for Active; 'I' for Inactive)
REMARK                            x       y       z     vdW  Elec       q    Type
REMARK                         _______ _______ _______ _____ _____    ______ ____
ROOT
ATOM      1  F   UNL     1     -11.515   8.810 127.815  0.00  0.00    +0.000 F 
ATOM      2  S   UNL     1     -12.435   8.040 129.085  0.00  0.00    +0.000 S 
ATOM      3  F   UNL     1     -10.982   7.885 130.043  0.00  0.00    +0.000 F 
ATOM      4  F   UNL     1     -12.744   9.600 129.807  0.00  0.00    +0.000 F 
ATOM      5  F   UNL     1     -13.355   7.270 130.355  0.00  0.00    +0.000 F 
ATOM      6  F   UNL     1     -13.887   8.195 128.127  0.00  0.00    +0.000 F 
ATOM      7  F   UNL     1     -12.126   6.480 128.363  0.00  0.00    +0.000 F 
ENDROOT
TORSDOF 0
ENDMDL
MODEL 8
REMARK VINA RESULT:      -3.8      0.435      2.163
REMARK  Name = Sulfur hexafluoride
REMARK  0 active torsions:
REMARK  status: ('A' for Active; 'I' for Inactive)
REMARK                            x       y       z     vdW  Elec       q    Type
REMARK                         _______ _______ _______ _____ _____    ______ ____
ROOT
ATOM      1  F   UNL     1     -12.201   6.457 128.391  0.00  0.00    +0.000 F 
ATOM      2  S   UNL     1     -12.482   8.080 128.972  0.00  0.00    +0.000 S 
ATOM      3  F   UNL     1     -11.076   7.954 130.003  0.00  0.00    +0.000 F 
ATOM      4  F   UNL     1     -11.483   8.713 127.688  0.00  0.00    +0.000 F 
ATOM      5  F   UNL     1     -12.762   9.703 129.554  0.00  0.00    +0.000 F 
ATOM      6  F   UNL     1     -13.887   8.206 127.943  0.00  0.00    +0.000 F 
ATOM      7  F   UNL     1     -13.481   7.447 130.258  0.00  0.00    +0.000 F 
ENDROOT
TORSDOF 0
ENDMDL
MODEL 9
REMARK VINA RESULT:      -3.8      0.470      2.284
REMARK  Name = Sulfur hexafluoride
REMARK  0 active torsions:
REMARK  status: ('A' for Active; 'I' for Inactive)
REMARK                            x       y       z     vdW  Elec       q    Type
REMARK                         _______ _______ _______ _____ _____    ______ ____
ROOT
ATOM      1  F   UNL     1     -13.503   7.428 130.196  0.00  0.00    +0.000 F 
ATOM      2  S   UNL     1     -12.494   8.072 128.923  0.00  0.00    +0.000 S 
ATOM      3  F   UNL     1     -12.800   9.693 129.502  0.00  0.00    +0.000 F 
ATOM      4  F   UNL     1     -11.102   7.961 129.971  0.00  0.00    +0.000 F 
ATOM      5  F   UNL     1     -11.485   8.717 127.651  0.00  0.00    +0.000 F 
ATOM      6  F   UNL     1     -12.190   6.452 128.345  0.00  0.00    +0.000 F 
ATOM      7  F   UNL     1     -13.887   8.184 127.875  0.00  0.00    +0.000 F 
ENDROOT
TORSDOF 0
ENDMDL
