MODEL 1
REMARK VINA RESULT:      -7.3      0.000      0.000
REMARK  Name = Sulfisoxazole
REMARK  6 active torsions:
REMARK  status: ('A' for Active; 'I' for Inactive)
REMARK    1  A    between atoms: C_1  and  C_2
REMARK    2  A    between atoms: C_5  and  N_6
REMARK    3  A    between atoms: N_6  and  S_7
REMARK    4  A    between atoms: S_7  and  C_10
REMARK    5  A    between atoms: C_13  and  N_14
REMARK    6  A    between atoms: C_17  and  C_18
REMARK                            x       y       z     vdW  Elec       q    Type
REMARK                         _______ _______ _______ _____ _____    ______ ____
ROOT
ATOM      1  S   UNL     1      -8.441   2.484 122.942  0.00  0.00    +0.000 S 
ATOM      2  O   UNL     1      -9.569   1.890 122.259  0.00  0.00    +0.000 OA
ATOM      3  O   UNL     1      -8.603   3.422 124.033  0.00  0.00    +0.000 OA
ENDROOT
BRANCH   1   4
ATOM      4  C   UNL     1      -7.512   3.369 121.680  0.00  0.00    +0.000 A 
ATOM      5  C   UNL     1      -6.164   3.696 121.839  0.00  0.00    +0.000 A 
ATOM      6  C   UNL     1      -5.492   4.394 120.822  0.00  0.00    +0.000 A 
ATOM      7  C   UNL     1      -6.144   4.778 119.647  0.00  0.00    +0.000 A 
ATOM      8  C   UNL     1      -7.494   4.456 119.502  0.00  0.00    +0.000 A 
ATOM      9  C   UNL     1      -8.179   3.754 120.508  0.00  0.00    +0.000 A 
BRANCH   7  10
ATOM     10  N   UNL     1      -5.466   5.466 118.659  0.00  0.00    +0.000 N 
ATOM     11  H   UNL     1      -4.469   5.353 118.534  0.00  0.00    +0.000 HD
ATOM     12  H   UNL     1      -5.954   6.099 118.037  0.00  0.00    +0.000 HD
ENDBRANCH   7  10
ENDBRANCH   1   4
BRANCH   1  13
ATOM     13  N   UNL     1      -7.438   1.237 123.452  0.00  0.00    +0.000 N 
ATOM     14  H   UNL     1      -6.435   1.308 123.387  0.00  0.00    +0.000 HD
BRANCH  13  19
ATOM     15  C   UNL     1      -8.626  -3.558 124.365  0.00  0.00    +0.000 C 
ATOM     16  C   UNL     1      -8.559  -2.072 124.336  0.00  0.00    +0.000 A 
ATOM     17  N   UNL     1      -9.391  -1.344 125.087  0.00  0.00    +0.000 NA
ATOM     18  O   UNL     1      -9.063  -0.022 124.839  0.00  0.00    +0.000 OA
ATOM     19  C   UNL     1      -8.041   0.046 123.940  0.00  0.00    +0.000 A 
ATOM     20  C   UNL     1      -7.682  -1.241 123.578  0.00  0.00    +0.000 A 
ATOM     21  C   UNL     1      -6.641  -1.709 122.634  0.00  0.00    +0.000 C 
ENDBRANCH  13  19
ENDBRANCH   1  13
TORSDOF 4
ENDMDL
MODEL 2
REMARK VINA RESULT:      -6.9     10.021     10.890
REMARK  Name = Sulfisoxazole
REMARK  6 active torsions:
REMARK  status: ('A' for Active; 'I' for Inactive)
REMARK    1  A    between atoms: C_1  and  C_2
REMARK    2  A    between atoms: C_5  and  N_6
REMARK    3  A    between atoms: N_6  and  S_7
REMARK    4  A    between atoms: S_7  and  C_10
REMARK    5  A    between atoms: C_13  and  N_14
REMARK    6  A    between atoms: C_17  and  C_18
REMARK                            x       y       z     vdW  Elec       q    Type
REMARK                         _______ _______ _______ _____ _____    ______ ____
ROOT
ATOM      1  S   UNL     1     -10.607   5.274 130.499  0.00  0.00    +0.000 S 
ATOM      2  O   UNL     1      -9.210   5.429 130.159  0.00  0.00    +0.000 OA
ATOM      3  O   UNL     1     -11.410   4.183 129.989  0.00  0.00    +0.000 OA
ENDROOT
BRANCH   1   4
ATOM      4  C   UNL     1     -11.420   6.775 129.935  0.00  0.00    +0.000 A 
ATOM      5  C   UNL     1     -11.156   7.343 128.687  0.00  0.00    +0.000 A 
ATOM      6  C   UNL     1     -11.817   8.520 128.301  0.00  0.00    +0.000 A 
ATOM      7  C   UNL     1     -12.737   9.149 129.145  0.00  0.00    +0.000 A 
ATOM      8  C   UNL     1     -12.987   8.581 130.394  0.00  0.00    +0.000 A 
ATOM      9  C   UNL     1     -12.338   7.401 130.792  0.00  0.00    +0.000 A 
BRANCH   7  10
ATOM     10  N   UNL     1     -13.376  10.309 128.749  0.00  0.00    +0.000 N 
ATOM     11  H   UNL     1     -14.371  10.430 128.887  0.00  0.00    +0.000 HD
ATOM     12  H   UNL     1     -12.862  11.064 128.314  0.00  0.00    +0.000 HD
ENDBRANCH   7  10
ENDBRANCH   1   4
BRANCH   1  13
ATOM     13  N   UNL     1     -10.731   5.292 132.173  0.00  0.00    +0.000 N 
ATOM     14  H   UNL     1     -11.618   5.424 132.634  0.00  0.00    +0.000 HD
BRANCH  13  19
ATOM     15  C   UNL     1      -6.733   3.509 134.639  0.00  0.00    +0.000 C 
ATOM     16  C   UNL     1      -7.779   4.370 134.025  0.00  0.00    +0.000 A 
ATOM     17  N   UNL     1      -7.711   5.700 134.139  0.00  0.00    +0.000 NA
ATOM     18  O   UNL     1      -8.811   6.194 133.458  0.00  0.00    +0.000 OA
ATOM     19  C   UNL     1      -9.540   5.166 132.938  0.00  0.00    +0.000 A 
ATOM     20  C   UNL     1      -8.927   3.971 133.277  0.00  0.00    +0.000 A 
ATOM     21  C   UNL     1      -9.319   2.578 132.966  0.00  0.00    +0.000 C 
ENDBRANCH  13  19
ENDBRANCH   1  13
TORSDOF 4
ENDMDL
MODEL 3
REMARK VINA RESULT:      -6.7      8.973      9.822
REMARK  Name = Sulfisoxazole
REMARK  6 active torsions:
REMARK  status: ('A' for Active; 'I' for Inactive)
REMARK    1  A    between atoms: C_1  and  C_2
REMARK    2  A    between atoms: C_5  and  N_6
REMARK    3  A    between atoms: N_6  and  S_7
REMARK    4  A    between atoms: S_7  and  C_10
REMARK    5  A    between atoms: C_13  and  N_14
REMARK    6  A    between atoms: C_17  and  C_18
REMARK                            x       y       z     vdW  Elec       q    Type
REMARK                         _______ _______ _______ _____ _____    ______ ____
ROOT
ATOM      1  S   UNL     1      -9.996   5.994 131.260  0.00  0.00    +0.000 S 
ATOM      2  O   UNL     1     -10.043   6.286 132.676  0.00  0.00    +0.000 OA
ATOM      3  O   UNL     1      -8.761   6.025 130.506  0.00  0.00    +0.000 OA
ENDROOT
BRANCH   1   4
ATOM      4  C   UNL     1     -11.071   7.202 130.472  0.00  0.00    +0.000 A 
ATOM      5  C   UNL     1     -12.295   7.583 131.025  0.00  0.00    +0.000 A 
ATOM      6  C   UNL     1     -13.097   8.527 130.362  0.00  0.00    +0.000 A 
ATOM      7  C   UNL     1     -12.700   9.095 129.148  0.00  0.00    +0.000 A 
ATOM      8  C   UNL     1     -11.480   8.701 128.598  0.00  0.00    +0.000 A 
ATOM      9  C   UNL     1     -10.665   7.762 129.252  0.00  0.00    +0.000 A 
BRANCH   7  10
ATOM     10  N   UNL     1     -13.503  10.021 128.509  0.00  0.00    +0.000 N 
ATOM     11  H   UNL     1     -13.607  10.960 128.869  0.00  0.00    +0.000 HD
ATOM     12  H   UNL     1     -14.005   9.778 127.664  0.00  0.00    +0.000 HD
ENDBRANCH   7  10
ENDBRANCH   1   4
BRANCH   1  13
ATOM     13  N   UNL     1     -10.733   4.505 131.020  0.00  0.00    +0.000 N 
ATOM     14  H   UNL     1     -11.717   4.371 131.194  0.00  0.00    +0.000 HD
BRANCH  13  19
ATOM     15  C   UNL     1      -7.789   0.435 130.923  0.00  0.00    +0.000 C 
ATOM     16  C   UNL     1      -8.623   1.617 130.575  0.00  0.00    +0.000 A 
ATOM     17  N   UNL     1      -8.828   1.946 129.296  0.00  0.00    +0.000 NA
ATOM     18  O   UNL     1      -9.642   3.066 129.321  0.00  0.00    +0.000 OA
ATOM     19  C   UNL     1      -9.923   3.412 130.609  0.00  0.00    +0.000 A 
ATOM     20  C   UNL     1      -9.290   2.519 131.457  0.00  0.00    +0.000 A 
ATOM     21  C   UNL     1      -9.271   2.461 132.936  0.00  0.00    +0.000 C 
ENDBRANCH  13  19
ENDBRANCH   1  13
TORSDOF 4
ENDMDL
MODEL 4
REMARK VINA RESULT:      -6.7      9.506     10.611
REMARK  Name = Sulfisoxazole
REMARK  6 active torsions:
REMARK  status: ('A' for Active; 'I' for Inactive)
REMARK    1  A    between atoms: C_1  and  C_2
REMARK    2  A    between atoms: C_5  and  N_6
REMARK    3  A    between atoms: N_6  and  S_7
REMARK    4  A    between atoms: S_7  and  C_10
REMARK    5  A    between atoms: C_13  and  N_14
REMARK    6  A    between atoms: C_17  and  C_18
REMARK                            x       y       z     vdW  Elec       q    Type
REMARK                         _______ _______ _______ _____ _____    ______ ____
ROOT
ATOM      1  S   UNL     1      -9.985   5.417 129.894  0.00  0.00    +0.000 S 
ATOM      2  O   UNL     1      -9.021   5.328 128.820  0.00  0.00    +0.000 OA
ATOM      3  O   UNL     1     -10.916   4.348 130.187  0.00  0.00    +0.000 OA
ENDROOT
BRANCH   1   4
ATOM      4  C   UNL     1     -11.002   6.854 129.525  0.00  0.00    +0.000 A 
ATOM      5  C   UNL     1     -10.876   7.571 128.334  0.00  0.00    +0.000 A 
ATOM      6  C   UNL     1     -11.693   8.689 128.103  0.00  0.00    +0.000 A 
ATOM      7  C   UNL     1     -12.634   9.111 129.045  0.00  0.00    +0.000 A 
ATOM      8  C   UNL     1     -12.746   8.395 130.238  0.00  0.00    +0.000 A 
ATOM      9  C   UNL     1     -11.940   7.271 130.482  0.00  0.00    +0.000 A 
BRANCH   7  10
ATOM     10  N   UNL     1     -13.428  10.216 128.802  0.00  0.00    +0.000 N 
ATOM     11  H   UNL     1     -13.834  10.376 127.889  0.00  0.00    +0.000 HD
ATOM     12  H   UNL     1     -13.622  10.889 129.532  0.00  0.00    +0.000 HD
ENDBRANCH   7  10
ENDBRANCH   1   4
BRANCH   1  13
ATOM     13  N   UNL     1      -9.150   5.800 131.300  0.00  0.00    +0.000 N 
ATOM     14  H   UNL     1      -9.569   5.682 132.209  0.00  0.00    +0.000 HD
BRANCH  13  19
ATOM     15  C   UNL     1      -4.238   6.738 131.779  0.00  0.00    +0.000 C 
ATOM     16  C   UNL     1      -5.676   6.753 131.398  0.00  0.00    +0.000 A 
ATOM     17  N   UNL     1      -6.128   7.640 130.506  0.00  0.00    +0.000 NA
ATOM     18  O   UNL     1      -7.482   7.381 130.370  0.00  0.00    +0.000 OA
ATOM     19  C   UNL     1      -7.844   6.345 131.179  0.00  0.00    +0.000 A 
ATOM     20  C   UNL     1      -6.724   5.908 131.867  0.00  0.00    +0.000 A 
ATOM     21  C   UNL     1      -6.584   4.823 132.865  0.00  0.00    +0.000 C 
ENDBRANCH  13  19
ENDBRANCH   1  13
TORSDOF 4
ENDMDL
MODEL 5
REMARK VINA RESULT:      -6.6      2.083      5.749
REMARK  Name = Sulfisoxazole
REMARK  6 active torsions:
REMARK  status: ('A' for Active; 'I' for Inactive)
REMARK    1  A    between atoms: C_1  and  C_2
REMARK    2  A    between atoms: C_5  and  N_6
REMARK    3  A    between atoms: N_6  and  S_7
REMARK    4  A    between atoms: S_7  and  C_10
REMARK    5  A    between atoms: C_13  and  N_14
REMARK    6  A    between atoms: C_17  and  C_18
REMARK                            x       y       z     vdW  Elec       q    Type
REMARK                         _______ _______ _______ _____ _____    ______ ____
ROOT
ATOM      1  S   UNL     1      -9.853   0.807 124.169  0.00  0.00    +0.000 S 
ATOM      2  O   UNL     1     -10.426   0.508 125.463  0.00  0.00    +0.000 OA
ATOM      3  O   UNL     1     -10.596   0.642 122.938  0.00  0.00    +0.000 OA
ENDROOT
BRANCH   1   4
ATOM      4  C   UNL     1      -8.413  -0.259 124.010  0.00  0.00    +0.000 A 
ATOM      5  C   UNL     1      -7.369  -0.245 124.937  0.00  0.00    +0.000 A 
ATOM      6  C   UNL     1      -6.266  -1.096 124.758  0.00  0.00    +0.000 A 
ATOM      7  C   UNL     1      -6.181  -1.959 123.662  0.00  0.00    +0.000 A 
ATOM      8  C   UNL     1      -7.224  -1.958 122.735  0.00  0.00    +0.000 A 
ATOM      9  C   UNL     1      -8.337  -1.117 122.902  0.00  0.00    +0.000 A 
BRANCH   7  10
ATOM     10  N   UNL     1      -5.087  -2.787 123.501  0.00  0.00    +0.000 N 
ATOM     11  H   UNL     1      -4.145  -2.426 123.567  0.00  0.00    +0.000 HD
ATOM     12  H   UNL     1      -5.205  -3.775 123.314  0.00  0.00    +0.000 HD
ENDBRANCH   7  10
ENDBRANCH   1   4
BRANCH   1  13
ATOM     13  N   UNL     1      -9.254   2.375 124.226  0.00  0.00    +0.000 N 
ATOM     14  H   UNL     1      -9.458   2.989 124.999  0.00  0.00    +0.000 HD
BRANCH  13  19
ATOM     15  C   UNL     1      -5.518   3.966 121.267  0.00  0.00    +0.000 C 
ATOM     16  C   UNL     1      -6.830   3.544 121.829  0.00  0.00    +0.000 A 
ATOM     17  N   UNL     1      -7.918   3.516 121.053  0.00  0.00    +0.000 NA
ATOM     18  O   UNL     1      -8.949   3.075 121.867  0.00  0.00    +0.000 OA
ATOM     19  C   UNL     1      -8.483   2.841 123.127  0.00  0.00    +0.000 A 
ATOM     20  C   UNL     1      -7.130   3.132 123.161  0.00  0.00    +0.000 A 
ATOM     21  C   UNL     1      -6.168   3.052 124.283  0.00  0.00    +0.000 C 
ENDBRANCH  13  19
ENDBRANCH   1  13
TORSDOF 4
ENDMDL
MODEL 6
REMARK VINA RESULT:      -6.6      8.281      9.376
REMARK  Name = Sulfisoxazole
REMARK  6 active torsions:
REMARK  status: ('A' for Active; 'I' for Inactive)
REMARK    1  A    between atoms: C_1  and  C_2
REMARK    2  A    between atoms: C_5  and  N_6
REMARK    3  A    between atoms: N_6  and  S_7
REMARK    4  A    between atoms: S_7  and  C_10
REMARK    5  A    between atoms: C_13  and  N_14
REMARK    6  A    between atoms: C_17  and  C_18
REMARK                            x       y       z     vdW  Elec       q    Type
REMARK                         _______ _______ _______ _____ _____    ______ ____
ROOT
ATOM      1  S   UNL     1      -8.970   6.500 131.009  0.00  0.00    +0.000 S 
ATOM      2  O   UNL     1      -9.289   6.445 132.419  0.00  0.00    +0.000 OA
ATOM      3  O   UNL     1      -7.820   7.220 130.504  0.00  0.00    +0.000 OA
ENDROOT
BRANCH   1   4
ATOM      4  C   UNL     1     -10.397   7.249 130.210  0.00  0.00    +0.000 A 
ATOM      5  C   UNL     1     -11.693   7.096 130.704  0.00  0.00    +0.000 A 
ATOM      6  C   UNL     1     -12.771   7.699 130.035  0.00  0.00    +0.000 A 
ATOM      7  C   UNL     1     -12.578   8.450 128.872  0.00  0.00    +0.000 A 
ATOM      8  C   UNL     1     -11.280   8.588 128.379  0.00  0.00    +0.000 A 
ATOM      9  C   UNL     1     -10.191   7.995 129.040  0.00  0.00    +0.000 A 
BRANCH   7  10
ATOM     10  N   UNL     1     -13.650   9.034 128.225  0.00  0.00    +0.000 N 
ATOM     11  H   UNL     1     -14.179   9.779 128.659  0.00  0.00    +0.000 HD
ATOM     12  H   UNL     1     -13.930   8.729 127.301  0.00  0.00    +0.000 HD
ENDBRANCH   7  10
ENDBRANCH   1   4
BRANCH   1  13
ATOM     13  N   UNL     1      -8.906   4.922 130.439  0.00  0.00    +0.000 N 
ATOM     14  H   UNL     1      -9.226   4.147 130.997  0.00  0.00    +0.000 HD
BRANCH  13  19
ATOM     15  C   UNL     1      -5.937   3.482 126.650  0.00  0.00    +0.000 C 
ATOM     16  C   UNL     1      -7.023   4.055 127.490  0.00  0.00    +0.000 A 
ATOM     17  N   UNL     1      -8.057   4.682 126.921  0.00  0.00    +0.000 NA
ATOM     18  O   UNL     1      -8.878   5.077 127.964  0.00  0.00    +0.000 OA
ATOM     19  C   UNL     1      -8.339   4.693 129.156  0.00  0.00    +0.000 A 
ATOM     20  C   UNL     1      -7.144   4.038 128.911  0.00  0.00    +0.000 A 
ATOM     21  C   UNL     1      -6.177   3.437 129.859  0.00  0.00    +0.000 C 
ENDBRANCH  13  19
ENDBRANCH   1  13
TORSDOF 4
ENDMDL
MODEL 7
REMARK VINA RESULT:      -6.4      9.519     10.844
REMARK  Name = Sulfisoxazole
REMARK  6 active torsions:
REMARK  status: ('A' for Active; 'I' for Inactive)
REMARK    1  A    between atoms: C_1  and  C_2
REMARK    2  A    between atoms: C_5  and  N_6
REMARK    3  A    between atoms: N_6  and  S_7
REMARK    4  A    between atoms: S_7  and  C_10
REMARK    5  A    between atoms: C_13  and  N_14
REMARK    6  A    between atoms: C_17  and  C_18
REMARK                            x       y       z     vdW  Elec       q    Type
REMARK                         _______ _______ _______ _____ _____    ______ ____
ROOT
ATOM      1  S   UNL     1      -9.366   5.158 132.481  0.00  0.00    +0.000 S 
ATOM      2  O   UNL     1      -9.554   6.421 133.160  0.00  0.00    +0.000 OA
ATOM      3  O   UNL     1      -9.211   3.910 133.199  0.00  0.00    +0.000 OA
ENDROOT
BRANCH   1   4
ATOM      4  C   UNL     1      -7.867   5.341 131.505  0.00  0.00    +0.000 A 
ATOM      5  C   UNL     1      -7.461   4.382 130.575  0.00  0.00    +0.000 A 
ATOM      6  C   UNL     1      -6.277   4.576 129.844  0.00  0.00    +0.000 A 
ATOM      7  C   UNL     1      -5.483   5.711 130.030  0.00  0.00    +0.000 A 
ATOM      8  C   UNL     1      -5.891   6.659 130.969  0.00  0.00    +0.000 A 
ATOM      9  C   UNL     1      -7.076   6.483 131.704  0.00  0.00    +0.000 A 
BRANCH   7  10
ATOM     10  N   UNL     1      -4.320   5.884 129.304  0.00  0.00    +0.000 N 
ATOM     11  H   UNL     1      -4.179   5.406 128.424  0.00  0.00    +0.000 HD
ATOM     12  H   UNL     1      -3.584   6.493 129.637  0.00  0.00    +0.000 HD
ENDBRANCH   7  10
ENDBRANCH   1   4
BRANCH   1  13
ATOM     13  N   UNL     1     -10.613   4.984 131.370  0.00  0.00    +0.000 N 
ATOM     14  H   UNL     1     -10.745   4.128 130.855  0.00  0.00    +0.000 HD
BRANCH  13  19
ATOM     15  C   UNL     1     -12.716   9.151 129.511  0.00  0.00    +0.000 C 
ATOM     16  C   UNL     1     -12.382   7.939 130.306  0.00  0.00    +0.000 A 
ATOM     17  N   UNL     1     -13.166   7.560 131.320  0.00  0.00    +0.000 NA
ATOM     18  O   UNL     1     -12.589   6.410 131.832  0.00  0.00    +0.000 OA
ATOM     19  C   UNL     1     -11.462   6.099 131.132  0.00  0.00    +0.000 A 
ATOM     20  C   UNL     1     -11.277   7.052 130.144  0.00  0.00    +0.000 A 
ATOM     21  C   UNL     1     -10.206   7.174 129.128  0.00  0.00    +0.000 C 
ENDBRANCH  13  19
ENDBRANCH   1  13
TORSDOF 4
ENDMDL
MODEL 8
REMARK VINA RESULT:      -6.2      8.806     10.001
REMARK  Name = Sulfisoxazole
REMARK  6 active torsions:
REMARK  status: ('A' for Active; 'I' for Inactive)
REMARK    1  A    between atoms: C_1  and  C_2
REMARK    2  A    between atoms: C_5  and  N_6
REMARK    3  A    between atoms: N_6  and  S_7
REMARK    4  A    between atoms: S_7  and  C_10
REMARK    5  A    between atoms: C_13  and  N_14
REMARK    6  A    between atoms: C_17  and  C_18
REMARK                            x       y       z     vdW  Elec       q    Type
REMARK                         _______ _______ _______ _____ _____    ______ ____
ROOT
ATOM      1  S   UNL     1     -10.499   6.298 131.412  0.00  0.00    +0.000 S 
ATOM      2  O   UNL     1     -10.568   7.021 130.161  0.00  0.00    +0.000 OA
ATOM      3  O   UNL     1     -11.172   6.758 132.608  0.00  0.00    +0.000 OA
ENDROOT
BRANCH   1   4
ATOM      4  C   UNL     1      -8.754   6.220 131.840  0.00  0.00    +0.000 A 
ATOM      5  C   UNL     1      -8.301   5.619 133.016  0.00  0.00    +0.000 A 
ATOM      6  C   UNL     1      -6.927   5.593 133.302  0.00  0.00    +0.000 A 
ATOM      7  C   UNL     1      -5.991   6.163 132.435  0.00  0.00    +0.000 A 
ATOM      8  C   UNL     1      -6.453   6.771 131.268  0.00  0.00    +0.000 A 
ATOM      9  C   UNL     1      -7.825   6.801 130.965  0.00  0.00    +0.000 A 
BRANCH   7  10
ATOM     10  N   UNL     1      -4.642   6.130 132.735  0.00  0.00    +0.000 N 
ATOM     11  H   UNL     1      -4.108   6.983 132.834  0.00  0.00    +0.000 HD
ATOM     12  H   UNL     1      -4.159   5.250 132.863  0.00  0.00    +0.000 HD
ENDBRANCH   7  10
ENDBRANCH   1   4
BRANCH   1  13
ATOM     13  N   UNL     1     -10.965   4.713 131.112  0.00  0.00    +0.000 N 
ATOM     14  H   UNL     1     -11.837   4.346 131.459  0.00  0.00    +0.000 HD
BRANCH  13  19
ATOM     15  C   UNL     1      -7.949   0.957 129.683  0.00  0.00    +0.000 C 
ATOM     16  C   UNL     1      -8.742   2.213 129.770  0.00  0.00    +0.000 A 
ATOM     17  N   UNL     1      -8.738   3.085 128.757  0.00  0.00    +0.000 NA
ATOM     18  O   UNL     1      -9.571   4.120 129.149  0.00  0.00    +0.000 OA
ATOM     19  C   UNL     1     -10.072   3.874 130.392  0.00  0.00    +0.000 A 
ATOM     20  C   UNL     1      -9.567   2.665 130.842  0.00  0.00    +0.000 A 
ATOM     21  C   UNL     1      -9.795   1.956 132.122  0.00  0.00    +0.000 C 
ENDBRANCH  13  19
ENDBRANCH   1  13
TORSDOF 4
ENDMDL
MODEL 9
REMARK VINA RESULT:      -6.2      9.355     10.311
REMARK  Name = Sulfisoxazole
REMARK  6 active torsions:
REMARK  status: ('A' for Active; 'I' for Inactive)
REMARK    1  A    between atoms: C_1  and  C_2
REMARK    2  A    between atoms: C_5  and  N_6
REMARK    3  A    between atoms: N_6  and  S_7
REMARK    4  A    between atoms: S_7  and  C_10
REMARK    5  A    between atoms: C_13  and  N_14
REMARK    6  A    between atoms: C_17  and  C_18
REMARK                            x       y       z     vdW  Elec       q    Type
REMARK                         _______ _______ _______ _____ _____    ______ ____
ROOT
ATOM      1  S   UNL     1     -10.441   4.966 130.642  0.00  0.00    +0.000 S 
ATOM      2  O   UNL     1     -11.265   3.908 130.099  0.00  0.00    +0.000 OA
ATOM      3  O   UNL     1     -10.231   5.129 132.065  0.00  0.00    +0.000 OA
ENDROOT
BRANCH   1   4
ATOM      4  C   UNL     1     -11.188   6.505 130.086  0.00  0.00    +0.000 A 
ATOM      5  C   UNL     1     -10.703   7.215 128.985  0.00  0.00    +0.000 A 
ATOM      6  C   UNL     1     -11.323   8.414 128.600  0.00  0.00    +0.000 A 
ATOM      7  C   UNL     1     -12.419   8.926 129.300  0.00  0.00    +0.000 A 
ATOM      8  C   UNL     1     -12.891   8.216 130.405  0.00  0.00    +0.000 A 
ATOM      9  C   UNL     1     -12.285   7.011 130.799  0.00  0.00    +0.000 A 
BRANCH   7  10
ATOM     10  N   UNL     1     -13.015  10.109 128.908  0.00  0.00    +0.000 N 
ATOM     11  H   UNL     1     -13.630  10.616 129.530  0.00  0.00    +0.000 HD
ATOM     12  H   UNL     1     -12.848  10.496 127.988  0.00  0.00    +0.000 HD
ENDBRANCH   7  10
ENDBRANCH   1   4
BRANCH   1  13
ATOM     13  N   UNL     1      -8.945   4.888 129.885  0.00  0.00    +0.000 N 
ATOM     14  H   UNL     1      -8.856   4.973 128.884  0.00  0.00    +0.000 HD
BRANCH  13  19
ATOM     15  C   UNL     1      -4.805   5.416 132.683  0.00  0.00    +0.000 C 
ATOM     16  C   UNL     1      -5.970   4.892 131.919  0.00  0.00    +0.000 A 
ATOM     17  N   UNL     1      -6.210   3.577 131.873  0.00  0.00    +0.000 NA
ATOM     18  O   UNL     1      -7.352   3.430 131.104  0.00  0.00    +0.000 OA
ATOM     19  C   UNL     1      -7.796   4.650 130.687  0.00  0.00    +0.000 A 
ATOM     20  C   UNL     1      -6.942   5.624 131.176  0.00  0.00    +0.000 A 
ATOM     21  C   UNL     1      -6.978   7.094 131.004  0.00  0.00    +0.000 C 
ENDBRANCH  13  19
ENDBRANCH   1  13
TORSDOF 4
ENDMDL
