MODEL 1
REMARK VINA RESULT:      -7.3      0.000      0.000
REMARK  Name = Sulfamethoxazole
REMARK  4 active torsions:
REMARK  status: ('A' for Active; 'I' for Inactive)
REMARK    1  A    between atoms: C_1  and  C_2
REMARK    2  A    between atoms: N_5  and  S_6
REMARK    3  A    between atoms: S_6  and  C_9
REMARK    4  A    between atoms: C_12  and  N_13
REMARK                            x       y       z     vdW  Elec       q    Type
REMARK                         _______ _______ _______ _____ _____    ______ ____
ROOT
ATOM      1  S   UNL     1      -8.017   2.471 123.431  0.00  0.00    +0.000 S 
ATOM      2  O   UNL     1      -8.592   3.489 124.282  0.00  0.00    +0.000 OA
ATOM      3  O   UNL     1      -6.990   1.575 123.930  0.00  0.00    +0.000 OA
ENDROOT
BRANCH   1   8
ATOM      4  C   UNL     1      -8.264  -3.167 124.266  0.00  0.00    +0.000 C 
ATOM      5  C   UNL     1      -8.795  -1.895 123.745  0.00  0.00    +0.000 A 
ATOM      6  C   UNL     1      -8.336  -0.607 123.800  0.00  0.00    +0.000 A 
ATOM      7  C   UNL     1      -9.293   0.150 123.101  0.00  0.00    +0.000 A 
ATOM      8  N   UNL     1      -9.275   1.522 122.868  0.00  0.00    +0.000 N 
ATOM      9  N   UNL     1     -10.286  -0.623 122.648  0.00  0.00    +0.000 NA
ATOM     10  O   UNL     1      -9.969  -1.918 123.057  0.00  0.00    +0.000 OA
ATOM     11  H   UNL     1     -10.050   1.898 122.338  0.00  0.00    +0.000 HD
ENDBRANCH   1   8
BRANCH   1  12
ATOM     12  C   UNL     1      -7.295   3.326 122.049  0.00  0.00    +0.000 A 
ATOM     13  C   UNL     1      -5.951   3.719 122.162  0.00  0.00    +0.000 A 
ATOM     14  C   UNL     1      -5.327   4.401 121.110  0.00  0.00    +0.000 A 
ATOM     15  C   UNL     1      -6.022   4.679 119.932  0.00  0.00    +0.000 A 
ATOM     16  C   UNL     1      -7.361   4.292 119.839  0.00  0.00    +0.000 A 
ATOM     17  C   UNL     1      -8.001   3.617 120.886  0.00  0.00    +0.000 A 
BRANCH  15  18
ATOM     18  N   UNL     1      -5.429   5.400 118.912  0.00  0.00    +0.000 N 
ATOM     19  H   UNL     1      -4.430   5.564 118.912  0.00  0.00    +0.000 HD
ATOM     20  H   UNL     1      -5.936   5.592 118.059  0.00  0.00    +0.000 HD
ENDBRANCH  15  18
ENDBRANCH   1  12
TORSDOF 3
ENDMDL
MODEL 2
REMARK VINA RESULT:      -7.2      9.362     10.193
REMARK  Name = Sulfamethoxazole
REMARK  4 active torsions:
REMARK  status: ('A' for Active; 'I' for Inactive)
REMARK    1  A    between atoms: C_1  and  C_2
REMARK    2  A    between atoms: N_5  and  S_6
REMARK    3  A    between atoms: S_6  and  C_9
REMARK    4  A    between atoms: C_12  and  N_13
REMARK                            x       y       z     vdW  Elec       q    Type
REMARK                         _______ _______ _______ _____ _____    ______ ____
ROOT
ATOM      1  S   UNL     1     -10.628   4.926 130.210  0.00  0.00    +0.000 S 
ATOM      2  O   UNL     1      -9.455   4.912 129.365  0.00  0.00    +0.000 OA
ATOM      3  O   UNL     1     -11.671   3.929 130.053  0.00  0.00    +0.000 OA
ENDROOT
BRANCH   1   8
ATOM      4  C   UNL     1      -7.920   0.388 132.362  0.00  0.00    +0.000 C 
ATOM      5  C   UNL     1      -8.491   1.743 132.463  0.00  0.00    +0.000 A 
ATOM      6  C   UNL     1      -9.123   2.553 131.558  0.00  0.00    +0.000 A 
ATOM      7  C   UNL     1      -9.441   3.720 132.275  0.00  0.00    +0.000 A 
ATOM      8  N   UNL     1     -10.101   4.848 131.797  0.00  0.00    +0.000 N 
ATOM      9  N   UNL     1      -9.023   3.639 133.543  0.00  0.00    +0.000 NA
ATOM     10  O   UNL     1      -8.422   2.386 133.660  0.00  0.00    +0.000 OA
ATOM     11  H   UNL     1     -10.249   5.597 132.460  0.00  0.00    +0.000 HD
ENDBRANCH   1   8
BRANCH   1  12
ATOM     12  C   UNL     1     -11.411   6.501 129.953  0.00  0.00    +0.000 A 
ATOM     13  C   UNL     1     -11.068   7.212 128.792  0.00  0.00    +0.000 A 
ATOM     14  C   UNL     1     -11.646   8.461 128.536  0.00  0.00    +0.000 A 
ATOM     15  C   UNL     1     -12.583   9.005 129.415  0.00  0.00    +0.000 A 
ATOM     16  C   UNL     1     -12.906   8.291 130.573  0.00  0.00    +0.000 A 
ATOM     17  C   UNL     1     -12.330   7.044 130.846  0.00  0.00    +0.000 A 
BRANCH  15  18
ATOM     18  N   UNL     1     -13.116  10.262 129.197  0.00  0.00    +0.000 N 
ATOM     19  H   UNL     1     -13.051  10.696 128.285  0.00  0.00    +0.000 HD
ATOM     20  H   UNL     1     -13.750  10.673 129.868  0.00  0.00    +0.000 HD
ENDBRANCH  15  18
ENDBRANCH   1  12
TORSDOF 3
ENDMDL
MODEL 3
REMARK VINA RESULT:      -6.9      9.780     10.315
REMARK  Name = Sulfamethoxazole
REMARK  4 active torsions:
REMARK  status: ('A' for Active; 'I' for Inactive)
REMARK    1  A    between atoms: C_1  and  C_2
REMARK    2  A    between atoms: N_5  and  S_6
REMARK    3  A    between atoms: S_6  and  C_9
REMARK    4  A    between atoms: C_12  and  N_13
REMARK                            x       y       z     vdW  Elec       q    Type
REMARK                         _______ _______ _______ _____ _____    ______ ____
ROOT
ATOM      1  S   UNL     1      -9.483   5.873 131.615  0.00  0.00    +0.000 S 
ATOM      2  O   UNL     1      -9.505   6.353 132.978  0.00  0.00    +0.000 OA
ATOM      3  O   UNL     1      -8.250   5.859 130.849  0.00  0.00    +0.000 OA
ENDROOT
BRANCH   1   8
ATOM      4  C   UNL     1      -6.563   1.453 133.732  0.00  0.00    +0.000 C 
ATOM      5  C   UNL     1      -7.745   2.057 133.094  0.00  0.00    +0.000 A 
ATOM      6  C   UNL     1      -8.052   3.343 132.738  0.00  0.00    +0.000 A 
ATOM      7  C   UNL     1      -9.331   3.265 132.158  0.00  0.00    +0.000 A 
ATOM      8  N   UNL     1     -10.080   4.309 131.626  0.00  0.00    +0.000 N 
ATOM      9  N   UNL     1      -9.790   2.008 132.165  0.00  0.00    +0.000 NA
ATOM     10  O   UNL     1      -8.785   1.245 132.759  0.00  0.00    +0.000 OA
ATOM     11  H   UNL     1     -10.984   4.066 131.245  0.00  0.00    +0.000 HD
ENDBRANCH   1   8
BRANCH   1  12
ATOM     12  C   UNL     1     -10.614   6.901 130.706  0.00  0.00    +0.000 A 
ATOM     13  C   UNL     1     -10.125   7.544 129.558  0.00  0.00    +0.000 A 
ATOM     14  C   UNL     1     -10.965   8.371 128.802  0.00  0.00    +0.000 A 
ATOM     15  C   UNL     1     -12.300   8.550 129.166  0.00  0.00    +0.000 A 
ATOM     16  C   UNL     1     -12.770   7.913 130.318  0.00  0.00    +0.000 A 
ATOM     17  C   UNL     1     -11.939   7.090 131.088  0.00  0.00    +0.000 A 
BRANCH  15  18
ATOM     18  N   UNL     1     -13.120   9.408 128.457  0.00  0.00    +0.000 N 
ATOM     19  H   UNL     1     -13.795   9.045 127.796  0.00  0.00    +0.000 HD
ATOM     20  H   UNL     1     -13.206  10.377 128.731  0.00  0.00    +0.000 HD
ENDBRANCH  15  18
ENDBRANCH   1  12
TORSDOF 3
ENDMDL
MODEL 4
REMARK VINA RESULT:      -6.9     10.061     11.487
REMARK  Name = Sulfamethoxazole
REMARK  4 active torsions:
REMARK  status: ('A' for Active; 'I' for Inactive)
REMARK    1  A    between atoms: C_1  and  C_2
REMARK    2  A    between atoms: N_5  and  S_6
REMARK    3  A    between atoms: S_6  and  C_9
REMARK    4  A    between atoms: C_12  and  N_13
REMARK                            x       y       z     vdW  Elec       q    Type
REMARK                         _______ _______ _______ _____ _____    ______ ____
ROOT
ATOM      1  S   UNL     1      -9.663   6.078 131.578  0.00  0.00    +0.000 S 
ATOM      2  O   UNL     1     -10.675   6.646 132.442  0.00  0.00    +0.000 OA
ATOM      3  O   UNL     1      -9.859   4.783 130.953  0.00  0.00    +0.000 OA
ENDROOT
BRANCH   1   8
ATOM      4  C   UNL     1     -13.618   7.570 127.745  0.00  0.00    +0.000 C 
ATOM      5  C   UNL     1     -12.270   7.647 128.335  0.00  0.00    +0.000 A 
ATOM      6  C   UNL     1     -11.691   7.029 129.411  0.00  0.00    +0.000 A 
ATOM      7  C   UNL     1     -10.373   7.518 129.446  0.00  0.00    +0.000 A 
ATOM      8  N   UNL     1      -9.374   7.183 130.354  0.00  0.00    +0.000 N 
ATOM      9  N   UNL     1     -10.154   8.391 128.456  0.00  0.00    +0.000 NA
ATOM     10  O   UNL     1     -11.356   8.472 127.754  0.00  0.00    +0.000 OA
ATOM     11  H   UNL     1      -8.478   7.632 130.224  0.00  0.00    +0.000 HD
ENDBRANCH   1   8
BRANCH   1  12
ATOM     12  C   UNL     1      -8.191   5.931 132.564  0.00  0.00    +0.000 A 
ATOM     13  C   UNL     1      -6.962   6.182 131.933  0.00  0.00    +0.000 A 
ATOM     14  C   UNL     1      -5.767   6.077 132.654  0.00  0.00    +0.000 A 
ATOM     15  C   UNL     1      -5.781   5.744 134.009  0.00  0.00    +0.000 A 
ATOM     16  C   UNL     1      -7.011   5.486 134.621  0.00  0.00    +0.000 A 
ATOM     17  C   UNL     1      -8.214   5.579 133.910  0.00  0.00    +0.000 A 
BRANCH  15  18
ATOM     18  N   UNL     1      -4.602   5.585 134.713  0.00  0.00    +0.000 N 
ATOM     19  H   UNL     1      -4.601   5.134 135.620  0.00  0.00    +0.000 HD
ATOM     20  H   UNL     1      -3.711   5.724 134.257  0.00  0.00    +0.000 HD
ENDBRANCH  15  18
ENDBRANCH   1  12
TORSDOF 3
ENDMDL
MODEL 5
REMARK VINA RESULT:      -6.8      9.680     11.366
REMARK  Name = Sulfamethoxazole
REMARK  4 active torsions:
REMARK  status: ('A' for Active; 'I' for Inactive)
REMARK    1  A    between atoms: C_1  and  C_2
REMARK    2  A    between atoms: N_5  and  S_6
REMARK    3  A    between atoms: S_6  and  C_9
REMARK    4  A    between atoms: C_12  and  N_13
REMARK                            x       y       z     vdW  Elec       q    Type
REMARK                         _______ _______ _______ _____ _____    ______ ____
ROOT
ATOM      1  S   UNL     1     -10.089   6.206 131.477  0.00  0.00    +0.000 S 
ATOM      2  O   UNL     1      -9.079   7.127 131.005  0.00  0.00    +0.000 OA
ATOM      3  O   UNL     1     -10.999   6.581 132.544  0.00  0.00    +0.000 OA
ENDROOT
BRANCH   1   8
ATOM      4  C   UNL     1     -13.517   9.866 128.755  0.00  0.00    +0.000 C 
ATOM      5  C   UNL     1     -12.911   8.538 128.952  0.00  0.00    +0.000 A 
ATOM      6  C   UNL     1     -12.000   8.058 129.855  0.00  0.00    +0.000 A 
ATOM      7  C   UNL     1     -11.841   6.701 129.524  0.00  0.00    +0.000 A 
ATOM      8  N   UNL     1     -11.023   5.770 130.158  0.00  0.00    +0.000 N 
ATOM      9  N   UNL     1     -12.601   6.365 128.476  0.00  0.00    +0.000 NA
ATOM     10  O   UNL     1     -13.277   7.529 128.114  0.00  0.00    +0.000 OA
ATOM     11  H   UNL     1     -11.038   4.831 129.785  0.00  0.00    +0.000 HD
ENDBRANCH   1   8
BRANCH   1  12
ATOM     12  C   UNL     1      -9.222   4.766 132.054  0.00  0.00    +0.000 A 
ATOM     13  C   UNL     1      -8.700   3.894 131.085  0.00  0.00    +0.000 A 
ATOM     14  C   UNL     1      -8.010   2.739 131.476  0.00  0.00    +0.000 A 
ATOM     15  C   UNL     1      -7.815   2.451 132.828  0.00  0.00    +0.000 A 
ATOM     16  C   UNL     1      -8.350   3.323 133.780  0.00  0.00    +0.000 A 
ATOM     17  C   UNL     1      -9.049   4.477 133.404  0.00  0.00    +0.000 A 
BRANCH  15  18
ATOM     18  N   UNL     1      -7.184   1.286 133.221  0.00  0.00    +0.000 N 
ATOM     19  H   UNL     1      -7.703   0.420 133.294  0.00  0.00    +0.000 HD
ATOM     20  H   UNL     1      -6.175   1.232 133.240  0.00  0.00    +0.000 HD
ENDBRANCH  15  18
ENDBRANCH   1  12
TORSDOF 3
ENDMDL
MODEL 6
REMARK VINA RESULT:      -6.7      9.548     10.727
REMARK  Name = Sulfamethoxazole
REMARK  4 active torsions:
REMARK  status: ('A' for Active; 'I' for Inactive)
REMARK    1  A    between atoms: C_1  and  C_2
REMARK    2  A    between atoms: N_5  and  S_6
REMARK    3  A    between atoms: S_6  and  C_9
REMARK    4  A    between atoms: C_12  and  N_13
REMARK                            x       y       z     vdW  Elec       q    Type
REMARK                         _______ _______ _______ _____ _____    ______ ____
ROOT
ATOM      1  S   UNL     1     -10.624   4.884 130.154  0.00  0.00    +0.000 S 
ATOM      2  O   UNL     1      -9.482   4.716 129.283  0.00  0.00    +0.000 OA
ATOM      3  O   UNL     1     -11.731   3.947 130.119  0.00  0.00    +0.000 OA
ENDROOT
BRANCH   1   8
ATOM      4  C   UNL     1      -5.434   6.819 131.524  0.00  0.00    +0.000 C 
ATOM      5  C   UNL     1      -6.751   6.249 131.860  0.00  0.00    +0.000 A 
ATOM      6  C   UNL     1      -7.838   5.915 131.098  0.00  0.00    +0.000 A 
ATOM      7  C   UNL     1      -8.779   5.405 132.011  0.00  0.00    +0.000 A 
ATOM      8  N   UNL     1     -10.051   4.920 131.727  0.00  0.00    +0.000 N 
ATOM      9  N   UNL     1      -8.303   5.431 133.262  0.00  0.00    +0.000 NA
ATOM     10  O   UNL     1      -7.019   5.965 133.164  0.00  0.00    +0.000 OA
ATOM     11  H   UNL     1     -10.592   4.587 132.513  0.00  0.00    +0.000 HD
ENDBRANCH   1   8
BRANCH   1  12
ATOM     12  C   UNL     1     -11.314   6.476 129.770  0.00  0.00    +0.000 A 
ATOM     13  C   UNL     1     -12.265   7.001 130.659  0.00  0.00    +0.000 A 
ATOM     14  C   UNL     1     -12.849   8.249 130.409  0.00  0.00    +0.000 A 
ATOM     15  C   UNL     1     -12.481   8.995 129.288  0.00  0.00    +0.000 A 
ATOM     16  C   UNL     1     -11.542   8.454 128.405  0.00  0.00    +0.000 A 
ATOM     17  C   UNL     1     -10.955   7.204 128.639  0.00  0.00    +0.000 A 
BRANCH  15  18
ATOM     18  N   UNL     1     -13.093  10.201 129.006  0.00  0.00    +0.000 N 
ATOM     19  H   UNL     1     -12.580  11.070 129.088  0.00  0.00    +0.000 HD
ATOM     20  H   UNL     1     -13.981  10.224 128.522  0.00  0.00    +0.000 HD
ENDBRANCH  15  18
ENDBRANCH   1  12
TORSDOF 3
ENDMDL
MODEL 7
REMARK VINA RESULT:      -6.6      8.406      9.272
REMARK  Name = Sulfamethoxazole
REMARK  4 active torsions:
REMARK  status: ('A' for Active; 'I' for Inactive)
REMARK    1  A    between atoms: C_1  and  C_2
REMARK    2  A    between atoms: N_5  and  S_6
REMARK    3  A    between atoms: S_6  and  C_9
REMARK    4  A    between atoms: C_12  and  N_13
REMARK                            x       y       z     vdW  Elec       q    Type
REMARK                         _______ _______ _______ _____ _____    ______ ____
ROOT
ATOM      1  S   UNL     1     -10.546   5.054 130.436  0.00  0.00    +0.000 S 
ATOM      2  O   UNL     1     -11.493   4.029 130.056  0.00  0.00    +0.000 OA
ATOM      3  O   UNL     1     -10.140   5.217 131.819  0.00  0.00    +0.000 OA
ENDROOT
BRANCH   1   8
ATOM      4  C   UNL     1      -7.874   0.019 130.168  0.00  0.00    +0.000 C 
ATOM      5  C   UNL     1      -8.028   1.441 129.814  0.00  0.00    +0.000 A 
ATOM      6  C   UNL     1      -8.960   2.385 130.152  0.00  0.00    +0.000 A 
ATOM      7  C   UNL     1      -8.543   3.559 129.499  0.00  0.00    +0.000 A 
ATOM      8  N   UNL     1      -9.156   4.807 129.536  0.00  0.00    +0.000 N 
ATOM      9  N   UNL     1      -7.426   3.349 128.793  0.00  0.00    +0.000 NA
ATOM     10  O   UNL     1      -7.102   2.007 128.993  0.00  0.00    +0.000 OA
ATOM     11  H   UNL     1      -8.711   5.543 129.004  0.00  0.00    +0.000 HD
ENDBRANCH   1   8
BRANCH   1  12
ATOM     12  C   UNL     1     -11.265   6.604 129.947  0.00  0.00    +0.000 A 
ATOM     13  C   UNL     1     -12.267   7.141 130.771  0.00  0.00    +0.000 A 
ATOM     14  C   UNL     1     -12.876   8.356 130.437  0.00  0.00    +0.000 A 
ATOM     15  C   UNL     1     -12.484   9.059 129.297  0.00  0.00    +0.000 A 
ATOM     16  C   UNL     1     -11.494   8.506 128.480  0.00  0.00    +0.000 A 
ATOM     17  C   UNL     1     -10.881   7.287 128.797  0.00  0.00    +0.000 A 
BRANCH  15  18
ATOM     18  N   UNL     1     -13.119  10.231 128.932  0.00  0.00    +0.000 N 
ATOM     19  H   UNL     1     -13.866  10.609 129.501  0.00  0.00    +0.000 HD
ATOM     20  H   UNL     1     -12.721  10.829 128.222  0.00  0.00    +0.000 HD
ENDBRANCH  15  18
ENDBRANCH   1  12
TORSDOF 3
ENDMDL
MODEL 8
REMARK VINA RESULT:      -6.6      2.695      6.007
REMARK  Name = Sulfamethoxazole
REMARK  4 active torsions:
REMARK  status: ('A' for Active; 'I' for Inactive)
REMARK    1  A    between atoms: C_1  and  C_2
REMARK    2  A    between atoms: N_5  and  S_6
REMARK    3  A    between atoms: S_6  and  C_9
REMARK    4  A    between atoms: C_12  and  N_13
REMARK                            x       y       z     vdW  Elec       q    Type
REMARK                         _______ _______ _______ _____ _____    ______ ____
ROOT
ATOM      1  S   UNL     1      -8.654   1.759 124.819  0.00  0.00    +0.000 S 
ATOM      2  O   UNL     1      -9.312   1.488 126.078  0.00  0.00    +0.000 OA
ATOM      3  O   UNL     1      -9.423   1.962 123.605  0.00  0.00    +0.000 OA
ENDROOT
BRANCH   1   8
ATOM      4  C   UNL     1      -5.214   3.816 120.758  0.00  0.00    +0.000 C 
ATOM      5  C   UNL     1      -5.814   3.841 122.104  0.00  0.00    +0.000 A 
ATOM      6  C   UNL     1      -6.733   3.039 122.724  0.00  0.00    +0.000 A 
ATOM      7  C   UNL     1      -6.879   3.583 124.013  0.00  0.00    +0.000 A 
ATOM      8  N   UNL     1      -7.699   3.117 125.036  0.00  0.00    +0.000 N 
ATOM      9  N   UNL     1      -6.103   4.660 124.175  0.00  0.00    +0.000 NA
ATOM     10  O   UNL     1      -5.429   4.822 122.965  0.00  0.00    +0.000 OA
ATOM     11  H   UNL     1      -7.674   3.634 125.904  0.00  0.00    +0.000 HD
ENDBRANCH   1   8
BRANCH   1  12
ATOM     12  C   UNL     1      -7.592   0.369 124.502  0.00  0.00    +0.000 A 
ATOM     13  C   UNL     1      -7.881  -0.423 123.379  0.00  0.00    +0.000 A 
ATOM     14  C   UNL     1      -7.085  -1.535 123.079  0.00  0.00    +0.000 A 
ATOM     15  C   UNL     1      -5.986  -1.859 123.875  0.00  0.00    +0.000 A 
ATOM     16  C   UNL     1      -5.717  -1.067 124.996  0.00  0.00    +0.000 A 
ATOM     17  C   UNL     1      -6.510   0.043 125.313  0.00  0.00    +0.000 A 
BRANCH  15  18
ATOM     18  N   UNL     1      -5.229  -2.986 123.616  0.00  0.00    +0.000 N 
ATOM     19  H   UNL     1      -5.039  -3.270 122.664  0.00  0.00    +0.000 HD
ATOM     20  H   UNL     1      -4.688  -3.419 124.352  0.00  0.00    +0.000 HD
ENDBRANCH  15  18
ENDBRANCH   1  12
TORSDOF 3
ENDMDL
MODEL 9
REMARK VINA RESULT:      -6.5     10.272     11.566
REMARK  Name = Sulfamethoxazole
REMARK  4 active torsions:
REMARK  status: ('A' for Active; 'I' for Inactive)
REMARK    1  A    between atoms: C_1  and  C_2
REMARK    2  A    between atoms: N_5  and  S_6
REMARK    3  A    between atoms: S_6  and  C_9
REMARK    4  A    between atoms: C_12  and  N_13
REMARK                            x       y       z     vdW  Elec       q    Type
REMARK                         _______ _______ _______ _____ _____    ______ ____
ROOT
ATOM      1  S   UNL     1      -8.746   6.258 130.918  0.00  0.00    +0.000 S 
ATOM      2  O   UNL     1      -8.808   5.002 130.204  0.00  0.00    +0.000 OA
ATOM      3  O   UNL     1      -8.446   7.496 130.223  0.00  0.00    +0.000 OA
ENDROOT
BRANCH   1   8
ATOM      4  C   UNL     1     -13.614   7.249 128.111  0.00  0.00    +0.000 C 
ATOM      5  C   UNL     1     -12.830   7.040 129.341  0.00  0.00    +0.000 A 
ATOM      6  C   UNL     1     -11.502   6.788 129.563  0.00  0.00    +0.000 A 
ATOM      7  C   UNL     1     -11.378   6.701 130.961  0.00  0.00    +0.000 A 
ATOM      8  N   UNL     1     -10.217   6.466 131.691  0.00  0.00    +0.000 N 
ATOM      9  N   UNL     1     -12.559   6.879 131.565  0.00  0.00    +0.000 NA
ATOM     10  O   UNL     1     -13.477   7.093 130.537  0.00  0.00    +0.000 OA
ATOM     11  H   UNL     1     -10.315   6.440 132.696  0.00  0.00    +0.000 HD
ENDBRANCH   1   8
BRANCH   1  12
ATOM     12  C   UNL     1      -7.483   6.068 132.154  0.00  0.00    +0.000 A 
ATOM     13  C   UNL     1      -7.887   5.662 133.436  0.00  0.00    +0.000 A 
ATOM     14  C   UNL     1      -6.939   5.500 134.454  0.00  0.00    +0.000 A 
ATOM     15  C   UNL     1      -5.584   5.718 134.205  0.00  0.00    +0.000 A 
ATOM     16  C   UNL     1      -5.198   6.133 132.927  0.00  0.00    +0.000 A 
ATOM     17  C   UNL     1      -6.136   6.307 131.902  0.00  0.00    +0.000 A 
BRANCH  15  18
ATOM     18  N   UNL     1      -4.650   5.613 135.219  0.00  0.00    +0.000 N 
ATOM     19  H   UNL     1      -4.054   4.798 135.287  0.00  0.00    +0.000 HD
ATOM     20  H   UNL     1      -4.405   6.421 135.775  0.00  0.00    +0.000 HD
ENDBRANCH  15  18
ENDBRANCH   1  12
TORSDOF 3
ENDMDL
