MODEL 1
REMARK VINA RESULT:      -7.2      0.000      0.000
REMARK  Name = Sulfamethazine
REMARK  5 active torsions:
REMARK  status: ('A' for Active; 'I' for Inactive)
REMARK    1  A    between atoms: C_1  and  C_2
REMARK    2  A    between atoms: C_4  and  C_5
REMARK    3  A    between atoms: N_8  and  S_9
REMARK    4  A    between atoms: S_9  and  C_12
REMARK    5  A    between atoms: C_15  and  N_16
REMARK                            x       y       z     vdW  Elec       q    Type
REMARK                         _______ _______ _______ _____ _____    ______ ____
ROOT
ATOM      1  S   UNL     1      -7.327   2.758 123.336  0.00  0.00    +0.000 S 
ATOM      2  O   UNL     1      -8.476   3.479 123.838  0.00  0.00    +0.000 OA
ATOM      3  O   UNL     1      -6.078   2.694 124.074  0.00  0.00    +0.000 OA
ENDROOT
BRANCH   1  11
ATOM      4  C   UNL     1      -8.171   0.309 127.600  0.00  0.00    +0.000 C 
ATOM      5  C   UNL     1      -8.297  -0.180 126.192  0.00  0.00    +0.000 A 
ATOM      6  C   UNL     1      -8.698  -1.466 125.899  0.00  0.00    +0.000 A 
ATOM      7  C   UNL     1      -8.783  -1.796 124.556  0.00  0.00    +0.000 A 
ATOM      8  C   UNL     1      -9.236  -3.178 124.163  0.00  0.00    +0.000 C 
ATOM      9  N   UNL     1      -8.482  -0.910 123.570  0.00  0.00    +0.000 NA
ATOM     10  C   UNL     1      -8.100   0.314 123.976  0.00  0.00    +0.000 A 
ATOM     11  N   UNL     1      -7.794   1.211 122.950  0.00  0.00    +0.000 N 
ATOM     12  N   UNL     1      -7.996   0.716 125.237  0.00  0.00    +0.000 NA
ATOM     13  H   UNL     1      -7.887   0.842 122.019  0.00  0.00    +0.000 HD
ENDBRANCH   1  11
BRANCH   1  14
ATOM     14  C   UNL     1      -6.902   3.586 121.800  0.00  0.00    +0.000 A 
ATOM     15  C   UNL     1      -5.612   4.132 121.683  0.00  0.00    +0.000 A 
ATOM     16  C   UNL     1      -5.228   4.794 120.506  0.00  0.00    +0.000 A 
ATOM     17  C   UNL     1      -6.107   4.902 119.429  0.00  0.00    +0.000 A 
ATOM     18  C   UNL     1      -7.391   4.365 119.564  0.00  0.00    +0.000 A 
ATOM     19  C   UNL     1      -7.792   3.708 120.736  0.00  0.00    +0.000 A 
BRANCH  17  20
ATOM     20  N   UNL     1      -5.759   5.607 118.290  0.00  0.00    +0.000 N 
ATOM     21  H   UNL     1      -6.390   5.650 117.501  0.00  0.00    +0.000 HD
ATOM     22  H   UNL     1      -4.994   6.270 118.314  0.00  0.00    +0.000 HD
ENDBRANCH  17  20
ENDBRANCH   1  14
TORSDOF 3
ENDMDL
MODEL 2
REMARK VINA RESULT:      -6.7      8.647      9.538
REMARK  Name = Sulfamethazine
REMARK  5 active torsions:
REMARK  status: ('A' for Active; 'I' for Inactive)
REMARK    1  A    between atoms: C_1  and  C_2
REMARK    2  A    between atoms: C_4  and  C_5
REMARK    3  A    between atoms: N_8  and  S_9
REMARK    4  A    between atoms: S_9  and  C_12
REMARK    5  A    between atoms: C_15  and  N_16
REMARK                            x       y       z     vdW  Elec       q    Type
REMARK                         _______ _______ _______ _____ _____    ______ ____
ROOT
ATOM      1  S   UNL     1      -9.339   6.254 131.150  0.00  0.00    +0.000 S 
ATOM      2  O   UNL     1      -9.561   6.489 132.560  0.00  0.00    +0.000 OA
ATOM      3  O   UNL     1      -8.102   6.637 130.493  0.00  0.00    +0.000 OA
ENDROOT
BRANCH   1  11
ATOM      4  C   UNL     1      -6.614   3.506 134.299  0.00  0.00    +0.000 C 
ATOM      5  C   UNL     1      -7.558   3.056 133.230  0.00  0.00    +0.000 A 
ATOM      6  C   UNL     1      -7.800   1.721 132.985  0.00  0.00    +0.000 A 
ATOM      7  C   UNL     1      -8.702   1.431 131.974  0.00  0.00    +0.000 A 
ATOM      8  C   UNL     1      -9.029  -0.007 131.666  0.00  0.00    +0.000 C 
ATOM      9  N   UNL     1      -9.316   2.403 131.249  0.00  0.00    +0.000 NA
ATOM     10  C   UNL     1      -9.000   3.668 131.576  0.00  0.00    +0.000 A 
ATOM     11  N   UNL     1      -9.641   4.654 130.820  0.00  0.00    +0.000 N 
ATOM     12  N   UNL     1      -8.154   4.036 132.530  0.00  0.00    +0.000 NA
ATOM     13  H   UNL     1     -10.263   4.310 130.110  0.00  0.00    +0.000 HD
ENDBRANCH   1  11
BRANCH   1  14
ATOM     14  C   UNL     1     -10.607   7.218 130.320  0.00  0.00    +0.000 A 
ATOM     15  C   UNL     1     -10.265   7.857 129.116  0.00  0.00    +0.000 A 
ATOM     16  C   UNL     1     -11.216   8.627 128.428  0.00  0.00    +0.000 A 
ATOM     17  C   UNL     1     -12.517   8.753 128.913  0.00  0.00    +0.000 A 
ATOM     18  C   UNL     1     -12.840   8.122 130.119  0.00  0.00    +0.000 A 
ATOM     19  C   UNL     1     -11.899   7.357 130.822  0.00  0.00    +0.000 A 
BRANCH  17  20
ATOM     20  N   UNL     1     -13.442   9.561 128.275  0.00  0.00    +0.000 N 
ATOM     21  H   UNL     1     -13.192  10.055 127.429  0.00  0.00    +0.000 HD
ATOM     22  H   UNL     1     -14.426   9.490 128.502  0.00  0.00    +0.000 HD
ENDBRANCH  17  20
ENDBRANCH   1  14
TORSDOF 3
ENDMDL
MODEL 3
REMARK VINA RESULT:      -6.7      8.946     10.355
REMARK  Name = Sulfamethazine
REMARK  5 active torsions:
REMARK  status: ('A' for Active; 'I' for Inactive)
REMARK    1  A    between atoms: C_1  and  C_2
REMARK    2  A    between atoms: C_4  and  C_5
REMARK    3  A    between atoms: N_8  and  S_9
REMARK    4  A    between atoms: S_9  and  C_12
REMARK    5  A    between atoms: C_15  and  N_16
REMARK                            x       y       z     vdW  Elec       q    Type
REMARK                         _______ _______ _______ _____ _____    ______ ____
ROOT
ATOM      1  S   UNL     1     -10.586   5.753 130.226  0.00  0.00    +0.000 S 
ATOM      2  O   UNL     1      -9.661   5.596 129.126  0.00  0.00    +0.000 OA
ATOM      3  O   UNL     1     -11.565   4.733 130.558  0.00  0.00    +0.000 OA
ENDROOT
BRANCH   1  11
ATOM      4  C   UNL     1      -8.935   1.482 132.209  0.00  0.00    +0.000 C 
ATOM      5  C   UNL     1      -8.735   2.884 132.690  0.00  0.00    +0.000 A 
ATOM      6  C   UNL     1      -8.007   3.169 133.826  0.00  0.00    +0.000 A 
ATOM      7  C   UNL     1      -7.886   4.507 134.164  0.00  0.00    +0.000 A 
ATOM      8  C   UNL     1      -7.087   4.891 135.382  0.00  0.00    +0.000 C 
ATOM      9  N   UNL     1      -8.458   5.496 133.428  0.00  0.00    +0.000 NA
ATOM     10  C   UNL     1      -9.146   5.099 132.343  0.00  0.00    +0.000 A 
ATOM     11  N   UNL     1      -9.727   6.128 131.599  0.00  0.00    +0.000 N 
ATOM     12  N   UNL     1      -9.308   3.843 131.943  0.00  0.00    +0.000 NA
ATOM     13  H   UNL     1      -9.573   7.054 131.958  0.00  0.00    +0.000 HD
ENDBRANCH   1  11
BRANCH   1  14
ATOM     14  C   UNL     1     -11.565   7.197 129.799  0.00  0.00    +0.000 A 
ATOM     15  C   UNL     1     -11.617   7.580 128.448  0.00  0.00    +0.000 A 
ATOM     16  C   UNL     1     -12.364   8.704 128.059  0.00  0.00    +0.000 A 
ATOM     17  C   UNL     1     -13.083   9.442 128.999  0.00  0.00    +0.000 A 
ATOM     18  C   UNL     1     -13.012   9.057 130.341  0.00  0.00    +0.000 A 
ATOM     19  C   UNL     1     -12.264   7.942 130.746  0.00  0.00    +0.000 A 
BRANCH  17  20
ATOM     20  N   UNL     1     -13.769  10.587 128.633  0.00  0.00    +0.000 N 
ATOM     21  H   UNL     1     -13.762  11.402 129.233  0.00  0.00    +0.000 HD
ATOM     22  H   UNL     1     -14.085  10.711 127.680  0.00  0.00    +0.000 HD
ENDBRANCH  17  20
ENDBRANCH   1  14
TORSDOF 3
ENDMDL
MODEL 4
REMARK VINA RESULT:      -6.6      9.864     10.716
REMARK  Name = Sulfamethazine
REMARK  5 active torsions:
REMARK  status: ('A' for Active; 'I' for Inactive)
REMARK    1  A    between atoms: C_1  and  C_2
REMARK    2  A    between atoms: C_4  and  C_5
REMARK    3  A    between atoms: N_8  and  S_9
REMARK    4  A    between atoms: S_9  and  C_12
REMARK    5  A    between atoms: C_15  and  N_16
REMARK                            x       y       z     vdW  Elec       q    Type
REMARK                         _______ _______ _______ _____ _____    ______ ____
ROOT
ATOM      1  S   UNL     1      -9.436   6.192 131.349  0.00  0.00    +0.000 S 
ATOM      2  O   UNL     1      -9.498   4.819 130.900  0.00  0.00    +0.000 OA
ATOM      3  O   UNL     1      -9.667   6.558 132.735  0.00  0.00    +0.000 OA
ENDROOT
BRANCH   1  11
ATOM      4  C   UNL     1      -5.912   4.643 134.523  0.00  0.00    +0.000 C 
ATOM      5  C   UNL     1      -5.778   5.529 133.326  0.00  0.00    +0.000 A 
ATOM      6  C   UNL     1      -4.562   6.051 132.936  0.00  0.00    +0.000 A 
ATOM      7  C   UNL     1      -4.567   6.852 131.805  0.00  0.00    +0.000 A 
ATOM      8  C   UNL     1      -3.271   7.439 131.311  0.00  0.00    +0.000 C 
ATOM      9  N   UNL     1      -5.704   7.122 131.112  0.00  0.00    +0.000 NA
ATOM     10  C   UNL     1      -6.830   6.560 131.587  0.00  0.00    +0.000 A 
ATOM     11  N   UNL     1      -7.989   6.849 130.862  0.00  0.00    +0.000 N 
ATOM     12  N   UNL     1      -6.916   5.779 132.656  0.00  0.00    +0.000 NA
ATOM     13  H   UNL     1      -7.856   7.451 130.068  0.00  0.00    +0.000 HD
ENDBRANCH   1  11
BRANCH   1  14
ATOM     14  C   UNL     1     -10.736   7.032 130.438  0.00  0.00    +0.000 A 
ATOM     15  C   UNL     1     -10.364   7.808 129.326  0.00  0.00    +0.000 A 
ATOM     16  C   UNL     1     -11.339   8.490 128.580  0.00  0.00    +0.000 A 
ATOM     17  C   UNL     1     -12.690   8.392 128.915  0.00  0.00    +0.000 A 
ATOM     18  C   UNL     1     -13.044   7.627 130.031  0.00  0.00    +0.000 A 
ATOM     19  C   UNL     1     -12.080   6.947 130.790  0.00  0.00    +0.000 A 
BRANCH  17  20
ATOM     20  N   UNL     1     -13.650   9.111 128.225  0.00  0.00    +0.000 N 
ATOM     21  H   UNL     1     -14.628   9.024 128.468  0.00  0.00    +0.000 HD
ATOM     22  H   UNL     1     -13.381   9.892 127.640  0.00  0.00    +0.000 HD
ENDBRANCH  17  20
ENDBRANCH   1  14
TORSDOF 3
ENDMDL
MODEL 5
REMARK VINA RESULT:      -6.5      9.359     10.520
REMARK  Name = Sulfamethazine
REMARK  5 active torsions:
REMARK  status: ('A' for Active; 'I' for Inactive)
REMARK    1  A    between atoms: C_1  and  C_2
REMARK    2  A    between atoms: C_4  and  C_5
REMARK    3  A    between atoms: N_8  and  S_9
REMARK    4  A    between atoms: S_9  and  C_12
REMARK    5  A    between atoms: C_15  and  N_16
REMARK                            x       y       z     vdW  Elec       q    Type
REMARK                         _______ _______ _______ _____ _____    ______ ____
ROOT
ATOM      1  S   UNL     1     -10.584   4.589 130.318  0.00  0.00    +0.000 S 
ATOM      2  O   UNL     1      -9.364   4.606 129.542  0.00  0.00    +0.000 OA
ATOM      3  O   UNL     1     -11.659   3.654 130.039  0.00  0.00    +0.000 OA
ENDROOT
BRANCH   1  11
ATOM      4  C   UNL     1      -6.138   6.762 130.958  0.00  0.00    +0.000 C 
ATOM      5  C   UNL     1      -7.025   6.114 131.973  0.00  0.00    +0.000 A 
ATOM      6  C   UNL     1      -6.681   6.048 133.306  0.00  0.00    +0.000 A 
ATOM      7  C   UNL     1      -7.590   5.429 134.149  0.00  0.00    +0.000 A 
ATOM      8  C   UNL     1      -7.288   5.339 135.623  0.00  0.00    +0.000 C 
ATOM      9  N   UNL     1      -8.759   4.904 133.697  0.00  0.00    +0.000 NA
ATOM     10  C   UNL     1      -8.986   5.025 132.377  0.00  0.00    +0.000 A 
ATOM     11  N   UNL     1     -10.191   4.480 131.929  0.00  0.00    +0.000 N 
ATOM     12  N   UNL     1      -8.175   5.605 131.500  0.00  0.00    +0.000 NA
ATOM     13  H   UNL     1     -10.756   4.050 132.641  0.00  0.00    +0.000 HD
ENDBRANCH   1  11
BRANCH   1  14
ATOM     14  C   UNL     1     -11.316   6.209 130.056  0.00  0.00    +0.000 A 
ATOM     15  C   UNL     1     -10.875   6.958 128.952  0.00  0.00    +0.000 A 
ATOM     16  C   UNL     1     -11.410   8.232 128.703  0.00  0.00    +0.000 A 
ATOM     17  C   UNL     1     -12.399   8.765 129.530  0.00  0.00    +0.000 A 
ATOM     18  C   UNL     1     -12.819   8.013 130.631  0.00  0.00    +0.000 A 
ATOM     19  C   UNL     1     -12.288   6.742 130.898  0.00  0.00    +0.000 A 
BRANCH  17  20
ATOM     20  N   UNL     1     -12.886  10.045 129.328  0.00  0.00    +0.000 N 
ATOM     21  H   UNL     1     -12.925  10.436 128.397  0.00  0.00    +0.000 HD
ATOM     22  H   UNL     1     -13.416  10.510 130.054  0.00  0.00    +0.000 HD
ENDBRANCH  17  20
ENDBRANCH   1  14
TORSDOF 3
ENDMDL
MODEL 6
REMARK VINA RESULT:      -6.4      1.859      2.477
REMARK  Name = Sulfamethazine
REMARK  5 active torsions:
REMARK  status: ('A' for Active; 'I' for Inactive)
REMARK    1  A    between atoms: C_1  and  C_2
REMARK    2  A    between atoms: C_4  and  C_5
REMARK    3  A    between atoms: N_8  and  S_9
REMARK    4  A    between atoms: S_9  and  C_12
REMARK    5  A    between atoms: C_15  and  N_16
REMARK                            x       y       z     vdW  Elec       q    Type
REMARK                         _______ _______ _______ _____ _____    ______ ____
ROOT
ATOM      1  S   UNL     1      -7.411   2.596 124.793  0.00  0.00    +0.000 S 
ATOM      2  O   UNL     1      -8.774   2.176 125.031  0.00  0.00    +0.000 OA
ATOM      3  O   UNL     1      -6.811   3.702 125.519  0.00  0.00    +0.000 OA
ENDROOT
BRANCH   1  11
ATOM      4  C   UNL     1      -9.664  -1.243 122.539  0.00  0.00    +0.000 C 
ATOM      5  C   UNL     1      -8.335  -1.200 123.223  0.00  0.00    +0.000 A 
ATOM      6  C   UNL     1      -7.520  -2.309 123.305  0.00  0.00    +0.000 A 
ATOM      7  C   UNL     1      -6.309  -2.140 123.957  0.00  0.00    +0.000 A 
ATOM      8  C   UNL     1      -5.360  -3.305 124.066  0.00  0.00    +0.000 C 
ATOM      9  N   UNL     1      -5.936  -0.951 124.499  0.00  0.00    +0.000 NA
ATOM     10  C   UNL     1      -6.812   0.059 124.359  0.00  0.00    +0.000 A 
ATOM     11  N   UNL     1      -6.413   1.274 124.922  0.00  0.00    +0.000 N 
ATOM     12  N   UNL     1      -7.989  -0.012 123.748  0.00  0.00    +0.000 NA
ATOM     13  H   UNL     1      -5.516   1.259 125.376  0.00  0.00    +0.000 HD
ENDBRANCH   1  11
BRANCH   1  14
ATOM     14  C   UNL     1      -7.386   3.118 123.075  0.00  0.00    +0.000 A 
ATOM     15  C   UNL     1      -6.154   3.516 122.527  0.00  0.00    +0.000 A 
ATOM     16  C   UNL     1      -6.077   3.938 121.190  0.00  0.00    +0.000 A 
ATOM     17  C   UNL     1      -7.212   3.948 120.379  0.00  0.00    +0.000 A 
ATOM     18  C   UNL     1      -8.433   3.562 120.941  0.00  0.00    +0.000 A 
ATOM     19  C   UNL     1      -8.527   3.146 122.277  0.00  0.00    +0.000 A 
BRANCH  17  20
ATOM     20  N   UNL     1      -7.157   4.423 119.080  0.00  0.00    +0.000 N 
ATOM     21  H   UNL     1      -6.320   4.872 118.734  0.00  0.00    +0.000 HD
ATOM     22  H   UNL     1      -7.845   4.128 118.399  0.00  0.00    +0.000 HD
ENDBRANCH  17  20
ENDBRANCH   1  14
TORSDOF 3
ENDMDL
MODEL 7
REMARK VINA RESULT:      -6.4      6.980      8.831
REMARK  Name = Sulfamethazine
REMARK  5 active torsions:
REMARK  status: ('A' for Active; 'I' for Inactive)
REMARK    1  A    between atoms: C_1  and  C_2
REMARK    2  A    between atoms: C_4  and  C_5
REMARK    3  A    between atoms: N_8  and  S_9
REMARK    4  A    between atoms: S_9  and  C_12
REMARK    5  A    between atoms: C_15  and  N_16
REMARK                            x       y       z     vdW  Elec       q    Type
REMARK                         _______ _______ _______ _____ _____    ______ ____
ROOT
ATOM      1  S   UNL     1     -10.539   5.020 130.501  0.00  0.00    +0.000 S 
ATOM      2  O   UNL     1     -11.489   4.001 130.115  0.00  0.00    +0.000 OA
ATOM      3  O   UNL     1     -10.114   5.191 131.879  0.00  0.00    +0.000 OA
ENDROOT
BRANCH   1  11
ATOM      4  C   UNL     1      -8.680   0.434 131.136  0.00  0.00    +0.000 C 
ATOM      5  C   UNL     1      -8.181   1.540 130.261  0.00  0.00    +0.000 A 
ATOM      6  C   UNL     1      -7.064   1.395 129.467  0.00  0.00    +0.000 A 
ATOM      7  C   UNL     1      -6.707   2.489 128.695  0.00  0.00    +0.000 A 
ATOM      8  C   UNL     1      -5.509   2.394 127.788  0.00  0.00    +0.000 C 
ATOM      9  N   UNL     1      -7.409   3.653 128.718  0.00  0.00    +0.000 NA
ATOM     10  C   UNL     1      -8.479   3.679 129.532  0.00  0.00    +0.000 A 
ATOM     11  N   UNL     1      -9.188   4.882 129.543  0.00  0.00    +0.000 N 
ATOM     12  N   UNL     1      -8.895   2.678 130.300  0.00  0.00    +0.000 NA
ATOM     13  H   UNL     1      -8.818   5.601 128.946  0.00  0.00    +0.000 HD
ENDBRANCH   1  11
BRANCH   1  14
ATOM     14  C   UNL     1     -11.336   6.573 130.078  0.00  0.00    +0.000 A 
ATOM     15  C   UNL     1     -10.902   7.241 128.920  0.00  0.00    +0.000 A 
ATOM     16  C   UNL     1     -11.487   8.461 128.545  0.00  0.00    +0.000 A 
ATOM     17  C   UNL     1     -12.519   9.019 129.300  0.00  0.00    +0.000 A 
ATOM     18  C   UNL     1     -12.932   8.350 130.457  0.00  0.00    +0.000 A 
ATOM     19  C   UNL     1     -12.352   7.135 130.848  0.00  0.00    +0.000 A 
BRANCH  17  20
ATOM     20  N   UNL     1     -13.057  10.251 128.973  0.00  0.00    +0.000 N 
ATOM     21  H   UNL     1     -13.821  10.318 128.314  0.00  0.00    +0.000 HD
ATOM     22  H   UNL     1     -12.862  11.062 129.547  0.00  0.00    +0.000 HD
ENDBRANCH  17  20
ENDBRANCH   1  14
TORSDOF 3
ENDMDL
MODEL 8
REMARK VINA RESULT:      -6.3      8.383      9.519
REMARK  Name = Sulfamethazine
REMARK  5 active torsions:
REMARK  status: ('A' for Active; 'I' for Inactive)
REMARK    1  A    between atoms: C_1  and  C_2
REMARK    2  A    between atoms: C_4  and  C_5
REMARK    3  A    between atoms: N_8  and  S_9
REMARK    4  A    between atoms: S_9  and  C_12
REMARK    5  A    between atoms: C_15  and  N_16
REMARK                            x       y       z     vdW  Elec       q    Type
REMARK                         _______ _______ _______ _____ _____    ______ ____
ROOT
ATOM      1  S   UNL     1     -10.555   5.569 130.504  0.00  0.00    +0.000 S 
ATOM      2  O   UNL     1     -11.260   4.430 129.961  0.00  0.00    +0.000 OA
ATOM      3  O   UNL     1     -10.443   5.793 131.934  0.00  0.00    +0.000 OA
ENDROOT
BRANCH   1  11
ATOM      4  C   UNL     1      -7.764   2.122 132.788  0.00  0.00    +0.000 C 
ATOM      5  C   UNL     1      -7.385   3.068 131.693  0.00  0.00    +0.000 A 
ATOM      6  C   UNL     1      -6.118   3.084 131.150  0.00  0.00    +0.000 A 
ATOM      7  C   UNL     1      -5.892   4.000 130.135  0.00  0.00    +0.000 A 
ATOM      8  C   UNL     1      -4.536   4.059 129.481  0.00  0.00    +0.000 C 
ATOM      9  N   UNL     1      -6.857   4.850 129.696  0.00  0.00    +0.000 NA
ATOM     10  C   UNL     1      -8.053   4.744 130.302  0.00  0.00    +0.000 A 
ATOM     11  N   UNL     1      -9.034   5.624 129.838  0.00  0.00    +0.000 N 
ATOM     12  N   UNL     1      -8.358   3.894 131.275  0.00  0.00    +0.000 NA
ATOM     13  H   UNL     1      -8.737   6.246 129.105  0.00  0.00    +0.000 HD
ENDBRANCH   1  11
BRANCH   1  14
ATOM     14  C   UNL     1     -11.456   6.999 129.894  0.00  0.00    +0.000 A 
ATOM     15  C   UNL     1     -12.304   7.672 130.789  0.00  0.00    +0.000 A 
ATOM     16  C   UNL     1     -13.036   8.793 130.365  0.00  0.00    +0.000 A 
ATOM     17  C   UNL     1     -12.918   9.268 129.059  0.00  0.00    +0.000 A 
ATOM     18  C   UNL     1     -12.080   8.581 128.175  0.00  0.00    +0.000 A 
ATOM     19  C   UNL     1     -11.349   7.455 128.583  0.00  0.00    +0.000 A 
BRANCH  17  20
ATOM     20  N   UNL     1     -13.683  10.333 128.614  0.00  0.00    +0.000 N 
ATOM     21  H   UNL     1     -13.945  11.075 129.250  0.00  0.00    +0.000 HD
ATOM     22  H   UNL     1     -13.792  10.505 127.624  0.00  0.00    +0.000 HD
ENDBRANCH  17  20
ENDBRANCH   1  14
TORSDOF 3
ENDMDL
MODEL 9
REMARK VINA RESULT:      -6.2      8.430     10.385
REMARK  Name = Sulfamethazine
REMARK  5 active torsions:
REMARK  status: ('A' for Active; 'I' for Inactive)
REMARK    1  A    between atoms: C_1  and  C_2
REMARK    2  A    between atoms: C_4  and  C_5
REMARK    3  A    between atoms: N_8  and  S_9
REMARK    4  A    between atoms: S_9  and  C_12
REMARK    5  A    between atoms: C_15  and  N_16
REMARK                            x       y       z     vdW  Elec       q    Type
REMARK                         _______ _______ _______ _____ _____    ______ ____
ROOT
ATOM      1  S   UNL     1      -8.288   0.617 131.688  0.00  0.00    +0.000 S 
ATOM      2  O   UNL     1      -7.792   1.123 130.428  0.00  0.00    +0.000 OA
ATOM      3  O   UNL     1      -9.648   0.127 131.837  0.00  0.00    +0.000 OA
ENDROOT
BRANCH   1  11
ATOM      4  C   UNL     1      -8.311  -3.152 128.419  0.00  0.00    +0.000 C 
ATOM      5  C   UNL     1      -7.532  -3.010 129.688  0.00  0.00    +0.000 A 
ATOM      6  C   UNL     1      -6.661  -3.986 130.122  0.00  0.00    +0.000 A 
ATOM      7  C   UNL     1      -5.992  -3.734 131.309  0.00  0.00    +0.000 A 
ATOM      8  C   UNL     1      -5.009  -4.748 131.832  0.00  0.00    +0.000 C 
ATOM      9  N   UNL     1      -6.182  -2.592 132.022  0.00  0.00    +0.000 NA
ATOM     10  C   UNL     1      -7.058  -1.714 131.501  0.00  0.00    +0.000 A 
ATOM     11  N   UNL     1      -7.242  -0.547 132.246  0.00  0.00    +0.000 N 
ATOM     12  N   UNL     1      -7.737  -1.871 130.371  0.00  0.00    +0.000 NA
ATOM     13  H   UNL     1      -6.704  -0.493 133.094  0.00  0.00    +0.000 HD
ENDBRANCH   1  11
BRANCH   1  14
ATOM     14  C   UNL     1      -8.186   2.012 132.815  0.00  0.00    +0.000 A 
ATOM     15  C   UNL     1      -9.340   2.790 133.005  0.00  0.00    +0.000 A 
ATOM     16  C   UNL     1      -9.315   3.895 133.871  0.00  0.00    +0.000 A 
ATOM     17  C   UNL     1      -8.155   4.224 134.572  0.00  0.00    +0.000 A 
ATOM     18  C   UNL     1      -7.010   3.449 134.364  0.00  0.00    +0.000 A 
ATOM     19  C   UNL     1      -7.018   2.348 133.496  0.00  0.00    +0.000 A 
BRANCH  17  20
ATOM     20  N   UNL     1      -8.104   5.348 135.378  0.00  0.00    +0.000 N 
ATOM     21  H   UNL     1      -8.609   6.186 135.122  0.00  0.00    +0.000 HD
ATOM     22  H   UNL     1      -7.764   5.280 136.329  0.00  0.00    +0.000 HD
ENDBRANCH  17  20
ENDBRANCH   1  14
TORSDOF 3
ENDMDL
