MODEL 1
REMARK VINA RESULT:      -6.6      0.000      0.000
REMARK  Name = Sulfadiazine
REMARK  3 active torsions:
REMARK  status: ('A' for Active; 'I' for Inactive)
REMARK    1  A    between atoms: N_1  and  C_2
REMARK    2  A    between atoms: C_5  and  S_8
REMARK    3  A    between atoms: S_8  and  N_11
REMARK                            x       y       z     vdW  Elec       q    Type
REMARK                         _______ _______ _______ _____ _____    ______ ____
ROOT
ATOM      1  S   UNL     1      -8.183   2.106 123.578  0.00  0.00    +0.000 S 
ATOM      2  O   UNL     1      -6.982   1.513 124.116  0.00  0.00    +0.000 OA
ATOM      3  O   UNL     1      -8.953   3.079 124.335  0.00  0.00    +0.000 OA
ENDROOT
BRANCH   1   4
ATOM      4  N   UNL     1      -9.212   0.891 123.075  0.00  0.00    +0.000 N 
ATOM      5  C   UNL     1      -9.089  -0.342 123.725  0.00  0.00    +0.000 A 
ATOM      6  N   UNL     1      -9.087  -1.429 122.936  0.00  0.00    +0.000 NA
ATOM      7  C   UNL     1      -9.069  -2.618 123.588  0.00  0.00    +0.000 A 
ATOM      8  C   UNL     1      -9.117  -2.741 124.958  0.00  0.00    +0.000 A 
ATOM      9  C   UNL     1      -9.191  -1.555 125.647  0.00  0.00    +0.000 A 
ATOM     10  N   UNL     1      -9.179  -0.348 125.054  0.00  0.00    +0.000 NA
ATOM     11  H   UNL     1      -9.577   0.837 122.139  0.00  0.00    +0.000 HD
ENDBRANCH   1   4
BRANCH   1  15
ATOM     12  C   UNL     1      -6.940   4.340 119.721  0.00  0.00    +0.000 A 
ATOM     13  C   UNL     1      -8.280   4.082 120.014  0.00  0.00    +0.000 A 
ATOM     14  C   UNL     1      -8.641   3.411 121.194  0.00  0.00    +0.000 A 
ATOM     15  C   UNL     1      -7.655   2.992 122.103  0.00  0.00    +0.000 A 
ATOM     16  C   UNL     1      -6.316   3.253 121.821  0.00  0.00    +0.000 A 
ATOM     17  C   UNL     1      -5.970   3.934 120.642  0.00  0.00    +0.000 A 
BRANCH  12  18
ATOM     18  N   UNL     1      -6.580   5.050 118.590  0.00  0.00    +0.000 N 
ATOM     19  H   UNL     1      -6.062   5.915 118.667  0.00  0.00    +0.000 HD
ATOM     20  H   UNL     1      -6.987   4.827 117.691  0.00  0.00    +0.000 HD
ENDBRANCH  12  18
ENDBRANCH   1  15
TORSDOF 3
ENDMDL
MODEL 2
REMARK VINA RESULT:      -6.4      9.384     11.357
REMARK  Name = Sulfadiazine
REMARK  3 active torsions:
REMARK  status: ('A' for Active; 'I' for Inactive)
REMARK    1  A    between atoms: N_1  and  C_2
REMARK    2  A    between atoms: C_5  and  S_8
REMARK    3  A    between atoms: S_8  and  N_11
REMARK                            x       y       z     vdW  Elec       q    Type
REMARK                         _______ _______ _______ _____ _____    ______ ____
ROOT
ATOM      1  S   UNL     1     -10.627   4.793 130.481  0.00  0.00    +0.000 S 
ATOM      2  O   UNL     1      -9.809   5.381 129.446  0.00  0.00    +0.000 OA
ATOM      3  O   UNL     1     -11.244   3.488 130.310  0.00  0.00    +0.000 OA
ENDROOT
BRANCH   1   4
ATOM      4  N   UNL     1     -11.808   5.885 130.927  0.00  0.00    +0.000 N 
ATOM      5  C   UNL     1     -12.272   6.748 129.929  0.00  0.00    +0.000 A 
ATOM      6  N   UNL     1     -12.399   8.039 130.276  0.00  0.00    +0.000 NA
ATOM      7  C   UNL     1     -12.944   8.842 129.328  0.00  0.00    +0.000 A 
ATOM      8  C   UNL     1     -13.407   8.389 128.114  0.00  0.00    +0.000 A 
ATOM      9  C   UNL     1     -13.284   7.036 127.912  0.00  0.00    +0.000 A 
ATOM     10  N   UNL     1     -12.723   6.199 128.802  0.00  0.00    +0.000 NA
ATOM     11  H   UNL     1     -11.897   6.241 131.864  0.00  0.00    +0.000 HD
ENDBRANCH   1   4
BRANCH   1  15
ATOM     12  C   UNL     1      -7.736   4.395 134.073  0.00  0.00    +0.000 A 
ATOM     13  C   UNL     1      -7.938   5.618 133.433  0.00  0.00    +0.000 A 
ATOM     14  C   UNL     1      -8.827   5.724 132.349  0.00  0.00    +0.000 A 
ATOM     15  C   UNL     1      -9.532   4.596 131.896  0.00  0.00    +0.000 A 
ATOM     16  C   UNL     1      -9.340   3.373 132.536  0.00  0.00    +0.000 A 
ATOM     17  C   UNL     1      -8.457   3.284 133.624  0.00  0.00    +0.000 A 
BRANCH  12  18
ATOM     18  N   UNL     1      -6.907   4.294 135.176  0.00  0.00    +0.000 N 
ATOM     19  H   UNL     1      -6.998   4.937 135.951  0.00  0.00    +0.000 HD
ATOM     20  H   UNL     1      -6.082   3.710 135.147  0.00  0.00    +0.000 HD
ENDBRANCH  12  18
ENDBRANCH   1  15
TORSDOF 3
ENDMDL
MODEL 3
REMARK VINA RESULT:      -6.4      8.961      9.933
REMARK  Name = Sulfadiazine
REMARK  3 active torsions:
REMARK  status: ('A' for Active; 'I' for Inactive)
REMARK    1  A    between atoms: N_1  and  C_2
REMARK    2  A    between atoms: C_5  and  S_8
REMARK    3  A    between atoms: S_8  and  N_11
REMARK                            x       y       z     vdW  Elec       q    Type
REMARK                         _______ _______ _______ _____ _____    ______ ____
ROOT
ATOM      1  S   UNL     1      -9.886   5.393 129.800  0.00  0.00    +0.000 S 
ATOM      2  O   UNL     1     -10.804   4.312 130.064  0.00  0.00    +0.000 OA
ATOM      3  O   UNL     1      -8.937   5.331 128.700  0.00  0.00    +0.000 OA
ENDROOT
BRANCH   1   4
ATOM      4  N   UNL     1      -9.052   5.754 131.200  0.00  0.00    +0.000 N 
ATOM      5  C   UNL     1      -8.689   4.672 132.009  0.00  0.00    +0.000 A 
ATOM      6  N   UNL     1      -8.907   4.817 133.325  0.00  0.00    +0.000 NA
ATOM      7  C   UNL     1      -8.458   3.801 134.103  0.00  0.00    +0.000 A 
ATOM      8  C   UNL     1      -7.763   2.716 133.619  0.00  0.00    +0.000 A 
ATOM      9  C   UNL     1      -7.543   2.723 132.264  0.00  0.00    +0.000 A 
ATOM     10  N   UNL     1      -7.993   3.687 131.442  0.00  0.00    +0.000 NA
ATOM     11  H   UNL     1      -9.158   6.626 131.691  0.00  0.00    +0.000 HD
ENDBRANCH   1   4
BRANCH   1  15
ATOM     12  C   UNL     1     -12.648   9.002 128.925  0.00  0.00    +0.000 A 
ATOM     13  C   UNL     1     -12.694   8.328 130.146  0.00  0.00    +0.000 A 
ATOM     14  C   UNL     1     -11.842   7.240 130.399  0.00  0.00    +0.000 A 
ATOM     15  C   UNL     1     -10.923   6.816 129.425  0.00  0.00    +0.000 A 
ATOM     16  C   UNL     1     -10.866   7.489 128.206  0.00  0.00    +0.000 A 
ATOM     17  C   UNL     1     -11.717   8.581 127.971  0.00  0.00    +0.000 A 
BRANCH  12  18
ATOM     18  N   UNL     1     -13.443  10.109 128.689  0.00  0.00    +0.000 N 
ATOM     19  H   UNL     1     -14.057  10.142 127.887  0.00  0.00    +0.000 HD
ATOM     20  H   UNL     1     -13.285  10.972 129.194  0.00  0.00    +0.000 HD
ENDBRANCH  12  18
ENDBRANCH   1  15
TORSDOF 3
ENDMDL
MODEL 4
REMARK VINA RESULT:      -6.3      1.172      1.697
REMARK  Name = Sulfadiazine
REMARK  3 active torsions:
REMARK  status: ('A' for Active; 'I' for Inactive)
REMARK    1  A    between atoms: N_1  and  C_2
REMARK    2  A    between atoms: C_5  and  S_8
REMARK    3  A    between atoms: S_8  and  N_11
REMARK                            x       y       z     vdW  Elec       q    Type
REMARK                         _______ _______ _______ _____ _____    ______ ____
ROOT
ATOM      1  S   UNL     1      -8.985   2.017 124.161  0.00  0.00    +0.000 S 
ATOM      2  O   UNL     1      -9.101   3.014 125.198  0.00  0.00    +0.000 OA
ATOM      3  O   UNL     1     -10.158   1.487 123.485  0.00  0.00    +0.000 OA
ENDROOT
BRANCH   1   4
ATOM      4  N   UNL     1      -8.079   0.738 124.734  0.00  0.00    +0.000 N 
ATOM      5  C   UNL     1      -8.528  -0.546 124.403  0.00  0.00    +0.000 A 
ATOM      6  N   UNL     1      -8.537  -1.445 125.399  0.00  0.00    +0.000 NA
ATOM      7  C   UNL     1      -8.878  -2.707 125.038  0.00  0.00    +0.000 A 
ATOM      8  C   UNL     1      -9.137  -3.088 123.740  0.00  0.00    +0.000 A 
ATOM      9  C   UNL     1      -9.023  -2.088 122.806  0.00  0.00    +0.000 A 
ATOM     10  N   UNL     1      -8.720  -0.815 123.113  0.00  0.00    +0.000 NA
ATOM     11  H   UNL     1      -7.540   0.786 125.583  0.00  0.00    +0.000 HD
ENDBRANCH   1   4
BRANCH   1  15
ATOM     12  C   UNL     1      -6.607   3.984 120.713  0.00  0.00    +0.000 A 
ATOM     13  C   UNL     1      -7.988   3.797 120.632  0.00  0.00    +0.000 A 
ATOM     14  C   UNL     1      -8.696   3.207 121.692  0.00  0.00    +0.000 A 
ATOM     15  C   UNL     1      -8.024   2.799 122.856  0.00  0.00    +0.000 A 
ATOM     16  C   UNL     1      -6.646   2.990 122.946  0.00  0.00    +0.000 A 
ATOM     17  C   UNL     1      -5.953   3.590 121.883  0.00  0.00    +0.000 A 
BRANCH  12  18
ATOM     18  N   UNL     1      -5.911   4.616 119.698  0.00  0.00    +0.000 N 
ATOM     19  H   UNL     1      -6.240   5.492 119.315  0.00  0.00    +0.000 HD
ATOM     20  H   UNL     1      -5.181   4.129 119.195  0.00  0.00    +0.000 HD
ENDBRANCH  12  18
ENDBRANCH   1  15
TORSDOF 3
ENDMDL
MODEL 5
REMARK VINA RESULT:      -6.3      9.054     10.915
REMARK  Name = Sulfadiazine
REMARK  3 active torsions:
REMARK  status: ('A' for Active; 'I' for Inactive)
REMARK    1  A    between atoms: N_1  and  C_2
REMARK    2  A    between atoms: C_5  and  S_8
REMARK    3  A    between atoms: S_8  and  N_11
REMARK                            x       y       z     vdW  Elec       q    Type
REMARK                         _______ _______ _______ _____ _____    ______ ____
ROOT
ATOM      1  S   UNL     1     -10.195   6.059 131.249  0.00  0.00    +0.000 S 
ATOM      2  O   UNL     1     -11.403   6.221 132.023  0.00  0.00    +0.000 OA
ATOM      3  O   UNL     1      -9.042   6.919 131.454  0.00  0.00    +0.000 OA
ENDROOT
BRANCH   1   4
ATOM      4  N   UNL     1     -10.583   6.068 129.626  0.00  0.00    +0.000 N 
ATOM      5  C   UNL     1     -11.625   6.917 129.236  0.00  0.00    +0.000 A 
ATOM      6  N   UNL     1     -12.530   6.396 128.393  0.00  0.00    +0.000 NA
ATOM      7  C   UNL     1     -13.474   7.261 127.948  0.00  0.00    +0.000 A 
ATOM      8  C   UNL     1     -13.493   8.601 128.263  0.00  0.00    +0.000 A 
ATOM      9  C   UNL     1     -12.469   9.023 129.074  0.00  0.00    +0.000 A 
ATOM     10  N   UNL     1     -11.527   8.203 129.571  0.00  0.00    +0.000 NA
ATOM     11  H   UNL     1     -10.445   5.272 129.026  0.00  0.00    +0.000 HD
ENDBRANCH   1   4
BRANCH   1  15
ATOM     12  C   UNL     1      -8.744   1.755 132.141  0.00  0.00    +0.000 A 
ATOM     13  C   UNL     1      -9.110   2.149 130.853  0.00  0.00    +0.000 A 
ATOM     14  C   UNL     1      -9.539   3.462 130.597  0.00  0.00    +0.000 A 
ATOM     15  C   UNL     1      -9.603   4.404 131.638  0.00  0.00    +0.000 A 
ATOM     16  C   UNL     1      -9.232   4.020 132.925  0.00  0.00    +0.000 A 
ATOM     17  C   UNL     1      -8.795   2.707 133.164  0.00  0.00    +0.000 A 
BRANCH  12  18
ATOM     18  N   UNL     1      -8.266   0.482 132.391  0.00  0.00    +0.000 N 
ATOM     19  H   UNL     1      -7.519   0.092 131.832  0.00  0.00    +0.000 HD
ATOM     20  H   UNL     1      -8.774  -0.148 132.998  0.00  0.00    +0.000 HD
ENDBRANCH  12  18
ENDBRANCH   1  15
TORSDOF 3
ENDMDL
MODEL 6
REMARK VINA RESULT:      -6.3      9.382     10.334
REMARK  Name = Sulfadiazine
REMARK  3 active torsions:
REMARK  status: ('A' for Active; 'I' for Inactive)
REMARK    1  A    between atoms: N_1  and  C_2
REMARK    2  A    between atoms: C_5  and  S_8
REMARK    3  A    between atoms: S_8  and  N_11
REMARK                            x       y       z     vdW  Elec       q    Type
REMARK                         _______ _______ _______ _____ _____    ______ ____
ROOT
ATOM      1  S   UNL     1     -10.309   5.074 130.051  0.00  0.00    +0.000 S 
ATOM      2  O   UNL     1     -11.327   4.055 130.153  0.00  0.00    +0.000 OA
ATOM      3  O   UNL     1      -9.294   5.030 129.011  0.00  0.00    +0.000 OA
ENDROOT
BRANCH   1   4
ATOM      4  N   UNL     1      -9.549   5.235 131.528  0.00  0.00    +0.000 N 
ATOM      5  C   UNL     1      -8.205   5.623 131.502  0.00  0.00    +0.000 A 
ATOM      6  N   UNL     1      -7.377   4.943 132.310  0.00  0.00    +0.000 NA
ATOM      7  C   UNL     1      -6.100   5.399 132.346  0.00  0.00    +0.000 A 
ATOM      8  C   UNL     1      -5.666   6.516 131.669  0.00  0.00    +0.000 A 
ATOM      9  C   UNL     1      -6.630   7.164 130.937  0.00  0.00    +0.000 A 
ATOM     10  N   UNL     1      -7.901   6.738 130.839  0.00  0.00    +0.000 NA
ATOM     11  H   UNL     1      -9.816   4.704 132.341  0.00  0.00    +0.000 HD
ENDBRANCH   1   4
BRANCH   1  15
ATOM     12  C   UNL     1     -12.498   9.062 129.202  0.00  0.00    +0.000 A 
ATOM     13  C   UNL     1     -11.541   8.554 128.322  0.00  0.00    +0.000 A 
ATOM     14  C   UNL     1     -10.893   7.337 128.590  0.00  0.00    +0.000 A 
ATOM     15  C   UNL     1     -11.203   6.607 129.750  0.00  0.00    +0.000 A 
ATOM     16  C   UNL     1     -12.163   7.104 130.628  0.00  0.00    +0.000 A 
ATOM     17  C   UNL     1     -12.811   8.318 130.343  0.00  0.00    +0.000 A 
BRANCH  12  18
ATOM     18  N   UNL     1     -13.183  10.230 128.917  0.00  0.00    +0.000 N 
ATOM     19  H   UNL     1     -13.867  10.259 128.174  0.00  0.00    +0.000 HD
ATOM     20  H   UNL     1     -12.879  11.112 129.309  0.00  0.00    +0.000 HD
ENDBRANCH  12  18
ENDBRANCH   1  15
TORSDOF 3
ENDMDL
MODEL 7
REMARK VINA RESULT:      -6.2      8.379      9.212
REMARK  Name = Sulfadiazine
REMARK  3 active torsions:
REMARK  status: ('A' for Active; 'I' for Inactive)
REMARK    1  A    between atoms: N_1  and  C_2
REMARK    2  A    between atoms: C_5  and  S_8
REMARK    3  A    between atoms: S_8  and  N_11
REMARK                            x       y       z     vdW  Elec       q    Type
REMARK                         _______ _______ _______ _____ _____    ______ ____
ROOT
ATOM      1  S   UNL     1      -9.437   6.121 130.757  0.00  0.00    +0.000 S 
ATOM      2  O   UNL     1      -8.223   6.317 130.000  0.00  0.00    +0.000 OA
ATOM      3  O   UNL     1      -9.490   6.380 132.186  0.00  0.00    +0.000 OA
ENDROOT
BRANCH   1   4
ATOM      4  N   UNL     1     -10.011   4.579 130.475  0.00  0.00    +0.000 N 
ATOM      5  C   UNL     1      -9.052   3.583 130.264  0.00  0.00    +0.000 A 
ATOM      6  N   UNL     1      -9.285   2.744 129.242  0.00  0.00    +0.000 NA
ATOM      7  C   UNL     1      -8.399   1.726 129.115  0.00  0.00    +0.000 A 
ATOM      8  C   UNL     1      -7.363   1.498 129.992  0.00  0.00    +0.000 A 
ATOM      9  C   UNL     1      -7.279   2.385 131.036  0.00  0.00    +0.000 A 
ATOM     10  N   UNL     1      -8.109   3.431 131.193  0.00  0.00    +0.000 NA
ATOM     11  H   UNL     1     -10.904   4.398 130.048  0.00  0.00    +0.000 HD
ENDBRANCH   1   4
BRANCH   1  15
ATOM     12  C   UNL     1     -12.606   8.992 128.988  0.00  0.00    +0.000 A 
ATOM     13  C   UNL     1     -12.817   8.331 130.199  0.00  0.00    +0.000 A 
ATOM     14  C   UNL     1     -11.840   7.470 130.727  0.00  0.00    +0.000 A 
ATOM     15  C   UNL     1     -10.630   7.264 130.043  0.00  0.00    +0.000 A 
ATOM     16  C   UNL     1     -10.410   7.928 128.838  0.00  0.00    +0.000 A 
ATOM     17  C   UNL     1     -11.391   8.793 128.327  0.00  0.00    +0.000 A 
BRANCH  12  18
ATOM     18  N   UNL     1     -13.538   9.886 128.490  0.00  0.00    +0.000 N 
ATOM     19  H   UNL     1     -13.271  10.832 128.256  0.00  0.00    +0.000 HD
ATOM     20  H   UNL     1     -14.526   9.674 128.532  0.00  0.00    +0.000 HD
ENDBRANCH  12  18
ENDBRANCH   1  15
TORSDOF 3
ENDMDL
MODEL 8
REMARK VINA RESULT:      -6.2      7.497      9.991
REMARK  Name = Sulfadiazine
REMARK  3 active torsions:
REMARK  status: ('A' for Active; 'I' for Inactive)
REMARK    1  A    between atoms: N_1  and  C_2
REMARK    2  A    between atoms: C_5  and  S_8
REMARK    3  A    between atoms: S_8  and  N_11
REMARK                            x       y       z     vdW  Elec       q    Type
REMARK                         _______ _______ _______ _____ _____    ______ ____
ROOT
ATOM      1  S   UNL     1     -10.267   4.372 130.686  0.00  0.00    +0.000 S 
ATOM      2  O   UNL     1     -11.613   4.183 130.201  0.00  0.00    +0.000 OA
ATOM      3  O   UNL     1     -10.007   4.887 132.020  0.00  0.00    +0.000 OA
ENDROOT
BRANCH   1   4
ATOM      4  N   UNL     1      -9.416   5.295 129.585  0.00  0.00    +0.000 N 
ATOM      5  C   UNL     1     -10.124   6.321 128.950  0.00  0.00    +0.000 A 
ATOM      6  N   UNL     1      -9.943   6.431 127.624  0.00  0.00    +0.000 NA
ATOM      7  C   UNL     1     -10.556   7.491 127.042  0.00  0.00    +0.000 A 
ATOM      8  C   UNL     1     -11.264   8.444 127.739  0.00  0.00    +0.000 A 
ATOM      9  C   UNL     1     -11.312   8.255 129.098  0.00  0.00    +0.000 A 
ATOM     10  N   UNL     1     -10.751   7.206 129.723  0.00  0.00    +0.000 NA
ATOM     11  H   UNL     1      -8.634   4.938 129.062  0.00  0.00    +0.000 HD
ENDBRANCH   1   4
BRANCH   1  15
ATOM     12  C   UNL     1      -8.368   0.153 130.810  0.00  0.00    +0.000 A 
ATOM     13  C   UNL     1      -9.215   0.602 131.825  0.00  0.00    +0.000 A 
ATOM     14  C   UNL     1      -9.791   1.882 131.767  0.00  0.00    +0.000 A 
ATOM     15  C   UNL     1      -9.526   2.732 130.680  0.00  0.00    +0.000 A 
ATOM     16  C   UNL     1      -8.688   2.287 129.659  0.00  0.00    +0.000 A 
ATOM     17  C   UNL     1      -8.127   1.001 129.725  0.00  0.00    +0.000 A 
BRANCH  12  18
ATOM     18  N   UNL     1      -7.843  -1.126 130.830  0.00  0.00    +0.000 N 
ATOM     19  H   UNL     1      -8.001  -1.736 131.621  0.00  0.00    +0.000 HD
ATOM     20  H   UNL     1      -7.142  -1.405 130.156  0.00  0.00    +0.000 HD
ENDBRANCH  12  18
ENDBRANCH   1  15
TORSDOF 3
ENDMDL
MODEL 9
REMARK VINA RESULT:      -6.1      8.873     11.016
REMARK  Name = Sulfadiazine
REMARK  3 active torsions:
REMARK  status: ('A' for Active; 'I' for Inactive)
REMARK    1  A    between atoms: N_1  and  C_2
REMARK    2  A    between atoms: C_5  and  S_8
REMARK    3  A    between atoms: S_8  and  N_11
REMARK                            x       y       z     vdW  Elec       q    Type
REMARK                         _______ _______ _______ _____ _____    ______ ____
ROOT
ATOM      1  S   UNL     1     -11.027   5.530 131.013  0.00  0.00    +0.000 S 
ATOM      2  O   UNL     1     -11.296   4.338 130.245  0.00  0.00    +0.000 OA
ATOM      3  O   UNL     1     -12.053   6.151 131.834  0.00  0.00    +0.000 OA
ENDROOT
BRANCH   1   4
ATOM      4  N   UNL     1     -10.377   6.691 130.006  0.00  0.00    +0.000 N 
ATOM      5  C   UNL     1     -10.954   6.814 128.737  0.00  0.00    +0.000 A 
ATOM      6  N   UNL     1     -10.101   6.918 127.707  0.00  0.00    +0.000 NA
ATOM      7  C   UNL     1     -10.676   7.137 126.498  0.00  0.00    +0.000 A 
ATOM      8  C   UNL     1     -12.029   7.312 126.314  0.00  0.00    +0.000 A 
ATOM      9  C   UNL     1     -12.784   7.255 127.460  0.00  0.00    +0.000 A 
ATOM     10  N   UNL     1     -12.271   7.009 128.678  0.00  0.00    +0.000 NA
ATOM     11  H   UNL     1      -9.416   6.985 130.059  0.00  0.00    +0.000 HD
ENDBRANCH   1   4
BRANCH   1  15
ATOM     12  C   UNL     1      -7.777   4.209 134.032  0.00  0.00    +0.000 A 
ATOM     13  C   UNL     1      -8.555   3.277 133.345  0.00  0.00    +0.000 A 
ATOM     14  C   UNL     1      -9.531   3.694 132.424  0.00  0.00    +0.000 A 
ATOM     15  C   UNL     1      -9.736   5.062 132.178  0.00  0.00    +0.000 A 
ATOM     16  C   UNL     1      -8.958   5.998 132.855  0.00  0.00    +0.000 A 
ATOM     17  C   UNL     1      -7.979   5.567 133.765  0.00  0.00    +0.000 A 
BRANCH  12  18
ATOM     18  N   UNL     1      -6.775   3.806 134.897  0.00  0.00    +0.000 N 
ATOM     19  H   UNL     1      -5.916   3.410 134.542  0.00  0.00    +0.000 HD
ATOM     20  H   UNL     1      -6.956   3.720 135.889  0.00  0.00    +0.000 HD
ENDBRANCH  12  18
ENDBRANCH   1  15
TORSDOF 3
ENDMDL
