MODEL 1
REMARK VINA RESULT:      -7.8      0.000      0.000
REMARK  Name = Sulfinpyrazone
REMARK  6 active torsions:
REMARK  status: ('A' for Active; 'I' for Inactive)
REMARK    1  A    between atoms: C_3  and  C_4
REMARK    2  A    between atoms: C_4  and  C_5
REMARK    3  A    between atoms: C_5  and  S_6
REMARK    4  A    between atoms: S_6  and  C_8
REMARK    5  A    between atoms: N_16  and  C_24
REMARK    6  A    between atoms: N_17  and  C_18
REMARK                            x       y       z     vdW  Elec       q    Type
REMARK                         _______ _______ _______ _____ _____    ______ ____
ROOT
ATOM      1  O   UNL     1      -9.199   0.246 126.443  0.00  0.00    +0.000 OA
ATOM      2  C   UNL     1      -8.722   1.176 125.801  0.00  0.00    +0.000 C 
ATOM      3  C   UNL     1      -8.300   2.499 126.405  0.00  0.00    +0.000 C 
ATOM      4  C   UNL     1      -8.297   3.381 125.184  0.00  0.00    +0.000 C 
ATOM      5  O   UNL     1      -8.564   4.577 125.178  0.00  0.00    +0.000 OA
ATOM      6  N   UNL     1      -7.900   2.533 124.129  0.00  0.00    +0.000 N 
ATOM      7  N   UNL     1      -8.316   1.220 124.455  0.00  0.00    +0.000 N 
ENDROOT
BRANCH   7   8
ATOM      8  C   UNL     1      -8.076   0.070 123.670  0.00  0.00    +0.000 A 
ATOM      9  C   UNL     1      -9.115  -0.778 123.261  0.00  0.00    +0.000 A 
ATOM     10  C   UNL     1      -8.832  -2.013 122.666  0.00  0.00    +0.000 A 
ATOM     11  C   UNL     1      -7.512  -2.385 122.423  0.00  0.00    +0.000 A 
ATOM     12  C   UNL     1      -6.477  -1.520 122.771  0.00  0.00    +0.000 A 
ATOM     13  C   UNL     1      -6.758  -0.289 123.372  0.00  0.00    +0.000 A 
ENDBRANCH   7   8
BRANCH   6  14
ATOM     14  C   UNL     1      -7.659   3.050 122.833  0.00  0.00    +0.000 A 
ATOM     15  C   UNL     1      -6.328   3.360 122.509  0.00  0.00    +0.000 A 
ATOM     16  C   UNL     1      -5.991   3.884 121.259  0.00  0.00    +0.000 A 
ATOM     17  C   UNL     1      -6.977   4.067 120.296  0.00  0.00    +0.000 A 
ATOM     18  C   UNL     1      -8.303   3.757 120.600  0.00  0.00    +0.000 A 
ATOM     19  C   UNL     1      -8.646   3.242 121.862  0.00  0.00    +0.000 A 
ENDBRANCH   6  14
BRANCH   3  20
ATOM     20  C   UNL     1      -6.838   2.440 126.895  0.00  0.00    +0.000 C 
BRANCH  20  21
ATOM     21  C   UNL     1      -6.671   1.922 128.327  0.00  0.00    +0.000 C 
BRANCH  21  22
ATOM     22  S   UNL     1      -5.300   0.715 128.336  0.00  0.00    +0.000 S 
ATOM     23  O   UNL     1      -4.807   0.608 129.749  0.00  0.00    +0.000 OA
BRANCH  22  24
ATOM     24  C   UNL     1      -6.168  -0.832 127.987  0.00  0.00    +0.000 A 
ATOM     25  C   UNL     1      -6.090  -1.440 126.727  0.00  0.00    +0.000 A 
ATOM     26  C   UNL     1      -6.992  -2.451 126.374  0.00  0.00    +0.000 A 
ATOM     27  C   UNL     1      -7.924  -2.915 127.301  0.00  0.00    +0.000 A 
ATOM     28  C   UNL     1      -7.981  -2.342 128.570  0.00  0.00    +0.000 A 
ATOM     29  C   UNL     1      -7.111  -1.301 128.910  0.00  0.00    +0.000 A 
ENDBRANCH  22  24
ENDBRANCH  21  22
ENDBRANCH  20  21
ENDBRANCH   3  20
TORSDOF 6
ENDMDL
MODEL 2
REMARK VINA RESULT:      -7.7      2.473      4.818
REMARK  Name = Sulfinpyrazone
REMARK  6 active torsions:
REMARK  status: ('A' for Active; 'I' for Inactive)
REMARK    1  A    between atoms: C_3  and  C_4
REMARK    2  A    between atoms: C_4  and  C_5
REMARK    3  A    between atoms: C_5  and  S_6
REMARK    4  A    between atoms: S_6  and  C_8
REMARK    5  A    between atoms: N_16  and  C_24
REMARK    6  A    between atoms: N_17  and  C_18
REMARK                            x       y       z     vdW  Elec       q    Type
REMARK                         _______ _______ _______ _____ _____    ______ ____
ROOT
ATOM      1  O   UNL     1     -10.433   0.916 123.196  0.00  0.00    +0.000 OA
ATOM      2  C   UNL     1      -9.594   1.199 124.046  0.00  0.00    +0.000 C 
ATOM      3  C   UNL     1      -9.486   0.518 125.394  0.00  0.00    +0.000 C 
ATOM      4  C   UNL     1      -8.704   1.545 126.170  0.00  0.00    +0.000 C 
ATOM      5  O   UNL     1      -8.814   1.755 127.371  0.00  0.00    +0.000 OA
ATOM      6  N   UNL     1      -7.846   2.138 125.219  0.00  0.00    +0.000 N 
ATOM      7  N   UNL     1      -8.485   2.060 123.958  0.00  0.00    +0.000 N 
ENDROOT
BRANCH   7   8
ATOM      8  C   UNL     1      -7.937   2.511 122.736  0.00  0.00    +0.000 A 
ATOM      9  C   UNL     1      -6.570   2.394 122.450  0.00  0.00    +0.000 A 
ATOM     10  C   UNL     1      -6.022   3.030 121.329  0.00  0.00    +0.000 A 
ATOM     11  C   UNL     1      -6.844   3.739 120.457  0.00  0.00    +0.000 A 
ATOM     12  C   UNL     1      -8.213   3.808 120.702  0.00  0.00    +0.000 A 
ATOM     13  C   UNL     1      -8.762   3.178 121.824  0.00  0.00    +0.000 A 
ENDBRANCH   7   8
BRANCH   6  14
ATOM     14  C   UNL     1      -6.859   3.073 125.613  0.00  0.00    +0.000 A 
ATOM     15  C   UNL     1      -5.650   2.553 126.104  0.00  0.00    +0.000 A 
ATOM     16  C   UNL     1      -4.619   3.396 126.528  0.00  0.00    +0.000 A 
ATOM     17  C   UNL     1      -4.766   4.774 126.426  0.00  0.00    +0.000 A 
ATOM     18  C   UNL     1      -5.959   5.306 125.933  0.00  0.00    +0.000 A 
ATOM     19  C   UNL     1      -7.002   4.460 125.519  0.00  0.00    +0.000 A 
ENDBRANCH   6  14
BRANCH   3  20
ATOM     20  C   UNL     1      -8.584  -0.732 125.309  0.00  0.00    +0.000 C 
BRANCH  20  21
ATOM     21  C   UNL     1      -9.279  -2.040 125.699  0.00  0.00    +0.000 C 
BRANCH  21  22
ATOM     22  S   UNL     1      -9.332  -3.115 124.224  0.00  0.00    +0.000 S 
ATOM     23  O   UNL     1     -10.087  -2.376 123.158  0.00  0.00    +0.000 OA
BRANCH  22  24
ATOM     24  C   UNL     1      -7.600  -3.117 123.706  0.00  0.00    +0.000 A 
ATOM     25  C   UNL     1      -6.623  -3.804 124.437  0.00  0.00    +0.000 A 
ATOM     26  C   UNL     1      -5.264  -3.553 124.211  0.00  0.00    +0.000 A 
ATOM     27  C   UNL     1      -4.871  -2.675 123.203  0.00  0.00    +0.000 A 
ATOM     28  C   UNL     1      -5.837  -2.018 122.444  0.00  0.00    +0.000 A 
ATOM     29  C   UNL     1      -7.195  -2.232 122.698  0.00  0.00    +0.000 A 
ENDBRANCH  22  24
ENDBRANCH  21  22
ENDBRANCH  20  21
ENDBRANCH   3  20
TORSDOF 6
ENDMDL
MODEL 3
REMARK VINA RESULT:      -7.7      2.845      4.298
REMARK  Name = Sulfinpyrazone
REMARK  6 active torsions:
REMARK  status: ('A' for Active; 'I' for Inactive)
REMARK    1  A    between atoms: C_3  and  C_4
REMARK    2  A    between atoms: C_4  and  C_5
REMARK    3  A    between atoms: C_5  and  S_6
REMARK    4  A    between atoms: S_6  and  C_8
REMARK    5  A    between atoms: N_16  and  C_24
REMARK    6  A    between atoms: N_17  and  C_18
REMARK                            x       y       z     vdW  Elec       q    Type
REMARK                         _______ _______ _______ _____ _____    ______ ____
ROOT
ATOM      1  O   UNL     1      -7.436   0.665 126.645  0.00  0.00    +0.000 OA
ATOM      2  C   UNL     1      -7.099   1.483 125.795  0.00  0.00    +0.000 C 
ATOM      3  C   UNL     1      -6.197   2.668 126.065  0.00  0.00    +0.000 C 
ATOM      4  C   UNL     1      -6.535   3.556 124.897  0.00  0.00    +0.000 C 
ATOM      5  O   UNL     1      -6.525   4.781 124.917  0.00  0.00    +0.000 OA
ATOM      6  N   UNL     1      -6.813   2.667 123.838  0.00  0.00    +0.000 N 
ATOM      7  N   UNL     1      -7.310   1.469 124.404  0.00  0.00    +0.000 N 
ENDROOT
BRANCH   7   8
ATOM      8  C   UNL     1      -7.673   0.312 123.678  0.00  0.00    +0.000 A 
ATOM      9  C   UNL     1      -9.013  -0.011 123.420  0.00  0.00    +0.000 A 
ATOM     10  C   UNL     1      -9.352  -1.258 122.883  0.00  0.00    +0.000 A 
ATOM     11  C   UNL     1      -8.354  -2.170 122.549  0.00  0.00    +0.000 A 
ATOM     12  C   UNL     1      -7.017  -1.832 122.747  0.00  0.00    +0.000 A 
ATOM     13  C   UNL     1      -6.676  -0.588 123.288  0.00  0.00    +0.000 A 
ENDBRANCH   7   8
BRANCH   6  14
ATOM     14  C   UNL     1      -7.049   3.148 122.527  0.00  0.00    +0.000 A 
ATOM     15  C   UNL     1      -5.921   3.446 121.745  0.00  0.00    +0.000 A 
ATOM     16  C   UNL     1      -6.052   3.936 120.444  0.00  0.00    +0.000 A 
ATOM     17  C   UNL     1      -7.316   4.095 119.888  0.00  0.00    +0.000 A 
ATOM     18  C   UNL     1      -8.447   3.796 120.650  0.00  0.00    +0.000 A 
ATOM     19  C   UNL     1      -8.318   3.316 121.965  0.00  0.00    +0.000 A 
ENDBRANCH   6  14
BRANCH   3  20
ATOM     20  C   UNL     1      -4.712   2.281 125.894  0.00  0.00    +0.000 C 
BRANCH  20  21
ATOM     21  C   UNL     1      -3.754   3.014 126.838  0.00  0.00    +0.000 C 
BRANCH  21  22
ATOM     22  S   UNL     1      -4.545   3.116 128.481  0.00  0.00    +0.000 S 
ATOM     23  O   UNL     1      -4.136   1.896 129.251  0.00  0.00    +0.000 OA
BRANCH  22  24
ATOM     24  C   UNL     1      -3.662   4.505 129.230  0.00  0.00    +0.000 A 
ATOM     25  C   UNL     1      -3.100   5.518 128.444  0.00  0.00    +0.000 A 
ATOM     26  C   UNL     1      -2.171   6.408 128.996  0.00  0.00    +0.000 A 
ATOM     27  C   UNL     1      -1.858   6.343 130.352  0.00  0.00    +0.000 A 
ATOM     28  C   UNL     1      -2.444   5.363 131.151  0.00  0.00    +0.000 A 
ATOM     29  C   UNL     1      -3.337   4.443 130.592  0.00  0.00    +0.000 A 
ENDBRANCH  22  24
ENDBRANCH  21  22
ENDBRANCH  20  21
ENDBRANCH   3  20
TORSDOF 6
ENDMDL
MODEL 4
REMARK VINA RESULT:      -7.5      2.079      5.835
REMARK  Name = Sulfinpyrazone
REMARK  6 active torsions:
REMARK  status: ('A' for Active; 'I' for Inactive)
REMARK    1  A    between atoms: C_3  and  C_4
REMARK    2  A    between atoms: C_4  and  C_5
REMARK    3  A    between atoms: C_5  and  S_6
REMARK    4  A    between atoms: S_6  and  C_8
REMARK    5  A    between atoms: N_16  and  C_24
REMARK    6  A    between atoms: N_17  and  C_18
REMARK                            x       y       z     vdW  Elec       q    Type
REMARK                         _______ _______ _______ _____ _____    ______ ____
ROOT
ATOM      1  O   UNL     1      -7.861   1.069 129.774  0.00  0.00    +0.000 OA
ATOM      2  C   UNL     1      -7.979   0.860 128.571  0.00  0.00    +0.000 C 
ATOM      3  C   UNL     1      -8.205   1.944 127.538  0.00  0.00    +0.000 C 
ATOM      4  C   UNL     1      -8.771   1.138 126.399  0.00  0.00    +0.000 C 
ATOM      5  O   UNL     1      -9.594   1.545 125.587  0.00  0.00    +0.000 OA
ATOM      6  N   UNL     1      -8.124  -0.113 126.486  0.00  0.00    +0.000 N 
ATOM      7  N   UNL     1      -7.798  -0.332 127.846  0.00  0.00    +0.000 N 
ENDROOT
BRANCH   7   8
ATOM      8  C   UNL     1      -7.106  -1.458 128.349  0.00  0.00    +0.000 A 
ATOM      9  C   UNL     1      -7.749  -2.439 129.117  0.00  0.00    +0.000 A 
ATOM     10  C   UNL     1      -7.005  -3.428 129.772  0.00  0.00    +0.000 A 
ATOM     11  C   UNL     1      -5.621  -3.477 129.620  0.00  0.00    +0.000 A 
ATOM     12  C   UNL     1      -4.983  -2.542 128.808  0.00  0.00    +0.000 A 
ATOM     13  C   UNL     1      -5.724  -1.549 128.158  0.00  0.00    +0.000 A 
ENDBRANCH   7   8
BRANCH   6  14
ATOM     14  C   UNL     1      -8.313  -1.101 125.489  0.00  0.00    +0.000 A 
ATOM     15  C   UNL     1      -7.546  -0.978 124.319  0.00  0.00    +0.000 A 
ATOM     16  C   UNL     1      -7.668  -1.897 123.274  0.00  0.00    +0.000 A 
ATOM     17  C   UNL     1      -8.530  -2.980 123.402  0.00  0.00    +0.000 A 
ATOM     18  C   UNL     1      -9.294  -3.120 124.563  0.00  0.00    +0.000 A 
ATOM     19  C   UNL     1      -9.182  -2.188 125.609  0.00  0.00    +0.000 A 
ENDBRANCH   6  14
BRANCH   3  20
ATOM     20  C   UNL     1      -6.862   2.513 127.033  0.00  0.00    +0.000 C 
BRANCH  20  21
ATOM     21  C   UNL     1      -6.963   3.903 126.398  0.00  0.00    +0.000 C 
BRANCH  21  22
ATOM     22  S   UNL     1      -5.369   4.272 125.586  0.00  0.00    +0.000 S 
ATOM     23  O   UNL     1      -4.407   3.188 125.975  0.00  0.00    +0.000 OA
BRANCH  22  24
ATOM     24  C   UNL     1      -5.769   3.989 123.845  0.00  0.00    +0.000 A 
ATOM     25  C   UNL     1      -6.675   2.994 123.459  0.00  0.00    +0.000 A 
ATOM     26  C   UNL     1      -6.745   2.581 122.123  0.00  0.00    +0.000 A 
ATOM     27  C   UNL     1      -5.970   3.212 121.153  0.00  0.00    +0.000 A 
ATOM     28  C   UNL     1      -5.096   4.232 121.522  0.00  0.00    +0.000 A 
ATOM     29  C   UNL     1      -4.990   4.615 122.863  0.00  0.00    +0.000 A 
ENDBRANCH  22  24
ENDBRANCH  21  22
ENDBRANCH  20  21
ENDBRANCH   3  20
TORSDOF 6
ENDMDL
MODEL 5
REMARK VINA RESULT:      -7.4      2.988      5.919
REMARK  Name = Sulfinpyrazone
REMARK  6 active torsions:
REMARK  status: ('A' for Active; 'I' for Inactive)
REMARK    1  A    between atoms: C_3  and  C_4
REMARK    2  A    between atoms: C_4  and  C_5
REMARK    3  A    between atoms: C_5  and  S_6
REMARK    4  A    between atoms: S_6  and  C_8
REMARK    5  A    between atoms: N_16  and  C_24
REMARK    6  A    between atoms: N_17  and  C_18
REMARK                            x       y       z     vdW  Elec       q    Type
REMARK                         _______ _______ _______ _____ _____    ______ ____
ROOT
ATOM      1  O   UNL     1      -8.005   0.892 129.897  0.00  0.00    +0.000 OA
ATOM      2  C   UNL     1      -8.102   0.717 128.686  0.00  0.00    +0.000 C 
ATOM      3  C   UNL     1      -8.478   1.801 127.698  0.00  0.00    +0.000 C 
ATOM      4  C   UNL     1      -8.939   0.972 126.528  0.00  0.00    +0.000 C 
ATOM      5  O   UNL     1      -9.814   1.297 125.735  0.00  0.00    +0.000 OA
ATOM      6  N   UNL     1      -8.129  -0.183 126.564  0.00  0.00    +0.000 N 
ATOM      7  N   UNL     1      -7.767  -0.409 127.914  0.00  0.00    +0.000 N 
ENDROOT
BRANCH   7   8
ATOM      8  C   UNL     1      -6.927  -1.451 128.370  0.00  0.00    +0.000 A 
ATOM      9  C   UNL     1      -7.428  -2.543 129.093  0.00  0.00    +0.000 A 
ATOM     10  C   UNL     1      -6.554  -3.449 129.707  0.00  0.00    +0.000 A 
ATOM     11  C   UNL     1      -5.177  -3.302 129.557  0.00  0.00    +0.000 A 
ATOM     12  C   UNL     1      -4.675  -2.255 128.789  0.00  0.00    +0.000 A 
ATOM     13  C   UNL     1      -5.546  -1.345 128.179  0.00  0.00    +0.000 A 
ENDBRANCH   7   8
BRANCH   6  14
ATOM     14  C   UNL     1      -8.190  -1.146 125.528  0.00  0.00    +0.000 A 
ATOM     15  C   UNL     1      -9.156  -2.157 125.656  0.00  0.00    +0.000 A 
ATOM     16  C   UNL     1      -9.287  -3.158 124.691  0.00  0.00    +0.000 A 
ATOM     17  C   UNL     1      -8.480  -3.139 123.560  0.00  0.00    +0.000 A 
ATOM     18  C   UNL     1      -7.519  -2.137 123.415  0.00  0.00    +0.000 A 
ATOM     19  C   UNL     1      -7.377  -1.136 124.392  0.00  0.00    +0.000 A 
ENDBRANCH   6  14
BRANCH   3  20
ATOM     20  C   UNL     1      -7.227   2.566 127.215  0.00  0.00    +0.000 C 
BRANCH  20  21
ATOM     21  C   UNL     1      -7.519   3.952 126.634  0.00  0.00    +0.000 C 
BRANCH  21  22
ATOM     22  S   UNL     1      -6.207   4.347 125.426  0.00  0.00    +0.000 S 
ATOM     23  O   UNL     1      -6.313   5.811 125.113  0.00  0.00    +0.000 OA
BRANCH  22  24
ATOM     24  C   UNL     1      -4.713   4.152 126.426  0.00  0.00    +0.000 A 
ATOM     25  C   UNL     1      -4.313   5.140 127.334  0.00  0.00    +0.000 A 
ATOM     26  C   UNL     1      -3.019   5.126 127.869  0.00  0.00    +0.000 A 
ATOM     27  C   UNL     1      -2.145   4.084 127.563  0.00  0.00    +0.000 A 
ATOM     28  C   UNL     1      -2.550   3.075 126.692  0.00  0.00    +0.000 A 
ATOM     29  C   UNL     1      -3.827   3.112 126.120  0.00  0.00    +0.000 A 
ENDBRANCH  22  24
ENDBRANCH  21  22
ENDBRANCH  20  21
ENDBRANCH   3  20
TORSDOF 6
ENDMDL
MODEL 6
REMARK VINA RESULT:      -7.4      2.578      5.302
REMARK  Name = Sulfinpyrazone
REMARK  6 active torsions:
REMARK  status: ('A' for Active; 'I' for Inactive)
REMARK    1  A    between atoms: C_3  and  C_4
REMARK    2  A    between atoms: C_4  and  C_5
REMARK    3  A    between atoms: C_5  and  S_6
REMARK    4  A    between atoms: S_6  and  C_8
REMARK    5  A    between atoms: N_16  and  C_24
REMARK    6  A    between atoms: N_17  and  C_18
REMARK                            x       y       z     vdW  Elec       q    Type
REMARK                         _______ _______ _______ _____ _____    ______ ____
ROOT
ATOM      1  O   UNL     1      -5.465   4.538 124.430  0.00  0.00    +0.000 OA
ATOM      2  C   UNL     1      -5.991   3.443 124.606  0.00  0.00    +0.000 C 
ATOM      3  C   UNL     1      -6.271   2.843 125.967  0.00  0.00    +0.000 C 
ATOM      4  C   UNL     1      -6.411   1.386 125.613  0.00  0.00    +0.000 C 
ATOM      5  O   UNL     1      -6.101   0.451 126.341  0.00  0.00    +0.000 OA
ATOM      6  N   UNL     1      -6.986   1.383 124.324  0.00  0.00    +0.000 N 
ATOM      7  N   UNL     1      -6.580   2.572 123.672  0.00  0.00    +0.000 N 
ENDROOT
BRANCH   7   8
ATOM      8  C   UNL     1      -6.973   2.965 122.372  0.00  0.00    +0.000 A 
ATOM      9  C   UNL     1      -6.035   3.257 121.371  0.00  0.00    +0.000 A 
ATOM     10  C   UNL     1      -6.442   3.839 120.165  0.00  0.00    +0.000 A 
ATOM     11  C   UNL     1      -7.793   4.082 119.927  0.00  0.00    +0.000 A 
ATOM     12  C   UNL     1      -8.736   3.737 120.892  0.00  0.00    +0.000 A 
ATOM     13  C   UNL     1      -8.330   3.161 122.101  0.00  0.00    +0.000 A 
ENDBRANCH   7   8
BRANCH   6  14
ATOM     14  C   UNL     1      -7.386   0.172 123.710  0.00  0.00    +0.000 A 
ATOM     15  C   UNL     1      -8.765  -0.091 123.660  0.00  0.00    +0.000 A 
ATOM     16  C   UNL     1      -9.257  -1.264 123.083  0.00  0.00    +0.000 A 
ATOM     17  C   UNL     1      -8.378  -2.174 122.507  0.00  0.00    +0.000 A 
ATOM     18  C   UNL     1      -7.005  -1.923 122.542  0.00  0.00    +0.000 A 
ATOM     19  C   UNL     1      -6.507  -0.750 123.134  0.00  0.00    +0.000 A 
ENDBRANCH   6  14
BRANCH   3  20
ATOM     20  C   UNL     1      -7.652   3.291 126.494  0.00  0.00    +0.000 C 
BRANCH  20  21
ATOM     21  C   UNL     1      -7.930   2.901 127.948  0.00  0.00    +0.000 C 
BRANCH  21  22
ATOM     22  S   UNL     1      -7.966   4.429 128.948  0.00  0.00    +0.000 S 
ATOM     23  O   UNL     1      -9.050   5.304 128.390  0.00  0.00    +0.000 OA
BRANCH  22  24
ATOM     24  C   UNL     1      -8.580   3.818 130.535  0.00  0.00    +0.000 A 
ATOM     25  C   UNL     1      -7.837   3.980 131.712  0.00  0.00    +0.000 A 
ATOM     26  C   UNL     1      -8.165   3.249 132.860  0.00  0.00    +0.000 A 
ATOM     27  C   UNL     1      -9.280   2.413 132.865  0.00  0.00    +0.000 A 
ATOM     28  C   UNL     1     -10.047   2.277 131.710  0.00  0.00    +0.000 A 
ATOM     29  C   UNL     1      -9.695   2.972 130.548  0.00  0.00    +0.000 A 
ENDBRANCH  22  24
ENDBRANCH  21  22
ENDBRANCH  20  21
ENDBRANCH   3  20
TORSDOF 6
ENDMDL
MODEL 7
REMARK VINA RESULT:      -7.2      2.272      6.739
REMARK  Name = Sulfinpyrazone
REMARK  6 active torsions:
REMARK  status: ('A' for Active; 'I' for Inactive)
REMARK    1  A    between atoms: C_3  and  C_4
REMARK    2  A    between atoms: C_4  and  C_5
REMARK    3  A    between atoms: C_5  and  S_6
REMARK    4  A    between atoms: S_6  and  C_8
REMARK    5  A    between atoms: N_16  and  C_24
REMARK    6  A    between atoms: N_17  and  C_18
REMARK                            x       y       z     vdW  Elec       q    Type
REMARK                         _______ _______ _______ _____ _____    ______ ____
ROOT
ATOM      1  O   UNL     1      -6.057   0.598 124.715  0.00  0.00    +0.000 OA
ATOM      2  C   UNL     1      -6.100   0.335 125.913  0.00  0.00    +0.000 C 
ATOM      3  C   UNL     1      -5.888   1.352 127.014  0.00  0.00    +0.000 C 
ATOM      4  C   UNL     1      -5.541   0.451 128.170  0.00  0.00    +0.000 C 
ATOM      5  O   UNL     1      -4.781   0.741 129.087  0.00  0.00    +0.000 OA
ATOM      6  N   UNL     1      -6.295  -0.722 127.952  0.00  0.00    +0.000 N 
ATOM      7  N   UNL     1      -6.482  -0.856 126.555  0.00  0.00    +0.000 N 
ENDROOT
BRANCH   7   8
ATOM      8  C   UNL     1      -7.220  -1.885 125.926  0.00  0.00    +0.000 A 
ATOM      9  C   UNL     1      -6.613  -2.811 125.065  0.00  0.00    +0.000 A 
ATOM     10  C   UNL     1      -7.393  -3.684 124.298  0.00  0.00    +0.000 A 
ATOM     11  C   UNL     1      -8.780  -3.678 124.427  0.00  0.00    +0.000 A 
ATOM     12  C   UNL     1      -9.385  -2.803 125.325  0.00  0.00    +0.000 A 
ATOM     13  C   UNL     1      -8.608  -1.925 126.088  0.00  0.00    +0.000 A 
ENDBRANCH   7   8
BRANCH   6  14
ATOM     14  C   UNL     1      -6.323  -1.758 128.916  0.00  0.00    +0.000 A 
ATOM     15  C   UNL     1      -5.220  -2.628 128.947  0.00  0.00    +0.000 A 
ATOM     16  C   UNL     1      -5.160  -3.687 129.856  0.00  0.00    +0.000 A 
ATOM     17  C   UNL     1      -6.185  -3.867 130.778  0.00  0.00    +0.000 A 
ATOM     18  C   UNL     1      -7.284  -3.007 130.764  0.00  0.00    +0.000 A 
ATOM     19  C   UNL     1      -7.353  -1.949 129.842  0.00  0.00    +0.000 A 
ENDBRANCH   6  14
BRANCH   3  20
ATOM     20  C   UNL     1      -7.217   2.040 127.392  0.00  0.00    +0.000 C 
BRANCH  20  21
ATOM     21  C   UNL     1      -7.218   3.560 127.203  0.00  0.00    +0.000 C 
BRANCH  21  22
ATOM     22  S   UNL     1      -8.349   3.958 125.825  0.00  0.00    +0.000 S 
ATOM     23  O   UNL     1      -8.644   5.428 125.899  0.00  0.00    +0.000 OA
BRANCH  22  24
ATOM     24  C   UNL     1      -7.274   3.732 124.389  0.00  0.00    +0.000 A 
ATOM     25  C   UNL     1      -5.994   4.297 124.343  0.00  0.00    +0.000 A 
ATOM     26  C   UNL     1      -5.300   4.377 123.129  0.00  0.00    +0.000 A 
ATOM     27  C   UNL     1      -5.845   3.825 121.972  0.00  0.00    +0.000 A 
ATOM     28  C   UNL     1      -7.102   3.225 122.018  0.00  0.00    +0.000 A 
ATOM     29  C   UNL     1      -7.817   3.184 123.219  0.00  0.00    +0.000 A 
ENDBRANCH  22  24
ENDBRANCH  21  22
ENDBRANCH  20  21
ENDBRANCH   3  20
TORSDOF 6
ENDMDL
MODEL 8
REMARK VINA RESULT:      -7.1      2.578      4.005
REMARK  Name = Sulfinpyrazone
REMARK  6 active torsions:
REMARK  status: ('A' for Active; 'I' for Inactive)
REMARK    1  A    between atoms: C_3  and  C_4
REMARK    2  A    between atoms: C_4  and  C_5
REMARK    3  A    between atoms: C_5  and  S_6
REMARK    4  A    between atoms: S_6  and  C_8
REMARK    5  A    between atoms: N_16  and  C_24
REMARK    6  A    between atoms: N_17  and  C_18
REMARK                            x       y       z     vdW  Elec       q    Type
REMARK                         _______ _______ _______ _____ _____    ______ ____
ROOT
ATOM      1  O   UNL     1      -9.318   1.200 126.594  0.00  0.00    +0.000 OA
ATOM      2  C   UNL     1      -8.662   1.987 125.919  0.00  0.00    +0.000 C 
ATOM      3  C   UNL     1      -8.041   3.258 126.458  0.00  0.00    +0.000 C 
ATOM      4  C   UNL     1      -7.837   4.037 125.186  0.00  0.00    +0.000 C 
ATOM      5  O   UNL     1      -7.892   5.257 125.090  0.00  0.00    +0.000 OA
ATOM      6  N   UNL     1      -7.552   3.061 124.208  0.00  0.00    +0.000 N 
ATOM      7  N   UNL     1      -8.202   1.865 124.595  0.00  0.00    +0.000 N 
ENDROOT
BRANCH   7   8
ATOM      8  C   UNL     1      -8.134   0.636 123.899  0.00  0.00    +0.000 A 
ATOM      9  C   UNL     1      -9.264   0.061 123.301  0.00  0.00    +0.000 A 
ATOM     10  C   UNL     1      -9.215  -1.246 122.800  0.00  0.00    +0.000 A 
ATOM     11  C   UNL     1      -8.023  -1.966 122.842  0.00  0.00    +0.000 A 
ATOM     12  C   UNL     1      -6.881  -1.377 123.379  0.00  0.00    +0.000 A 
ATOM     13  C   UNL     1      -6.930  -0.073 123.885  0.00  0.00    +0.000 A 
ENDBRANCH   7   8
BRANCH   6  14
ATOM     14  C   UNL     1      -7.174   3.435 122.896  0.00  0.00    +0.000 A 
ATOM     15  C   UNL     1      -5.831   3.797 122.699  0.00  0.00    +0.000 A 
ATOM     16  C   UNL     1      -5.365   4.190 121.443  0.00  0.00    +0.000 A 
ATOM     17  C   UNL     1      -6.226   4.187 120.352  0.00  0.00    +0.000 A 
ATOM     18  C   UNL     1      -7.562   3.822 120.530  0.00  0.00    +0.000 A 
ATOM     19  C   UNL     1      -8.036   3.439 121.796  0.00  0.00    +0.000 A 
ENDBRANCH   6  14
BRANCH   3  20
ATOM     20  C   UNL     1      -6.632   2.986 127.026  0.00  0.00    +0.000 C 
BRANCH  20  21
ATOM     21  C   UNL     1      -6.399   3.541 128.434  0.00  0.00    +0.000 C 
BRANCH  21  22
ATOM     22  S   UNL     1      -7.699   2.873 129.528  0.00  0.00    +0.000 S 
ATOM     23  O   UNL     1      -7.021   2.341 130.756  0.00  0.00    +0.000 OA
BRANCH  22  24
ATOM     24  C   UNL     1      -8.560   4.379 130.041  0.00  0.00    +0.000 A 
ATOM     25  C   UNL     1      -7.855   5.545 130.362  0.00  0.00    +0.000 A 
ATOM     26  C   UNL     1      -8.491   6.592 131.041  0.00  0.00    +0.000 A 
ATOM     27  C   UNL     1      -9.851   6.513 131.334  0.00  0.00    +0.000 A 
ATOM     28  C   UNL     1     -10.569   5.372 130.981  0.00  0.00    +0.000 A 
ATOM     29  C   UNL     1      -9.926   4.307 130.344  0.00  0.00    +0.000 A 
ENDBRANCH  22  24
ENDBRANCH  21  22
ENDBRANCH  20  21
ENDBRANCH   3  20
TORSDOF 6
ENDMDL
MODEL 9
REMARK VINA RESULT:      -7.1      5.840      8.482
REMARK  Name = Sulfinpyrazone
REMARK  6 active torsions:
REMARK  status: ('A' for Active; 'I' for Inactive)
REMARK    1  A    between atoms: C_3  and  C_4
REMARK    2  A    between atoms: C_4  and  C_5
REMARK    3  A    between atoms: C_5  and  S_6
REMARK    4  A    between atoms: S_6  and  C_8
REMARK    5  A    between atoms: N_16  and  C_24
REMARK    6  A    between atoms: N_17  and  C_18
REMARK                            x       y       z     vdW  Elec       q    Type
REMARK                         _______ _______ _______ _____ _____    ______ ____
ROOT
ATOM      1  O   UNL     1      -7.654   2.915 132.125  0.00  0.00    +0.000 OA
ATOM      2  C   UNL     1      -7.077   3.402 131.157  0.00  0.00    +0.000 C 
ATOM      3  C   UNL     1      -7.622   4.547 130.331  0.00  0.00    +0.000 C 
ATOM      4  C   UNL     1      -6.830   4.384 129.060  0.00  0.00    +0.000 C 
ATOM      5  O   UNL     1      -7.234   4.661 127.937  0.00  0.00    +0.000 OA
ATOM      6  N   UNL     1      -5.575   3.894 129.479  0.00  0.00    +0.000 N 
ATOM      7  N   UNL     1      -5.779   3.160 130.672  0.00  0.00    +0.000 N 
ENDROOT
BRANCH   7   8
ATOM      8  C   UNL     1      -4.762   2.537 131.431  0.00  0.00    +0.000 A 
ATOM      9  C   UNL     1      -4.645   1.142 131.508  0.00  0.00    +0.000 A 
ATOM     10  C   UNL     1      -3.765   0.553 132.424  0.00  0.00    +0.000 A 
ATOM     11  C   UNL     1      -2.957   1.351 133.230  0.00  0.00    +0.000 A 
ATOM     12  C   UNL     1      -3.024   2.738 133.115  0.00  0.00    +0.000 A 
ATOM     13  C   UNL     1      -3.907   3.329 132.204  0.00  0.00    +0.000 A 
ENDBRANCH   7   8
BRANCH   6  14
ATOM     14  C   UNL     1      -4.511   3.737 128.558  0.00  0.00    +0.000 A 
ATOM     15  C   UNL     1      -3.493   4.705 128.591  0.00  0.00    +0.000 A 
ATOM     16  C   UNL     1      -2.408   4.642 127.714  0.00  0.00    +0.000 A 
ATOM     17  C   UNL     1      -2.301   3.584 126.819  0.00  0.00    +0.000 A 
ATOM     18  C   UNL     1      -3.301   2.610 126.779  0.00  0.00    +0.000 A 
ATOM     19  C   UNL     1      -4.401   2.679 127.651  0.00  0.00    +0.000 A 
ENDBRANCH   6  14
BRANCH   3  20
ATOM     20  C   UNL     1      -7.200   5.908 130.927  0.00  0.00    +0.000 C 
BRANCH  20  21
ATOM     21  C   UNL     1      -8.331   6.936 131.019  0.00  0.00    +0.000 C 
BRANCH  21  22
ATOM     22  S   UNL     1      -9.910   6.030 131.167  0.00  0.00    +0.000 S 
ATOM     23  O   UNL     1     -10.593   6.521 132.409  0.00  0.00    +0.000 OA
BRANCH  22  24
ATOM     24  C   UNL     1     -10.851   6.699 129.776  0.00  0.00    +0.000 A 
ATOM     25  C   UNL     1     -10.355   7.759 129.006  0.00  0.00    +0.000 A 
ATOM     26  C   UNL     1     -11.204   8.463 128.143  0.00  0.00    +0.000 A 
ATOM     27  C   UNL     1     -12.530   8.065 127.985  0.00  0.00    +0.000 A 
ATOM     28  C   UNL     1     -13.020   6.986 128.717  0.00  0.00    +0.000 A 
ATOM     29  C   UNL     1     -12.187   6.310 129.614  0.00  0.00    +0.000 A 
ENDBRANCH  22  24
ENDBRANCH  21  22
ENDBRANCH  20  21
ENDBRANCH   3  20
TORSDOF 6
ENDMDL
