MODEL 1
REMARK VINA RESULT:      -7.6      0.000      0.000
REMARK  Name = Sulfabenzamide
REMARK  4 active torsions:
REMARK  status: ('A' for Active; 'I' for Inactive)
REMARK    1  A    between atoms: N_1  and  C_2
REMARK    2  A    between atoms: C_5  and  S_8
REMARK    3  A    between atoms: S_8  and  N_11
REMARK    4  A    between atoms: C_12  and  C_14
REMARK                            x       y       z     vdW  Elec       q    Type
REMARK                         _______ _______ _______ _____ _____    ______ ____
ROOT
ATOM      1  S   UNL     1      -7.960   2.709 122.801  0.00  0.00    +0.000 S 
ATOM      2  O   UNL     1      -7.698   3.510 123.977  0.00  0.00    +0.000 OA
ATOM      3  O   UNL     1      -9.302   2.406 122.347  0.00  0.00    +0.000 OA
ENDROOT
BRANCH   1   7
ATOM      4  C   UNL     1      -6.140   5.020 119.233  0.00  0.00    +0.000 A 
ATOM      5  C   UNL     1      -7.462   4.573 119.213  0.00  0.00    +0.000 A 
ATOM      6  C   UNL     1      -7.997   3.872 120.307  0.00  0.00    +0.000 A 
ATOM      7  C   UNL     1      -7.207   3.613 121.442  0.00  0.00    +0.000 A 
ATOM      8  C   UNL     1      -5.891   4.064 121.470  0.00  0.00    +0.000 A 
ATOM      9  C   UNL     1      -5.373   4.771 120.373  0.00  0.00    +0.000 A 
BRANCH   4  10
ATOM     10  N   UNL     1      -5.620   5.755 118.183  0.00  0.00    +0.000 N 
ATOM     11  H   UNL     1      -5.364   6.724 118.309  0.00  0.00    +0.000 HD
ATOM     12  H   UNL     1      -5.644   5.393 117.239  0.00  0.00    +0.000 HD
ENDBRANCH   4  10
ENDBRANCH   1   7
BRANCH   1  13
ATOM     13  N   UNL     1      -7.133   1.247 122.988  0.00  0.00    +0.000 N 
ATOM     14  C   UNL     1      -7.656   0.216 123.801  0.00  0.00    +0.000 C 
ATOM     15  O   UNL     1      -8.706   0.310 124.428  0.00  0.00    +0.000 OA
ATOM     16  H   UNL     1      -6.322   1.072 122.416  0.00  0.00    +0.000 HD
BRANCH  14  17
ATOM     17  C   UNL     1      -6.857  -1.040 123.922  0.00  0.00    +0.000 A 
ATOM     18  C   UNL     1      -6.504  -1.502 125.203  0.00  0.00    +0.000 A 
ATOM     19  C   UNL     1      -5.603  -2.563 125.357  0.00  0.00    +0.000 A 
ATOM     20  C   UNL     1      -5.098  -3.215 124.235  0.00  0.00    +0.000 A 
ATOM     21  C   UNL     1      -5.463  -2.780 122.960  0.00  0.00    +0.000 A 
ATOM     22  C   UNL     1      -6.338  -1.695 122.799  0.00  0.00    +0.000 A 
ENDBRANCH  14  17
ENDBRANCH   1  13
TORSDOF 4
ENDMDL
MODEL 2
REMARK VINA RESULT:      -7.5      1.721      6.915
REMARK  Name = Sulfabenzamide
REMARK  4 active torsions:
REMARK  status: ('A' for Active; 'I' for Inactive)
REMARK    1  A    between atoms: N_1  and  C_2
REMARK    2  A    between atoms: C_5  and  S_8
REMARK    3  A    between atoms: S_8  and  N_11
REMARK    4  A    between atoms: C_12  and  C_14
REMARK                            x       y       z     vdW  Elec       q    Type
REMARK                         _______ _______ _______ _____ _____    ______ ____
ROOT
ATOM      1  S   UNL     1      -7.696   0.539 123.923  0.00  0.00    +0.000 S 
ATOM      2  O   UNL     1      -8.965   0.130 123.362  0.00  0.00    +0.000 OA
ATOM      3  O   UNL     1      -7.577   1.112 125.248  0.00  0.00    +0.000 OA
ENDROOT
BRANCH   1   7
ATOM      4  C   UNL     1      -5.154  -3.323 123.929  0.00  0.00    +0.000 A 
ATOM      5  C   UNL     1      -5.588  -2.739 122.738  0.00  0.00    +0.000 A 
ATOM      6  C   UNL     1      -6.360  -1.565 122.757  0.00  0.00    +0.000 A 
ATOM      7  C   UNL     1      -6.705  -0.958 123.978  0.00  0.00    +0.000 A 
ATOM      8  C   UNL     1      -6.266  -1.532 125.168  0.00  0.00    +0.000 A 
ATOM      9  C   UNL     1      -5.488  -2.700 125.133  0.00  0.00    +0.000 A 
BRANCH   4  10
ATOM     10  N   UNL     1      -4.350  -4.449 123.920  0.00  0.00    +0.000 N 
ATOM     11  H   UNL     1      -3.728  -4.633 123.145  0.00  0.00    +0.000 HD
ATOM     12  H   UNL     1      -4.492  -5.188 124.596  0.00  0.00    +0.000 HD
ENDBRANCH   4  10
ENDBRANCH   1   7
BRANCH   1  13
ATOM     13  N   UNL     1      -6.979   1.609 122.828  0.00  0.00    +0.000 N 
ATOM     14  C   UNL     1      -7.605   2.831 122.491  0.00  0.00    +0.000 C 
ATOM     15  O   UNL     1      -8.692   3.185 122.938  0.00  0.00    +0.000 OA
ATOM     16  H   UNL     1      -6.041   1.422 122.512  0.00  0.00    +0.000 HD
BRANCH  14  17
ATOM     17  C   UNL     1      -6.912   3.714 121.507  0.00  0.00    +0.000 A 
ATOM     18  C   UNL     1      -7.527   3.969 120.268  0.00  0.00    +0.000 A 
ATOM     19  C   UNL     1      -6.833   4.633 119.248  0.00  0.00    +0.000 A 
ATOM     20  C   UNL     1      -5.544   5.106 119.478  0.00  0.00    +0.000 A 
ATOM     21  C   UNL     1      -4.935   4.879 120.714  0.00  0.00    +0.000 A 
ATOM     22  C   UNL     1      -5.611   4.184 121.727  0.00  0.00    +0.000 A 
ENDBRANCH  14  17
ENDBRANCH   1  13
TORSDOF 4
ENDMDL
MODEL 3
REMARK VINA RESULT:      -7.4      2.377      6.728
REMARK  Name = Sulfabenzamide
REMARK  4 active torsions:
REMARK  status: ('A' for Active; 'I' for Inactive)
REMARK    1  A    between atoms: N_1  and  C_2
REMARK    2  A    between atoms: C_5  and  S_8
REMARK    3  A    between atoms: S_8  and  N_11
REMARK    4  A    between atoms: C_12  and  C_14
REMARK                            x       y       z     vdW  Elec       q    Type
REMARK                         _______ _______ _______ _____ _____    ______ ____
ROOT
ATOM      1  S   UNL     1     -10.018   1.232 123.608  0.00  0.00    +0.000 S 
ATOM      2  O   UNL     1     -11.253   0.927 122.919  0.00  0.00    +0.000 OA
ATOM      3  O   UNL     1      -9.987   1.834 124.925  0.00  0.00    +0.000 OA
ENDROOT
BRANCH   1   7
ATOM      4  C   UNL     1      -7.867  -2.811 124.249  0.00  0.00    +0.000 A 
ATOM      5  C   UNL     1      -8.101  -1.934 125.309  0.00  0.00    +0.000 A 
ATOM      6  C   UNL     1      -8.756  -0.710 125.094  0.00  0.00    +0.000 A 
ATOM      7  C   UNL     1      -9.189  -0.350 123.805  0.00  0.00    +0.000 A 
ATOM      8  C   UNL     1      -8.966  -1.225 122.746  0.00  0.00    +0.000 A 
ATOM      9  C   UNL     1      -8.318  -2.449 122.978  0.00  0.00    +0.000 A 
BRANCH   4  10
ATOM     10  N   UNL     1      -7.269  -4.040 124.458  0.00  0.00    +0.000 N 
ATOM     11  H   UNL     1      -7.344  -4.505 125.352  0.00  0.00    +0.000 HD
ATOM     12  H   UNL     1      -6.611  -4.414 123.787  0.00  0.00    +0.000 HD
ENDBRANCH   4  10
ENDBRANCH   1   7
BRANCH   1  13
ATOM     13  N   UNL     1      -9.086   2.193 122.576  0.00  0.00    +0.000 N 
ATOM     14  C   UNL     1      -7.770   2.573 122.929  0.00  0.00    +0.000 C 
ATOM     15  O   UNL     1      -7.232   2.259 123.986  0.00  0.00    +0.000 OA
ATOM     16  H   UNL     1      -9.434   2.392 121.652  0.00  0.00    +0.000 HD
BRANCH  14  17
ATOM     17  C   UNL     1      -7.018   3.433 121.967  0.00  0.00    +0.000 A 
ATOM     18  C   UNL     1      -7.580   3.696 120.705  0.00  0.00    +0.000 A 
ATOM     19  C   UNL     1      -6.831   4.337 119.709  0.00  0.00    +0.000 A 
ATOM     20  C   UNL     1      -5.541   4.779 119.986  0.00  0.00    +0.000 A 
ATOM     21  C   UNL     1      -4.985   4.545 121.244  0.00  0.00    +0.000 A 
ATOM     22  C   UNL     1      -5.716   3.872 122.234  0.00  0.00    +0.000 A 
ENDBRANCH  14  17
ENDBRANCH   1  13
TORSDOF 4
ENDMDL
MODEL 4
REMARK VINA RESULT:      -7.2      2.143      2.525
REMARK  Name = Sulfabenzamide
REMARK  4 active torsions:
REMARK  status: ('A' for Active; 'I' for Inactive)
REMARK    1  A    between atoms: N_1  and  C_2
REMARK    2  A    between atoms: C_5  and  S_8
REMARK    3  A    between atoms: S_8  and  N_11
REMARK    4  A    between atoms: C_12  and  C_14
REMARK                            x       y       z     vdW  Elec       q    Type
REMARK                         _______ _______ _______ _____ _____    ______ ____
ROOT
ATOM      1  S   UNL     1      -7.386   2.948 124.244  0.00  0.00    +0.000 S 
ATOM      2  O   UNL     1      -6.090   3.282 124.793  0.00  0.00    +0.000 OA
ATOM      3  O   UNL     1      -8.615   3.546 124.726  0.00  0.00    +0.000 OA
ENDROOT
BRANCH   1   7
ATOM      4  C   UNL     1      -7.287   4.133 119.776  0.00  0.00    +0.000 A 
ATOM      5  C   UNL     1      -8.484   3.820 120.420  0.00  0.00    +0.000 A 
ATOM      6  C   UNL     1      -8.494   3.462 121.778  0.00  0.00    +0.000 A 
ATOM      7  C   UNL     1      -7.295   3.417 122.512  0.00  0.00    +0.000 A 
ATOM      8  C   UNL     1      -6.099   3.736 121.876  0.00  0.00    +0.000 A 
ATOM      9  C   UNL     1      -6.106   4.101 120.520  0.00  0.00    +0.000 A 
BRANCH   4  10
ATOM     10  N   UNL     1      -7.272   4.536 118.453  0.00  0.00    +0.000 N 
ATOM     11  H   UNL     1      -6.814   5.394 118.180  0.00  0.00    +0.000 HD
ATOM     12  H   UNL     1      -7.857   4.076 117.767  0.00  0.00    +0.000 HD
ENDBRANCH   4  10
ENDBRANCH   1   7
BRANCH   1  13
ATOM     13  N   UNL     1      -7.557   1.269 124.331  0.00  0.00    +0.000 N 
ATOM     14  C   UNL     1      -8.832   0.664 124.253  0.00  0.00    +0.000 C 
ATOM     15  O   UNL     1      -9.879   1.294 124.141  0.00  0.00    +0.000 OA
ATOM     16  H   UNL     1      -6.729   0.696 124.316  0.00  0.00    +0.000 HD
BRANCH  14  17
ATOM     17  C   UNL     1      -8.897  -0.825 124.350  0.00  0.00    +0.000 A 
ATOM     18  C   UNL     1      -8.929  -1.584 123.167  0.00  0.00    +0.000 A 
ATOM     19  C   UNL     1      -9.178  -2.962 123.209  0.00  0.00    +0.000 A 
ATOM     20  C   UNL     1      -9.333  -3.604 124.434  0.00  0.00    +0.000 A 
ATOM     21  C   UNL     1      -9.277  -2.863 125.615  0.00  0.00    +0.000 A 
ATOM     22  C   UNL     1      -9.063  -1.476 125.579  0.00  0.00    +0.000 A 
ENDBRANCH  14  17
ENDBRANCH   1  13
TORSDOF 4
ENDMDL
MODEL 5
REMARK VINA RESULT:      -7.1      1.833      6.673
REMARK  Name = Sulfabenzamide
REMARK  4 active torsions:
REMARK  status: ('A' for Active; 'I' for Inactive)
REMARK    1  A    between atoms: N_1  and  C_2
REMARK    2  A    between atoms: C_5  and  S_8
REMARK    3  A    between atoms: S_8  and  N_11
REMARK    4  A    between atoms: C_12  and  C_14
REMARK                            x       y       z     vdW  Elec       q    Type
REMARK                         _______ _______ _______ _____ _____    ______ ____
ROOT
ATOM      1  S   UNL     1      -8.559   1.881 124.018  0.00  0.00    +0.000 S 
ATOM      2  O   UNL     1      -9.957   1.513 123.961  0.00  0.00    +0.000 OA
ATOM      3  O   UNL     1      -8.007   2.683 125.090  0.00  0.00    +0.000 OA
ENDROOT
BRANCH   1   7
ATOM      4  C   UNL     1      -6.357  -2.183 124.149  0.00  0.00    +0.000 A 
ATOM      5  C   UNL     1      -7.457  -1.977 123.316  0.00  0.00    +0.000 A 
ATOM      6  C   UNL     1      -8.113  -0.735 123.290  0.00  0.00    +0.000 A 
ATOM      7  C   UNL     1      -7.668   0.323 124.103  0.00  0.00    +0.000 A 
ATOM      8  C   UNL     1      -6.565   0.125 124.929  0.00  0.00    +0.000 A 
ATOM      9  C   UNL     1      -5.915  -1.119 124.938  0.00  0.00    +0.000 A 
BRANCH   4  10
ATOM     10  N   UNL     1      -5.673  -3.385 124.144  0.00  0.00    +0.000 N 
ATOM     11  H   UNL     1      -4.965  -3.578 124.839  0.00  0.00    +0.000 HD
ATOM     12  H   UNL     1      -5.744  -4.015 123.356  0.00  0.00    +0.000 HD
ENDBRANCH   4  10
ENDBRANCH   1   7
BRANCH   1  13
ATOM     13  N   UNL     1      -8.172   2.633 122.555  0.00  0.00    +0.000 N 
ATOM     14  C   UNL     1      -6.893   3.197 122.344  0.00  0.00    +0.000 C 
ATOM     15  O   UNL     1      -6.003   3.201 123.190  0.00  0.00    +0.000 OA
ATOM     16  H   UNL     1      -8.823   2.567 121.789  0.00  0.00    +0.000 HD
BRANCH  14  17
ATOM     17  C   UNL     1      -6.636   3.854 121.028  0.00  0.00    +0.000 A 
ATOM     18  C   UNL     1      -5.420   4.532 120.831  0.00  0.00    +0.000 A 
ATOM     19  C   UNL     1      -5.216   5.316 119.688  0.00  0.00    +0.000 A 
ATOM     20  C   UNL     1      -6.197   5.378 118.703  0.00  0.00    +0.000 A 
ATOM     21  C   UNL     1      -7.398   4.688 118.879  0.00  0.00    +0.000 A 
ATOM     22  C   UNL     1      -7.622   3.929 120.037  0.00  0.00    +0.000 A 
ENDBRANCH  14  17
ENDBRANCH   1  13
TORSDOF 4
ENDMDL
MODEL 6
REMARK VINA RESULT:      -7.0     10.447     11.216
REMARK  Name = Sulfabenzamide
REMARK  4 active torsions:
REMARK  status: ('A' for Active; 'I' for Inactive)
REMARK    1  A    between atoms: N_1  and  C_2
REMARK    2  A    between atoms: C_5  and  S_8
REMARK    3  A    between atoms: S_8  and  N_11
REMARK    4  A    between atoms: C_12  and  C_14
REMARK                            x       y       z     vdW  Elec       q    Type
REMARK                         _______ _______ _______ _____ _____    ______ ____
ROOT
ATOM      1  S   UNL     1      -9.481   6.043 131.508  0.00  0.00    +0.000 S 
ATOM      2  O   UNL     1      -9.858   6.300 132.881  0.00  0.00    +0.000 OA
ATOM      3  O   UNL     1      -9.574   4.728 130.907  0.00  0.00    +0.000 OA
ENDROOT
BRANCH   1   7
ATOM      4  C   UNL     1     -12.384   8.678 129.058  0.00  0.00    +0.000 A 
ATOM      5  C   UNL     1     -12.790   8.046 130.233  0.00  0.00    +0.000 A 
ATOM      6  C   UNL     1     -11.893   7.249 130.964  0.00  0.00    +0.000 A 
ATOM      7  C   UNL     1     -10.569   7.079 130.522  0.00  0.00    +0.000 A 
ATOM      8  C   UNL     1     -10.156   7.715 129.355  0.00  0.00    +0.000 A 
ATOM      9  C   UNL     1     -11.061   8.515 128.641  0.00  0.00    +0.000 A 
BRANCH   4  10
ATOM     10  N   UNL     1     -13.243   9.506 128.359  0.00  0.00    +0.000 N 
ATOM     11  H   UNL     1     -14.238   9.488 128.538  0.00  0.00    +0.000 HD
ATOM     12  H   UNL     1     -12.921  10.016 127.546  0.00  0.00    +0.000 HD
ENDBRANCH   4  10
ENDBRANCH   1   7
BRANCH   1  13
ATOM     13  N   UNL     1      -7.896   6.595 131.305  0.00  0.00    +0.000 N 
ATOM     14  C   UNL     1      -6.821   5.982 131.988  0.00  0.00    +0.000 C 
ATOM     15  O   UNL     1      -6.956   5.046 132.770  0.00  0.00    +0.000 OA
ATOM     16  H   UNL     1      -7.711   7.287 130.598  0.00  0.00    +0.000 HD
BRANCH  14  17
ATOM     17  C   UNL     1      -5.453   6.537 131.763  0.00  0.00    +0.000 A 
ATOM     18  C   UNL     1      -4.481   6.381 132.767  0.00  0.00    +0.000 A 
ATOM     19  C   UNL     1      -3.250   7.045 132.679  0.00  0.00    +0.000 A 
ATOM     20  C   UNL     1      -2.954   7.816 131.558  0.00  0.00    +0.000 A 
ATOM     21  C   UNL     1      -3.904   7.955 130.545  0.00  0.00    +0.000 A 
ATOM     22  C   UNL     1      -5.152   7.322 130.643  0.00  0.00    +0.000 A 
ENDBRANCH  14  17
ENDBRANCH   1  13
TORSDOF 4
ENDMDL
MODEL 7
REMARK VINA RESULT:      -7.0     10.002     11.637
REMARK  Name = Sulfabenzamide
REMARK  4 active torsions:
REMARK  status: ('A' for Active; 'I' for Inactive)
REMARK    1  A    between atoms: N_1  and  C_2
REMARK    2  A    between atoms: C_5  and  S_8
REMARK    3  A    between atoms: S_8  and  N_11
REMARK    4  A    between atoms: C_12  and  C_14
REMARK                            x       y       z     vdW  Elec       q    Type
REMARK                         _______ _______ _______ _____ _____    ______ ____
ROOT
ATOM      1  S   UNL     1      -9.389   5.610 131.962  0.00  0.00    +0.000 S 
ATOM      2  O   UNL     1      -9.748   4.209 131.951  0.00  0.00    +0.000 OA
ATOM      3  O   UNL     1      -9.503   6.435 133.147  0.00  0.00    +0.000 OA
ENDROOT
BRANCH   1   7
ATOM      4  C   UNL     1      -4.906   5.845 130.853  0.00  0.00    +0.000 A 
ATOM      5  C   UNL     1      -5.711   6.984 130.874  0.00  0.00    +0.000 A 
ATOM      6  C   UNL     1      -7.072   6.892 131.213  0.00  0.00    +0.000 A 
ATOM      7  C   UNL     1      -7.642   5.649 131.541  0.00  0.00    +0.000 A 
ATOM      8  C   UNL     1      -6.840   4.511 131.530  0.00  0.00    +0.000 A 
ATOM      9  C   UNL     1      -5.481   4.620 131.197  0.00  0.00    +0.000 A 
BRANCH   4  10
ATOM     10  N   UNL     1      -3.555   5.931 130.571  0.00  0.00    +0.000 N 
ATOM     11  H   UNL     1      -2.965   5.112 130.616  0.00  0.00    +0.000 HD
ATOM     12  H   UNL     1      -3.103   6.832 130.482  0.00  0.00    +0.000 HD
ENDBRANCH   4  10
ENDBRANCH   1   7
BRANCH   1  13
ATOM     13  N   UNL     1     -10.250   6.365 130.719  0.00  0.00    +0.000 N 
ATOM     14  C   UNL     1     -11.620   6.677 130.872  0.00  0.00    +0.000 C 
ATOM     15  O   UNL     1     -12.271   6.413 131.879  0.00  0.00    +0.000 OA
ATOM     16  H   UNL     1      -9.746   6.700 129.915  0.00  0.00    +0.000 HD
BRANCH  14  17
ATOM     17  C   UNL     1     -12.312   7.333 129.722  0.00  0.00    +0.000 A 
ATOM     18  C   UNL     1     -12.459   8.731 129.723  0.00  0.00    +0.000 A 
ATOM     19  C   UNL     1     -13.260   9.366 128.765  0.00  0.00    +0.000 A 
ATOM     20  C   UNL     1     -13.867   8.618 127.759  0.00  0.00    +0.000 A 
ATOM     21  C   UNL     1     -13.705   7.232 127.736  0.00  0.00    +0.000 A 
ATOM     22  C   UNL     1     -12.933   6.586 128.713  0.00  0.00    +0.000 A 
ENDBRANCH  14  17
ENDBRANCH   1  13
TORSDOF 4
ENDMDL
MODEL 8
REMARK VINA RESULT:      -6.9      3.754      4.635
REMARK  Name = Sulfabenzamide
REMARK  4 active torsions:
REMARK  status: ('A' for Active; 'I' for Inactive)
REMARK    1  A    between atoms: N_1  and  C_2
REMARK    2  A    between atoms: C_5  and  S_8
REMARK    3  A    between atoms: S_8  and  N_11
REMARK    4  A    between atoms: C_12  and  C_14
REMARK                            x       y       z     vdW  Elec       q    Type
REMARK                         _______ _______ _______ _____ _____    ______ ____
ROOT
ATOM      1  S   UNL     1      -7.951   2.490 124.193  0.00  0.00    +0.000 S 
ATOM      2  O   UNL     1      -8.930   3.399 124.749  0.00  0.00    +0.000 OA
ATOM      3  O   UNL     1      -8.216   1.078 124.006  0.00  0.00    +0.000 OA
ENDROOT
BRANCH   1   7
ATOM      4  C   UNL     1      -7.218   4.102 119.922  0.00  0.00    +0.000 A 
ATOM      5  C   UNL     1      -8.508   3.879 120.405  0.00  0.00    +0.000 A 
ATOM      6  C   UNL     1      -8.710   3.389 121.706  0.00  0.00    +0.000 A 
ATOM      7  C   UNL     1      -7.614   3.117 122.544  0.00  0.00    +0.000 A 
ATOM      8  C   UNL     1      -6.325   3.346 122.069  0.00  0.00    +0.000 A 
ATOM      9  C   UNL     1      -6.139   3.844 120.770  0.00  0.00    +0.000 A 
BRANCH   4  10
ATOM     10  N   UNL     1      -7.009   4.633 118.662  0.00  0.00    +0.000 N 
ATOM     11  H   UNL     1      -7.412   5.522 118.404  0.00  0.00    +0.000 HD
ATOM     12  H   UNL     1      -6.598   4.071 117.928  0.00  0.00    +0.000 HD
ENDBRANCH   4  10
ENDBRANCH   1   7
BRANCH   1  13
ATOM     13  N   UNL     1      -6.542   2.636 125.114  0.00  0.00    +0.000 N 
ATOM     14  C   UNL     1      -6.078   3.903 125.535  0.00  0.00    +0.000 C 
ATOM     15  O   UNL     1      -6.635   4.960 125.255  0.00  0.00    +0.000 OA
ATOM     16  H   UNL     1      -6.102   1.800 125.464  0.00  0.00    +0.000 HD
BRANCH  14  17
ATOM     17  C   UNL     1      -4.818   3.946 126.336  0.00  0.00    +0.000 A 
ATOM     18  C   UNL     1      -4.539   5.089 127.106  0.00  0.00    +0.000 A 
ATOM     19  C   UNL     1      -3.289   5.251 127.719  0.00  0.00    +0.000 A 
ATOM     20  C   UNL     1      -2.332   4.244 127.623  0.00  0.00    +0.000 A 
ATOM     21  C   UNL     1      -2.610   3.095 126.882  0.00  0.00    +0.000 A 
ATOM     22  C   UNL     1      -3.847   2.942 126.236  0.00  0.00    +0.000 A 
ENDBRANCH  14  17
ENDBRANCH   1  13
TORSDOF 4
ENDMDL
MODEL 9
REMARK VINA RESULT:      -6.8     10.083     11.122
REMARK  Name = Sulfabenzamide
REMARK  4 active torsions:
REMARK  status: ('A' for Active; 'I' for Inactive)
REMARK    1  A    between atoms: N_1  and  C_2
REMARK    2  A    between atoms: C_5  and  S_8
REMARK    3  A    between atoms: S_8  and  N_11
REMARK    4  A    between atoms: C_12  and  C_14
REMARK                            x       y       z     vdW  Elec       q    Type
REMARK                         _______ _______ _______ _____ _____    ______ ____
ROOT
ATOM      1  S   UNL     1     -10.239   4.962 129.910  0.00  0.00    +0.000 S 
ATOM      2  O   UNL     1     -11.279   3.972 130.083  0.00  0.00    +0.000 OA
ATOM      3  O   UNL     1      -9.290   4.913 128.817  0.00  0.00    +0.000 OA
ENDROOT
BRANCH   1   7
ATOM      4  C   UNL     1     -12.397   8.998 129.249  0.00  0.00    +0.000 A 
ATOM      5  C   UNL     1     -11.420   8.541 128.363  0.00  0.00    +0.000 A 
ATOM      6  C   UNL     1     -10.775   7.311 128.581  0.00  0.00    +0.000 A 
ATOM      7  C   UNL     1     -11.108   6.520 129.696  0.00  0.00    +0.000 A 
ATOM      8  C   UNL     1     -12.088   6.968 130.577  0.00  0.00    +0.000 A 
ATOM      9  C   UNL     1     -12.729   8.194 130.341  0.00  0.00    +0.000 A 
BRANCH   4  10
ATOM     10  N   UNL     1     -13.074  10.181 129.016  0.00  0.00    +0.000 N 
ATOM     11  H   UNL     1     -13.175  10.541 128.077  0.00  0.00    +0.000 HD
ATOM     12  H   UNL     1     -13.329  10.789 129.783  0.00  0.00    +0.000 HD
ENDBRANCH   4  10
ENDBRANCH   1   7
BRANCH   1  13
ATOM     13  N   UNL     1      -9.364   5.037 131.354  0.00  0.00    +0.000 N 
ATOM     14  C   UNL     1      -8.275   5.927 131.498  0.00  0.00    +0.000 C 
ATOM     15  O   UNL     1      -7.884   6.673 130.606  0.00  0.00    +0.000 OA
ATOM     16  H   UNL     1      -9.704   4.527 132.154  0.00  0.00    +0.000 HD
BRANCH  14  17
ATOM     17  C   UNL     1      -7.547   5.923 132.802  0.00  0.00    +0.000 A 
ATOM     18  C   UNL     1      -6.145   6.038 132.800  0.00  0.00    +0.000 A 
ATOM     19  C   UNL     1      -5.411   5.851 133.978  0.00  0.00    +0.000 A 
ATOM     20  C   UNL     1      -6.073   5.612 135.180  0.00  0.00    +0.000 A 
ATOM     21  C   UNL     1      -7.466   5.521 135.195  0.00  0.00    +0.000 A 
ATOM     22  C   UNL     1      -8.205   5.673 134.012  0.00  0.00    +0.000 A 
ENDBRANCH  14  17
ENDBRANCH   1  13
TORSDOF 4
ENDMDL
