MODEL 1
REMARK VINA RESULT:      -5.4      0.000      0.000
REMARK  Name = Sulfanilamide
REMARK  3 active torsions:
REMARK  status: ('A' for Active; 'I' for Inactive)
REMARK    1  A    between atoms: N_1  and  C_2
REMARK    2  A    between atoms: C_5  and  S_8
REMARK    3  A    between atoms: S_8  and  N_9
REMARK                            x       y       z     vdW  Elec       q    Type
REMARK                         _______ _______ _______ _____ _____    ______ ____
ROOT
ATOM      1  C   UNL     1     -10.526   6.264 131.985  0.00  0.00    +0.000 A 
ATOM      2  C   UNL     1     -11.890   6.476 131.762  0.00  0.00    +0.000 A 
ATOM      3  C   UNL     1     -12.343   7.076 130.581  0.00  0.00    +0.000 A 
ATOM      4  C   UNL     1     -11.420   7.449 129.602  0.00  0.00    +0.000 A 
ATOM      5  C   UNL     1     -10.057   7.223 129.797  0.00  0.00    +0.000 A 
ATOM      6  C   UNL     1      -9.620   6.620 130.981  0.00  0.00    +0.000 A 
ENDROOT
BRANCH   1   7
ATOM      7  N   UNL     1     -10.095   5.562 133.102  0.00  0.00    +0.000 N 
ATOM      8  H   UNL     1     -10.501   4.656 133.300  0.00  0.00    +0.000 HD
ATOM      9  H   UNL     1      -9.748   6.081 133.900  0.00  0.00    +0.000 HD
ENDBRANCH   1   7
BRANCH   4  10
ATOM     10  S   UNL     1     -11.975   8.249 128.118  0.00  0.00    +0.000 S 
ATOM     11  O   UNL     1     -10.805   8.606 127.348  0.00  0.00    +0.000 OA
ATOM     12  O   UNL     1     -13.073   7.491 127.571  0.00  0.00    +0.000 OA
BRANCH  10  13
ATOM     13  N   UNL     1     -12.629   9.664 128.712  0.00  0.00    +0.000 NA
ATOM     14  H   UNL     1     -12.636   9.768 129.721  0.00  0.00    +0.000 HD
ATOM     15  H   UNL     1     -13.352  10.092 128.143  0.00  0.00    +0.000 HD
ENDBRANCH  10  13
ENDBRANCH   4  10
TORSDOF 3
ENDMDL
MODEL 2
REMARK VINA RESULT:      -5.4      1.110      2.051
REMARK  Name = Sulfanilamide
REMARK  3 active torsions:
REMARK  status: ('A' for Active; 'I' for Inactive)
REMARK    1  A    between atoms: N_1  and  C_2
REMARK    2  A    between atoms: C_5  and  S_8
REMARK    3  A    between atoms: S_8  and  N_9
REMARK                            x       y       z     vdW  Elec       q    Type
REMARK                         _______ _______ _______ _____ _____    ______ ____
ROOT
ATOM      1  C   UNL     1     -10.311   6.291 131.963  0.00  0.00    +0.000 A 
ATOM      2  C   UNL     1      -9.420   6.730 130.979  0.00  0.00    +0.000 A 
ATOM      3  C   UNL     1      -9.885   7.308 129.791  0.00  0.00    +0.000 A 
ATOM      4  C   UNL     1     -11.259   7.467 129.597  0.00  0.00    +0.000 A 
ATOM      5  C   UNL     1     -12.161   7.056 130.579  0.00  0.00    +0.000 A 
ATOM      6  C   UNL     1     -11.681   6.484 131.760  0.00  0.00    +0.000 A 
ENDROOT
BRANCH   1   7
ATOM      7  N   UNL     1      -9.841   5.830 133.186  0.00  0.00    +0.000 N 
ATOM      8  H   UNL     1      -8.842   5.798 133.348  0.00  0.00    +0.000 HD
ATOM      9  H   UNL     1     -10.400   5.161 133.702  0.00  0.00    +0.000 HD
ENDBRANCH   1   7
BRANCH   4  10
ATOM     10  S   UNL     1     -11.864   8.159 128.078  0.00  0.00    +0.000 S 
ATOM     11  O   UNL     1     -12.952   9.053 128.407  0.00  0.00    +0.000 OA
ATOM     12  O   UNL     1     -10.737   8.557 127.273  0.00  0.00    +0.000 OA
BRANCH  10  13
ATOM     13  N   UNL     1     -12.528   6.824 127.331  0.00  0.00    +0.000 NA
ATOM     14  H   UNL     1     -13.102   6.222 127.911  0.00  0.00    +0.000 HD
ATOM     15  H   UNL     1     -12.000   6.442 126.553  0.00  0.00    +0.000 HD
ENDBRANCH  10  13
ENDBRANCH   4  10
TORSDOF 3
ENDMDL
MODEL 3
REMARK VINA RESULT:      -5.3     10.099     11.103
REMARK  Name = Sulfanilamide
REMARK  3 active torsions:
REMARK  status: ('A' for Active; 'I' for Inactive)
REMARK    1  A    between atoms: N_1  and  C_2
REMARK    2  A    between atoms: C_5  and  S_8
REMARK    3  A    between atoms: S_8  and  N_9
REMARK                            x       y       z     vdW  Elec       q    Type
REMARK                         _______ _______ _______ _____ _____    ______ ____
ROOT
ATOM      1  C   UNL     1      -6.180   4.897 119.354  0.00  0.00    +0.000 A 
ATOM      2  C   UNL     1      -7.525   4.512 119.347  0.00  0.00    +0.000 A 
ATOM      3  C   UNL     1      -8.083   3.824 120.431  0.00  0.00    +0.000 A 
ATOM      4  C   UNL     1      -7.292   3.536 121.545  0.00  0.00    +0.000 A 
ATOM      5  C   UNL     1      -5.955   3.934 121.579  0.00  0.00    +0.000 A 
ATOM      6  C   UNL     1      -5.412   4.623 120.490  0.00  0.00    +0.000 A 
ENDROOT
BRANCH   1   7
ATOM      7  N   UNL     1      -5.665   5.682 118.332  0.00  0.00    +0.000 N 
ATOM      8  H   UNL     1      -5.268   5.230 117.517  0.00  0.00    +0.000 HD
ATOM      9  H   UNL     1      -5.296   6.598 118.560  0.00  0.00    +0.000 HD
ENDBRANCH   1   7
BRANCH   4  10
ATOM     10  S   UNL     1      -7.975   2.627 122.907  0.00  0.00    +0.000 S 
ATOM     11  O   UNL     1      -9.291   2.173 122.515  0.00  0.00    +0.000 OA
ATOM     12  O   UNL     1      -6.961   1.742 123.423  0.00  0.00    +0.000 OA
BRANCH  10  13
ATOM     13  N   UNL     1      -8.183   3.823 124.051  0.00  0.00    +0.000 NA
ATOM     14  H   UNL     1      -7.732   4.711 123.861  0.00  0.00    +0.000 HD
ATOM     15  H   UNL     1      -8.321   3.505 125.005  0.00  0.00    +0.000 HD
ENDBRANCH  10  13
ENDBRANCH   4  10
TORSDOF 3
ENDMDL
MODEL 4
REMARK VINA RESULT:      -5.2      2.920      4.427
REMARK  Name = Sulfanilamide
REMARK  3 active torsions:
REMARK  status: ('A' for Active; 'I' for Inactive)
REMARK    1  A    between atoms: N_1  and  C_2
REMARK    2  A    between atoms: C_5  and  S_8
REMARK    3  A    between atoms: S_8  and  N_9
REMARK                            x       y       z     vdW  Elec       q    Type
REMARK                         _______ _______ _______ _____ _____    ______ ____
ROOT
ATOM      1  C   UNL     1     -12.357   8.892 129.225  0.00  0.00    +0.000 A 
ATOM      2  C   UNL     1     -11.314   8.416 128.423  0.00  0.00    +0.000 A 
ATOM      3  C   UNL     1     -10.647   7.226 128.739  0.00  0.00    +0.000 A 
ATOM      4  C   UNL     1     -11.044   6.492 129.859  0.00  0.00    +0.000 A 
ATOM      5  C   UNL     1     -12.098   6.940 130.656  0.00  0.00    +0.000 A 
ATOM      6  C   UNL     1     -12.756   8.128 130.326  0.00  0.00    +0.000 A 
ENDROOT
BRANCH   1   7
ATOM      7  N   UNL     1     -13.091  10.006 128.841  0.00  0.00    +0.000 N 
ATOM      8  H   UNL     1     -14.046   9.880 128.527  0.00  0.00    +0.000 HD
ATOM      9  H   UNL     1     -12.599  10.809 128.467  0.00  0.00    +0.000 HD
ENDBRANCH   1   7
BRANCH   4  10
ATOM     10  S   UNL     1     -10.180   5.005 130.295  0.00  0.00    +0.000 S 
ATOM     11  O   UNL     1      -9.293   4.676 129.200  0.00  0.00    +0.000 OA
ATOM     12  O   UNL     1      -9.732   5.117 131.661  0.00  0.00    +0.000 OA
BRANCH  10  13
ATOM     13  N   UNL     1     -11.409   3.877 130.292  0.00  0.00    +0.000 NA
ATOM     14  H   UNL     1     -11.692   3.518 131.198  0.00  0.00    +0.000 HD
ATOM     15  H   UNL     1     -11.480   3.300 129.460  0.00  0.00    +0.000 HD
ENDBRANCH  10  13
ENDBRANCH   4  10
TORSDOF 3
ENDMDL
MODEL 5
REMARK VINA RESULT:      -5.1      2.969      4.152
REMARK  Name = Sulfanilamide
REMARK  3 active torsions:
REMARK  status: ('A' for Active; 'I' for Inactive)
REMARK    1  A    between atoms: N_1  and  C_2
REMARK    2  A    between atoms: C_5  and  S_8
REMARK    3  A    between atoms: S_8  and  N_9
REMARK                            x       y       z     vdW  Elec       q    Type
REMARK                         _______ _______ _______ _____ _____    ______ ____
ROOT
ATOM      1  C   UNL     1     -12.590   9.054 129.059  0.00  0.00    +0.000 A 
ATOM      2  C   UNL     1     -12.763   8.305 130.227  0.00  0.00    +0.000 A 
ATOM      3  C   UNL     1     -11.943   7.204 130.505  0.00  0.00    +0.000 A 
ATOM      4  C   UNL     1     -10.924   6.863 129.614  0.00  0.00    +0.000 A 
ATOM      5  C   UNL     1     -10.721   7.614 128.455  0.00  0.00    +0.000 A 
ATOM      6  C   UNL     1     -11.546   8.712 128.192  0.00  0.00    +0.000 A 
ENDROOT
BRANCH   1   7
ATOM      7  N   UNL     1     -13.325  10.213 128.848  0.00  0.00    +0.000 N 
ATOM      8  H   UNL     1     -13.610  10.449 127.905  0.00  0.00    +0.000 HD
ATOM      9  H   UNL     1     -13.204  10.990 129.486  0.00  0.00    +0.000 HD
ENDBRANCH   1   7
BRANCH   4  10
ATOM     10  S   UNL     1      -9.905   5.445 129.933  0.00  0.00    +0.000 S 
ATOM     11  O   UNL     1      -8.990   5.794 130.998  0.00  0.00    +0.000 OA
ATOM     12  O   UNL     1     -10.746   4.275 129.973  0.00  0.00    +0.000 OA
BRANCH  10  13
ATOM     13  N   UNL     1      -9.012   5.338 128.528  0.00  0.00    +0.000 NA
ATOM     14  H   UNL     1      -9.195   4.532 127.939  0.00  0.00    +0.000 HD
ATOM     15  H   UNL     1      -8.090   5.761 128.555  0.00  0.00    +0.000 HD
ENDBRANCH  10  13
ENDBRANCH   4  10
TORSDOF 3
ENDMDL
MODEL 6
REMARK VINA RESULT:      -5.0      3.065      4.527
REMARK  Name = Sulfanilamide
REMARK  3 active torsions:
REMARK  status: ('A' for Active; 'I' for Inactive)
REMARK    1  A    between atoms: N_1  and  C_2
REMARK    2  A    between atoms: C_5  and  S_8
REMARK    3  A    between atoms: S_8  and  N_9
REMARK                            x       y       z     vdW  Elec       q    Type
REMARK                         _______ _______ _______ _____ _____    ______ ____
ROOT
ATOM      1  C   UNL     1     -12.495   8.627 129.030  0.00  0.00    +0.000 A 
ATOM      2  C   UNL     1     -11.217   8.571 128.466  0.00  0.00    +0.000 A 
ATOM      3  C   UNL     1     -10.188   7.847 129.081  0.00  0.00    +0.000 A 
ATOM      4  C   UNL     1     -10.449   7.151 130.264  0.00  0.00    +0.000 A 
ATOM      5  C   UNL     1     -11.725   7.176 130.827  0.00  0.00    +0.000 A 
ATOM      6  C   UNL     1     -12.743   7.901 130.200  0.00  0.00    +0.000 A 
ENDROOT
BRANCH   1   7
ATOM      7  N   UNL     1     -13.539   9.246 128.355  0.00  0.00    +0.000 N 
ATOM      8  H   UNL     1     -14.466   8.843 128.409  0.00  0.00    +0.000 HD
ATOM      9  H   UNL     1     -13.330   9.778 127.518  0.00  0.00    +0.000 HD
ENDBRANCH   1   7
BRANCH   4  10
ATOM     10  S   UNL     1      -9.144   6.264 131.076  0.00  0.00    +0.000 S 
ATOM     11  O   UNL     1      -9.330   6.420 132.502  0.00  0.00    +0.000 OA
ATOM     12  O   UNL     1      -8.997   4.979 130.440  0.00  0.00    +0.000 OA
BRANCH  10  13
ATOM     13  N   UNL     1      -7.802   7.157 130.650  0.00  0.00    +0.000 NA
ATOM     14  H   UNL     1      -7.962   8.134 130.429  0.00  0.00    +0.000 HD
ATOM     15  H   UNL     1      -7.050   6.642 130.203  0.00  0.00    +0.000 HD
ENDBRANCH  10  13
ENDBRANCH   4  10
TORSDOF 3
ENDMDL
MODEL 7
REMARK VINA RESULT:      -4.8      2.267      2.619
REMARK  Name = Sulfanilamide
REMARK  3 active torsions:
REMARK  status: ('A' for Active; 'I' for Inactive)
REMARK    1  A    between atoms: N_1  and  C_2
REMARK    2  A    between atoms: C_5  and  S_8
REMARK    3  A    between atoms: S_8  and  N_9
REMARK                            x       y       z     vdW  Elec       q    Type
REMARK                         _______ _______ _______ _____ _____    ______ ____
ROOT
ATOM      1  C   UNL     1      -7.935   6.163 132.329  0.00  0.00    +0.000 A 
ATOM      2  C   UNL     1      -9.155   5.765 132.885  0.00  0.00    +0.000 A 
ATOM      3  C   UNL     1     -10.364   6.018 132.225  0.00  0.00    +0.000 A 
ATOM      4  C   UNL     1     -10.349   6.656 130.983  0.00  0.00    +0.000 A 
ATOM      5  C   UNL     1      -9.139   7.038 130.403  0.00  0.00    +0.000 A 
ATOM      6  C   UNL     1      -7.940   6.777 131.073  0.00  0.00    +0.000 A 
ENDROOT
BRANCH   1   7
ATOM      7  N   UNL     1      -6.736   5.804 132.929  0.00  0.00    +0.000 N 
ATOM      8  H   UNL     1      -6.377   6.371 133.688  0.00  0.00    +0.000 HD
ATOM      9  H   UNL     1      -6.047   5.303 132.380  0.00  0.00    +0.000 HD
ENDBRANCH   1   7
BRANCH   4  10
ATOM     10  S   UNL     1     -11.877   7.021 130.156  0.00  0.00    +0.000 S 
ATOM     11  O   UNL     1     -11.776   8.360 129.619  0.00  0.00    +0.000 OA
ATOM     12  O   UNL     1     -12.249   5.881 129.355  0.00  0.00    +0.000 OA
BRANCH  10  13
ATOM     13  N   UNL     1     -12.954   7.075 131.427  0.00  0.00    +0.000 NA
ATOM     14  H   UNL     1     -13.811   7.594 131.270  0.00  0.00    +0.000 HD
ATOM     15  H   UNL     1     -12.548   7.015 132.356  0.00  0.00    +0.000 HD
ENDBRANCH  10  13
ENDBRANCH   4  10
TORSDOF 3
ENDMDL
MODEL 8
REMARK VINA RESULT:      -4.8      3.071      4.453
REMARK  Name = Sulfanilamide
REMARK  3 active torsions:
REMARK  status: ('A' for Active; 'I' for Inactive)
REMARK    1  A    between atoms: N_1  and  C_2
REMARK    2  A    between atoms: C_5  and  S_8
REMARK    3  A    between atoms: S_8  and  N_9
REMARK                            x       y       z     vdW  Elec       q    Type
REMARK                         _______ _______ _______ _____ _____    ______ ____
ROOT
ATOM      1  C   UNL     1     -12.344   8.269 129.305  0.00  0.00    +0.000 A 
ATOM      2  C   UNL     1     -12.761   7.607 130.464  0.00  0.00    +0.000 A 
ATOM      3  C   UNL     1     -11.863   6.847 131.222  0.00  0.00    +0.000 A 
ATOM      4  C   UNL     1     -10.526   6.766 130.828  0.00  0.00    +0.000 A 
ATOM      5  C   UNL     1     -10.087   7.440 129.687  0.00  0.00    +0.000 A 
ATOM      6  C   UNL     1     -10.995   8.198 128.941  0.00  0.00    +0.000 A 
ENDROOT
BRANCH   1   7
ATOM      7  N   UNL     1     -13.209   9.116 128.626  0.00  0.00    +0.000 N 
ATOM      8  H   UNL     1     -14.185   8.860 128.545  0.00  0.00    +0.000 HD
ATOM      9  H   UNL     1     -12.838   9.702 127.887  0.00  0.00    +0.000 HD
ENDBRANCH   1   7
BRANCH   4  10
ATOM     10  S   UNL     1      -9.386   5.772 131.756  0.00  0.00    +0.000 S 
ATOM     11  O   UNL     1      -8.232   5.530 130.918  0.00  0.00    +0.000 OA
ATOM     12  O   UNL     1      -9.288   6.310 133.090  0.00  0.00    +0.000 OA
BRANCH  10  13
ATOM     13  N   UNL     1     -10.214   4.330 131.889  0.00  0.00    +0.000 NA
ATOM     14  H   UNL     1     -10.410   4.008 132.831  0.00  0.00    +0.000 HD
ATOM     15  H   UNL     1     -10.073   3.666 131.134  0.00  0.00    +0.000 HD
ENDBRANCH  10  13
ENDBRANCH   4  10
TORSDOF 3
ENDMDL
MODEL 9
REMARK VINA RESULT:      -4.6     10.561     10.937
REMARK  Name = Sulfanilamide
REMARK  3 active torsions:
REMARK  status: ('A' for Active; 'I' for Inactive)
REMARK    1  A    between atoms: N_1  and  C_2
REMARK    2  A    between atoms: C_5  and  S_8
REMARK    3  A    between atoms: S_8  and  N_9
REMARK                            x       y       z     vdW  Elec       q    Type
REMARK                         _______ _______ _______ _____ _____    ______ ____
ROOT
ATOM      1  C   UNL     1      -7.979  -2.978 128.838  0.00  0.00    +0.000 A 
ATOM      2  C   UNL     1      -8.795  -3.800 128.055  0.00  0.00    +0.000 A 
ATOM      3  C   UNL     1      -9.040  -3.502 126.709  0.00  0.00    +0.000 A 
ATOM      4  C   UNL     1      -8.442  -2.379 126.134  0.00  0.00    +0.000 A 
ATOM      5  C   UNL     1      -7.606  -1.560 126.894  0.00  0.00    +0.000 A 
ATOM      6  C   UNL     1      -7.369  -1.872 128.236  0.00  0.00    +0.000 A 
ENDROOT
BRANCH   1   7
ATOM      7  N   UNL     1      -7.644  -3.343 130.135  0.00  0.00    +0.000 N 
ATOM      8  H   UNL     1      -6.753  -3.794 130.304  0.00  0.00    +0.000 HD
ATOM      9  H   UNL     1      -8.388  -3.564 130.786  0.00  0.00    +0.000 HD
ENDBRANCH   1   7
BRANCH   4  10
ATOM     10  S   UNL     1      -8.778  -1.966 124.441  0.00  0.00    +0.000 S 
ATOM     11  O   UNL     1      -9.542  -0.738 124.432  0.00  0.00    +0.000 OA
ATOM     12  O   UNL     1      -7.568  -2.142 123.677  0.00  0.00    +0.000 OA
BRANCH  10  13
ATOM     13  N   UNL     1      -9.808  -3.195 123.983  0.00  0.00    +0.000 NA
ATOM     14  H   UNL     1      -9.570  -4.126 124.307  0.00  0.00    +0.000 HD
ATOM     15  H   UNL     1     -10.293  -3.062 123.101  0.00  0.00    +0.000 HD
ENDBRANCH  10  13
ENDBRANCH   4  10
TORSDOF 3
ENDMDL
