MODEL 1
REMARK VINA RESULT:      -6.6      0.000      0.000
REMARK  Name = Sulfameter
REMARK  5 active torsions:
REMARK  status: ('A' for Active; 'I' for Inactive)
REMARK    1  A    between atoms: C_1  and  O_2
REMARK    2  A    between atoms: O_2  and  C_3
REMARK    3  A    between atoms: N_7  and  S_8
REMARK    4  A    between atoms: S_8  and  C_11
REMARK    5  A    between atoms: C_14  and  N_15
REMARK                            x       y       z     vdW  Elec       q    Type
REMARK                         _______ _______ _______ _____ _____    ______ ____
ROOT
ATOM      1  S   UNL     1      -8.164   2.719 122.804  0.00  0.00    +0.000 S 
ATOM      2  O   UNL     1      -9.429   2.219 122.302  0.00  0.00    +0.000 OA
ATOM      3  O   UNL     1      -8.090   3.670 123.893  0.00  0.00    +0.000 OA
ENDROOT
BRANCH   1   8
ATOM      4  C   UNL     1      -8.236  -1.319 126.047  0.00  0.00    +0.000 A 
ATOM      5  C   UNL     1      -7.062  -1.382 125.326  0.00  0.00    +0.000 A 
ATOM      6  N   UNL     1      -6.703  -0.483 124.368  0.00  0.00    +0.000 NA
ATOM      7  C   UNL     1      -7.589   0.498 124.130  0.00  0.00    +0.000 A 
ATOM      8  N   UNL     1      -7.182   1.428 123.168  0.00  0.00    +0.000 N 
ATOM      9  N   UNL     1      -8.776   0.620 124.719  0.00  0.00    +0.000 NA
ATOM     10  C   UNL     1      -9.078  -0.301 125.662  0.00  0.00    +0.000 A 
ATOM     11  H   UNL     1      -6.251   1.303 122.800  0.00  0.00    +0.000 HD
BRANCH   4  13
ATOM     12  C   UNL     1      -8.721  -3.549 126.575  0.00  0.00    +0.000 C 
ATOM     13  O   UNL     1      -8.639  -2.190 127.010  0.00  0.00    +0.000 OA
ENDBRANCH   4  13
ENDBRANCH   1   8
BRANCH   1  14
ATOM     14  C   UNL     1      -7.397   3.547 121.402  0.00  0.00    +0.000 A 
ATOM     15  C   UNL     1      -8.179   3.861 120.278  0.00  0.00    +0.000 A 
ATOM     16  C   UNL     1      -7.617   4.571 119.205  0.00  0.00    +0.000 A 
ATOM     17  C   UNL     1      -6.286   4.991 119.245  0.00  0.00    +0.000 A 
ATOM     18  C   UNL     1      -5.511   4.637 120.354  0.00  0.00    +0.000 A 
ATOM     19  C   UNL     1      -6.053   3.909 121.423  0.00  0.00    +0.000 A 
BRANCH  17  20
ATOM     20  N   UNL     1      -5.733   5.713 118.203  0.00  0.00    +0.000 N 
ATOM     21  H   UNL     1      -5.919   6.701 118.099  0.00  0.00    +0.000 HD
ATOM     22  H   UNL     1      -5.071   5.286 117.571  0.00  0.00    +0.000 HD
ENDBRANCH  17  20
ENDBRANCH   1  14
TORSDOF 4
ENDMDL
MODEL 2
REMARK VINA RESULT:      -6.6      1.629      2.355
REMARK  Name = Sulfameter
REMARK  5 active torsions:
REMARK  status: ('A' for Active; 'I' for Inactive)
REMARK    1  A    between atoms: C_1  and  O_2
REMARK    2  A    between atoms: O_2  and  C_3
REMARK    3  A    between atoms: N_7  and  S_8
REMARK    4  A    between atoms: S_8  and  C_11
REMARK    5  A    between atoms: C_14  and  N_15
REMARK                            x       y       z     vdW  Elec       q    Type
REMARK                         _______ _______ _______ _____ _____    ______ ____
ROOT
ATOM      1  S   UNL     1      -7.923   1.805 124.385  0.00  0.00    +0.000 S 
ATOM      2  O   UNL     1      -8.854   2.604 125.157  0.00  0.00    +0.000 OA
ATOM      3  O   UNL     1      -6.585   1.514 124.855  0.00  0.00    +0.000 OA
ENDROOT
BRANCH   1   8
ATOM      4  C   UNL     1      -8.789  -2.796 126.601  0.00  0.00    +0.000 A 
ATOM      5  C   UNL     1      -9.327  -2.836 125.332  0.00  0.00    +0.000 A 
ATOM      6  N   UNL     1      -9.294  -1.795 124.454  0.00  0.00    +0.000 NA
ATOM      7  C   UNL     1      -8.709  -0.673 124.906  0.00  0.00    +0.000 A 
ATOM      8  N   UNL     1      -8.657   0.370 123.974  0.00  0.00    +0.000 N 
ATOM      9  N   UNL     1      -8.215  -0.502 126.129  0.00  0.00    +0.000 NA
ATOM     10  C   UNL     1      -8.275  -1.570 126.956  0.00  0.00    +0.000 A 
ATOM     11  H   UNL     1      -9.003   0.156 123.052  0.00  0.00    +0.000 HD
BRANCH   4  13
ATOM     12  C   UNL     1      -8.353  -3.422 128.815  0.00  0.00    +0.000 C 
ATOM     13  O   UNL     1      -8.797  -3.806 127.512  0.00  0.00    +0.000 OA
ENDBRANCH   4  13
ENDBRANCH   1   8
BRANCH   1  14
ATOM     14  C   UNL     1      -7.695   2.705 122.844  0.00  0.00    +0.000 A 
ATOM     15  C   UNL     1      -6.395   3.035 122.427  0.00  0.00    +0.000 A 
ATOM     16  C   UNL     1      -6.190   3.673 121.193  0.00  0.00    +0.000 A 
ATOM     17  C   UNL     1      -7.268   3.973 120.357  0.00  0.00    +0.000 A 
ATOM     18  C   UNL     1      -8.558   3.673 120.804  0.00  0.00    +0.000 A 
ATOM     19  C   UNL     1      -8.779   3.056 122.044  0.00  0.00    +0.000 A 
BRANCH  17  20
ATOM     20  N   UNL     1      -7.072   4.578 119.129  0.00  0.00    +0.000 N 
ATOM     21  H   UNL     1      -6.226   5.095 118.933  0.00  0.00    +0.000 HD
ATOM     22  H   UNL     1      -7.736   4.450 118.378  0.00  0.00    +0.000 HD
ENDBRANCH  17  20
ENDBRANCH   1  14
TORSDOF 4
ENDMDL
MODEL 3
REMARK VINA RESULT:      -6.5      8.800      9.477
REMARK  Name = Sulfameter
REMARK  5 active torsions:
REMARK  status: ('A' for Active; 'I' for Inactive)
REMARK    1  A    between atoms: C_1  and  O_2
REMARK    2  A    between atoms: O_2  and  C_3
REMARK    3  A    between atoms: N_7  and  S_8
REMARK    4  A    between atoms: S_8  and  C_11
REMARK    5  A    between atoms: C_14  and  N_15
REMARK                            x       y       z     vdW  Elec       q    Type
REMARK                         _______ _______ _______ _____ _____    ______ ____
ROOT
ATOM      1  S   UNL     1      -9.468   6.055 130.938  0.00  0.00    +0.000 S 
ATOM      2  O   UNL     1      -9.379   6.510 132.311  0.00  0.00    +0.000 OA
ATOM      3  O   UNL     1      -8.323   6.055 130.052  0.00  0.00    +0.000 OA
ENDROOT
BRANCH   1   8
ATOM      4  C   UNL     1      -8.175   1.290 132.505  0.00  0.00    +0.000 A 
ATOM      5  C   UNL     1      -9.418   1.213 131.915  0.00  0.00    +0.000 A 
ATOM      6  N   UNL     1     -10.084   2.279 131.389  0.00  0.00    +0.000 NA
ATOM      7  C   UNL     1      -9.458   3.463 131.495  0.00  0.00    +0.000 A 
ATOM      8  N   UNL     1     -10.145   4.536 130.917  0.00  0.00    +0.000 N 
ATOM      9  N   UNL     1      -8.289   3.664 132.098  0.00  0.00    +0.000 NA
ATOM     10  C   UNL     1      -7.675   2.569 132.600  0.00  0.00    +0.000 A 
ATOM     11  H   UNL     1     -10.999   4.304 130.433  0.00  0.00    +0.000 HD
BRANCH   4  13
ATOM     12  C   UNL     1      -7.847  -1.028 132.544  0.00  0.00    +0.000 C 
ATOM     13  O   UNL     1      -7.471   0.258 133.043  0.00  0.00    +0.000 OA
ENDBRANCH   4  13
ENDBRANCH   1   8
BRANCH   1  14
ATOM     14  C   UNL     1     -10.667   7.145 130.157  0.00  0.00    +0.000 A 
ATOM     15  C   UNL     1     -11.895   7.386 130.796  0.00  0.00    +0.000 A 
ATOM     16  C   UNL     1     -12.814   8.290 130.240  0.00  0.00    +0.000 A 
ATOM     17  C   UNL     1     -12.518   8.973 129.058  0.00  0.00    +0.000 A 
ATOM     18  C   UNL     1     -11.309   8.693 128.414  0.00  0.00    +0.000 A 
ATOM     19  C   UNL     1     -10.391   7.776 128.947  0.00  0.00    +0.000 A 
BRANCH  17  20
ATOM     20  N   UNL     1     -13.407   9.884 128.518  0.00  0.00    +0.000 N 
ATOM     21  H   UNL     1     -13.226  10.320 127.624  0.00  0.00    +0.000 HD
ATOM     22  H   UNL     1     -14.291  10.074 128.969  0.00  0.00    +0.000 HD
ENDBRANCH  17  20
ENDBRANCH   1  14
TORSDOF 4
ENDMDL
MODEL 4
REMARK VINA RESULT:      -6.4      8.765      9.811
REMARK  Name = Sulfameter
REMARK  5 active torsions:
REMARK  status: ('A' for Active; 'I' for Inactive)
REMARK    1  A    between atoms: C_1  and  O_2
REMARK    2  A    between atoms: O_2  and  C_3
REMARK    3  A    between atoms: N_7  and  S_8
REMARK    4  A    between atoms: S_8  and  C_11
REMARK    5  A    between atoms: C_14  and  N_15
REMARK                            x       y       z     vdW  Elec       q    Type
REMARK                         _______ _______ _______ _____ _____    ______ ____
ROOT
ATOM      1  S   UNL     1     -10.528   5.234 130.056  0.00  0.00    +0.000 S 
ATOM      2  O   UNL     1      -9.432   5.170 129.109  0.00  0.00    +0.000 OA
ATOM      3  O   UNL     1     -11.583   4.244 130.078  0.00  0.00    +0.000 OA
ENDROOT
BRANCH   1   8
ATOM      4  C   UNL     1      -7.748   2.311 133.305  0.00  0.00    +0.000 A 
ATOM      5  C   UNL     1      -8.018   3.504 133.943  0.00  0.00    +0.000 A 
ATOM      6  N   UNL     1      -8.727   4.525 133.386  0.00  0.00    +0.000 NA
ATOM      7  C   UNL     1      -9.150   4.321 132.128  0.00  0.00    +0.000 A 
ATOM      8  N   UNL     1      -9.904   5.369 131.591  0.00  0.00    +0.000 N 
ATOM      9  N   UNL     1      -8.894   3.239 131.397  0.00  0.00    +0.000 NA
ATOM     10  C   UNL     1      -8.187   2.258 132.002  0.00  0.00    +0.000 A 
ATOM     11  H   UNL     1     -10.103   6.135 132.217  0.00  0.00    +0.000 HD
BRANCH   4  13
ATOM     12  C   UNL     1      -5.855   1.640 134.510  0.00  0.00    +0.000 C 
ATOM     13  O   UNL     1      -7.047   1.264 133.817  0.00  0.00    +0.000 OA
ENDBRANCH   4  13
ENDBRANCH   1   8
BRANCH   1  14
ATOM     14  C   UNL     1     -11.354   6.795 129.714  0.00  0.00    +0.000 A 
ATOM     15  C   UNL     1     -11.178   7.406 128.462  0.00  0.00    +0.000 A 
ATOM     16  C   UNL     1     -11.871   8.587 128.149  0.00  0.00    +0.000 A 
ATOM     17  C   UNL     1     -12.755   9.160 129.066  0.00  0.00    +0.000 A 
ATOM     18  C   UNL     1     -12.889   8.561 130.322  0.00  0.00    +0.000 A 
ATOM     19  C   UNL     1     -12.186   7.394 130.656  0.00  0.00    +0.000 A 
BRANCH  17  20
ATOM     20  N   UNL     1     -13.460  10.308 128.756  0.00  0.00    +0.000 N 
ATOM     21  H   UNL     1     -13.141  11.215 129.068  0.00  0.00    +0.000 HD
ATOM     22  H   UNL     1     -14.265  10.272 128.147  0.00  0.00    +0.000 HD
ENDBRANCH  17  20
ENDBRANCH   1  14
TORSDOF 4
ENDMDL
MODEL 5
REMARK VINA RESULT:      -6.1      2.091      7.256
REMARK  Name = Sulfameter
REMARK  5 active torsions:
REMARK  status: ('A' for Active; 'I' for Inactive)
REMARK    1  A    between atoms: C_1  and  O_2
REMARK    2  A    between atoms: O_2  and  C_3
REMARK    3  A    between atoms: N_7  and  S_8
REMARK    4  A    between atoms: S_8  and  C_11
REMARK    5  A    between atoms: C_14  and  N_15
REMARK                            x       y       z     vdW  Elec       q    Type
REMARK                         _______ _______ _______ _____ _____    ______ ____
ROOT
ATOM      1  S   UNL     1      -8.864   1.803 124.252  0.00  0.00    +0.000 S 
ATOM      2  O   UNL     1      -8.978   2.345 125.591  0.00  0.00    +0.000 OA
ATOM      3  O   UNL     1      -9.881   2.019 123.245  0.00  0.00    +0.000 OA
ENDROOT
BRANCH   1   8
ATOM      4  C   UNL     1      -7.126   4.144 119.970  0.00  0.00    +0.000 A 
ATOM      5  C   UNL     1      -6.032   3.823 120.745  0.00  0.00    +0.000 A 
ATOM      6  N   UNL     1      -6.106   3.201 121.954  0.00  0.00    +0.000 NA
ATOM      7  C   UNL     1      -7.346   2.920 122.388  0.00  0.00    +0.000 A 
ATOM      8  N   UNL     1      -7.394   2.250 123.614  0.00  0.00    +0.000 N 
ATOM      9  N   UNL     1      -8.472   3.239 121.755  0.00  0.00    +0.000 NA
ATOM     10  C   UNL     1      -8.336   3.855 120.558  0.00  0.00    +0.000 A 
ATOM     11  H   UNL     1      -6.504   1.995 124.014  0.00  0.00    +0.000 HD
BRANCH   4  13
ATOM     12  C   UNL     1      -6.022   5.681 118.591  0.00  0.00    +0.000 C 
ATOM     13  O   UNL     1      -7.104   4.763 118.759  0.00  0.00    +0.000 OA
ENDBRANCH   4  13
ENDBRANCH   1   8
BRANCH   1  14
ATOM     14  C   UNL     1      -8.790   0.019 124.471  0.00  0.00    +0.000 A 
ATOM     15  C   UNL     1      -8.451  -0.794 123.376  0.00  0.00    +0.000 A 
ATOM     16  C   UNL     1      -8.316  -2.182 123.543  0.00  0.00    +0.000 A 
ATOM     17  C   UNL     1      -8.499  -2.771 124.796  0.00  0.00    +0.000 A 
ATOM     18  C   UNL     1      -8.874  -1.953 125.866  0.00  0.00    +0.000 A 
ATOM     19  C   UNL     1      -9.034  -0.569 125.709  0.00  0.00    +0.000 A 
BRANCH  17  20
ATOM     20  N   UNL     1      -8.343  -4.133 124.974  0.00  0.00    +0.000 N 
ATOM     21  H   UNL     1      -7.731  -4.497 125.691  0.00  0.00    +0.000 HD
ATOM     22  H   UNL     1      -8.896  -4.791 124.443  0.00  0.00    +0.000 HD
ENDBRANCH  17  20
ENDBRANCH   1  14
TORSDOF 4
ENDMDL
MODEL 6
REMARK VINA RESULT:      -6.0      1.951      2.562
REMARK  Name = Sulfameter
REMARK  5 active torsions:
REMARK  status: ('A' for Active; 'I' for Inactive)
REMARK    1  A    between atoms: C_1  and  O_2
REMARK    2  A    between atoms: O_2  and  C_3
REMARK    3  A    between atoms: N_7  and  S_8
REMARK    4  A    between atoms: S_8  and  C_11
REMARK    5  A    between atoms: C_14  and  N_15
REMARK                            x       y       z     vdW  Elec       q    Type
REMARK                         _______ _______ _______ _____ _____    ______ ____
ROOT
ATOM      1  S   UNL     1      -8.398   2.388 124.073  0.00  0.00    +0.000 S 
ATOM      2  O   UNL     1      -9.186   1.353 123.433  0.00  0.00    +0.000 OA
ATOM      3  O   UNL     1      -9.005   3.458 124.835  0.00  0.00    +0.000 OA
ENDROOT
BRANCH   1   8
ATOM      4  C   UNL     1      -6.015  -2.203 124.342  0.00  0.00    +0.000 A 
ATOM      5  C   UNL     1      -5.512  -1.412 125.353  0.00  0.00    +0.000 A 
ATOM      6  N   UNL     1      -5.903  -0.128 125.585  0.00  0.00    +0.000 NA
ATOM      7  C   UNL     1      -6.823   0.362 124.737  0.00  0.00    +0.000 A 
ATOM      8  N   UNL     1      -7.233   1.669 125.018  0.00  0.00    +0.000 N 
ATOM      9  N   UNL     1      -7.329  -0.288 123.693  0.00  0.00    +0.000 NA
ATOM     10  C   UNL     1      -6.904  -1.560 123.512  0.00  0.00    +0.000 A 
ATOM     11  H   UNL     1      -6.847   2.084 125.853  0.00  0.00    +0.000 HD
BRANCH   4  13
ATOM     12  C   UNL     1      -4.418  -3.615 123.370  0.00  0.00    +0.000 C 
ATOM     13  O   UNL     1      -5.658  -3.488 124.070  0.00  0.00    +0.000 OA
ENDBRANCH   4  13
ENDBRANCH   1   8
BRANCH   1  14
ATOM     14  C   UNL     1      -7.517   3.205 122.733  0.00  0.00    +0.000 A 
ATOM     15  C   UNL     1      -6.192   3.622 122.936  0.00  0.00    +0.000 A 
ATOM     16  C   UNL     1      -5.463   4.196 121.881  0.00  0.00    +0.000 A 
ATOM     17  C   UNL     1      -6.036   4.344 120.616  0.00  0.00    +0.000 A 
ATOM     18  C   UNL     1      -7.368   3.959 120.441  0.00  0.00    +0.000 A 
ATOM     19  C   UNL     1      -8.115   3.405 121.491  0.00  0.00    +0.000 A 
BRANCH  17  20
ATOM     20  N   UNL     1      -5.316   4.884 119.566  0.00  0.00    +0.000 N 
ATOM     21  H   UNL     1      -5.417   4.524 118.627  0.00  0.00    +0.000 HD
ATOM     22  H   UNL     1      -4.735   5.699 119.702  0.00  0.00    +0.000 HD
ENDBRANCH  17  20
ENDBRANCH   1  14
TORSDOF 4
ENDMDL
MODEL 7
REMARK VINA RESULT:      -6.0      7.002      8.312
REMARK  Name = Sulfameter
REMARK  5 active torsions:
REMARK  status: ('A' for Active; 'I' for Inactive)
REMARK    1  A    between atoms: C_1  and  O_2
REMARK    2  A    between atoms: O_2  and  C_3
REMARK    3  A    between atoms: N_7  and  S_8
REMARK    4  A    between atoms: S_8  and  C_11
REMARK    5  A    between atoms: C_14  and  N_15
REMARK                            x       y       z     vdW  Elec       q    Type
REMARK                         _______ _______ _______ _____ _____    ______ ____
ROOT
ATOM      1  S   UNL     1      -7.578   4.017 128.202  0.00  0.00    +0.000 S 
ATOM      2  O   UNL     1      -7.975   2.628 128.321  0.00  0.00    +0.000 OA
ATOM      3  O   UNL     1      -8.215   4.921 127.267  0.00  0.00    +0.000 OA
ENDROOT
BRANCH   1   8
ATOM      4  C   UNL     1     -11.126   6.050 131.381  0.00  0.00    +0.000 A 
ATOM      5  C   UNL     1      -9.900   6.152 132.003  0.00  0.00    +0.000 A 
ATOM      6  N   UNL     1      -8.729   5.711 131.464  0.00  0.00    +0.000 NA
ATOM      7  C   UNL     1      -8.828   5.129 130.257  0.00  0.00    +0.000 A 
ATOM      8  N   UNL     1      -7.609   4.717 129.710  0.00  0.00    +0.000 N 
ATOM      9  N   UNL     1      -9.964   4.922 129.595  0.00  0.00    +0.000 NA
ATOM     10  C   UNL     1     -11.094   5.381 130.179  0.00  0.00    +0.000 A 
ATOM     11  H   UNL     1      -6.785   4.951 130.242  0.00  0.00    +0.000 HD
BRANCH   4  13
ATOM     12  C   UNL     1     -12.926   7.527 131.124  0.00  0.00    +0.000 C 
ATOM     13  O   UNL     1     -12.320   6.474 131.876  0.00  0.00    +0.000 OA
ENDBRANCH   4  13
ENDBRANCH   1   8
BRANCH   1  14
ATOM     14  C   UNL     1      -5.848   3.972 127.709  0.00  0.00    +0.000 A 
ATOM     15  C   UNL     1      -4.852   4.079 128.693  0.00  0.00    +0.000 A 
ATOM     16  C   UNL     1      -3.497   3.972 128.339  0.00  0.00    +0.000 A 
ATOM     17  C   UNL     1      -3.121   3.743 127.013  0.00  0.00    +0.000 A 
ATOM     18  C   UNL     1      -4.124   3.678 126.041  0.00  0.00    +0.000 A 
ATOM     19  C   UNL     1      -5.479   3.804 126.377  0.00  0.00    +0.000 A 
BRANCH  17  20
ATOM     20  N   UNL     1      -1.791   3.612 126.661  0.00  0.00    +0.000 N 
ATOM     21  H   UNL     1      -1.526   3.271 125.747  0.00  0.00    +0.000 HD
ATOM     22  H   UNL     1      -1.058   3.927 127.280  0.00  0.00    +0.000 HD
ENDBRANCH  17  20
ENDBRANCH   1  14
TORSDOF 4
ENDMDL
MODEL 8
REMARK VINA RESULT:      -5.9      7.561      8.846
REMARK  Name = Sulfameter
REMARK  5 active torsions:
REMARK  status: ('A' for Active; 'I' for Inactive)
REMARK    1  A    between atoms: C_1  and  O_2
REMARK    2  A    between atoms: O_2  and  C_3
REMARK    3  A    between atoms: N_7  and  S_8
REMARK    4  A    between atoms: S_8  and  C_11
REMARK    5  A    between atoms: C_14  and  N_15
REMARK                            x       y       z     vdW  Elec       q    Type
REMARK                         _______ _______ _______ _____ _____    ______ ____
ROOT
ATOM      1  S   UNL     1      -9.097   6.219 131.043  0.00  0.00    +0.000 S 
ATOM      2  O   UNL     1      -9.347   6.429 132.456  0.00  0.00    +0.000 OA
ATOM      3  O   UNL     1      -7.857   6.618 130.413  0.00  0.00    +0.000 OA
ENDROOT
BRANCH   1   8
ATOM      4  C   UNL     1      -7.777   2.877 127.312  0.00  0.00    +0.000 A 
ATOM      5  C   UNL     1      -8.580   2.206 128.210  0.00  0.00    +0.000 A 
ATOM      6  N   UNL     1      -9.113   2.768 129.330  0.00  0.00    +0.000 NA
ATOM      7  C   UNL     1      -8.790   4.055 129.543  0.00  0.00    +0.000 A 
ATOM      8  N   UNL     1      -9.377   4.620 130.680  0.00  0.00    +0.000 N 
ATOM      9  N   UNL     1      -7.976   4.780 128.780  0.00  0.00    +0.000 NA
ATOM     10  C   UNL     1      -7.478   4.169 127.682  0.00  0.00    +0.000 A 
ATOM     11  H   UNL     1     -10.022   4.030 131.184  0.00  0.00    +0.000 HD
BRANCH   4  13
ATOM     12  C   UNL     1      -5.925   1.795 126.373  0.00  0.00    +0.000 C 
ATOM     13  O   UNL     1      -7.223   2.361 126.182  0.00  0.00    +0.000 OA
ENDBRANCH   4  13
ENDBRANCH   1   8
BRANCH   1  14
ATOM     14  C   UNL     1     -10.379   7.154 130.195  0.00  0.00    +0.000 A 
ATOM     15  C   UNL     1     -11.658   7.243 130.769  0.00  0.00    +0.000 A 
ATOM     16  C   UNL     1     -12.651   8.028 130.160  0.00  0.00    +0.000 A 
ATOM     17  C   UNL     1     -12.380   8.741 128.990  0.00  0.00    +0.000 A 
ATOM     18  C   UNL     1     -11.114   8.610 128.411  0.00  0.00    +0.000 A 
ATOM     19  C   UNL     1     -10.120   7.813 128.996  0.00  0.00    +0.000 A 
BRANCH  17  20
ATOM     20  N   UNL     1     -13.344   9.536 128.399  0.00  0.00    +0.000 N 
ATOM     21  H   UNL     1     -13.474   9.538 127.397  0.00  0.00    +0.000 HD
ATOM     22  H   UNL     1     -13.990  10.072 128.962  0.00  0.00    +0.000 HD
ENDBRANCH  17  20
ENDBRANCH   1  14
TORSDOF 4
ENDMDL
MODEL 9
REMARK VINA RESULT:      -5.9      2.568      6.396
REMARK  Name = Sulfameter
REMARK  5 active torsions:
REMARK  status: ('A' for Active; 'I' for Inactive)
REMARK    1  A    between atoms: C_1  and  O_2
REMARK    2  A    between atoms: O_2  and  C_3
REMARK    3  A    between atoms: N_7  and  S_8
REMARK    4  A    between atoms: S_8  and  C_11
REMARK    5  A    between atoms: C_14  and  N_15
REMARK                            x       y       z     vdW  Elec       q    Type
REMARK                         _______ _______ _______ _____ _____    ______ ____
ROOT
ATOM      1  S   UNL     1      -9.200   0.845 124.476  0.00  0.00    +0.000 S 
ATOM      2  O   UNL     1     -10.037   0.287 125.520  0.00  0.00    +0.000 OA
ATOM      3  O   UNL     1      -9.720   1.169 123.165  0.00  0.00    +0.000 OA
ENDROOT
BRANCH   1   8
ATOM      4  C   UNL     1      -5.647   4.230 122.819  0.00  0.00    +0.000 A 
ATOM      5  C   UNL     1      -5.990   4.581 124.108  0.00  0.00    +0.000 A 
ATOM      6  N   UNL     1      -6.907   3.916 124.864  0.00  0.00    +0.000 NA
ATOM      7  C   UNL     1      -7.505   2.872 124.266  0.00  0.00    +0.000 A 
ATOM      8  N   UNL     1      -8.417   2.185 125.074  0.00  0.00    +0.000 N 
ATOM      9  N   UNL     1      -7.299   2.483 123.010  0.00  0.00    +0.000 NA
ATOM     10  C   UNL     1      -6.376   3.180 122.309  0.00  0.00    +0.000 A 
ATOM     11  H   UNL     1      -8.487   2.501 126.029  0.00  0.00    +0.000 HD
BRANCH   4  13
ATOM     12  C   UNL     1      -5.072   4.853 120.636  0.00  0.00    +0.000 C 
ATOM     13  O   UNL     1      -4.739   4.860 122.026  0.00  0.00    +0.000 OA
ENDBRANCH   4  13
ENDBRANCH   1   8
BRANCH   1  14
ATOM     14  C   UNL     1      -7.924  -0.389 124.185  0.00  0.00    +0.000 A 
ATOM     15  C   UNL     1      -7.937  -1.120 122.985  0.00  0.00    +0.000 A 
ATOM     16  C   UNL     1      -6.909  -2.036 122.706  0.00  0.00    +0.000 A 
ATOM     17  C   UNL     1      -5.855  -2.221 123.604  0.00  0.00    +0.000 A 
ATOM     18  C   UNL     1      -5.878  -1.514 124.810  0.00  0.00    +0.000 A 
ATOM     19  C   UNL     1      -6.909  -0.613 125.112  0.00  0.00    +0.000 A 
BRANCH  17  20
ATOM     20  N   UNL     1      -4.826  -3.102 123.325  0.00  0.00    +0.000 N 
ATOM     21  H   UNL     1      -4.472  -3.729 124.034  0.00  0.00    +0.000 HD
ATOM     22  H   UNL     1      -4.461  -3.190 122.387  0.00  0.00    +0.000 HD
ENDBRANCH  17  20
ENDBRANCH   1  14
TORSDOF 4
ENDMDL
