MODEL 1
REMARK VINA RESULT:      -7.6      0.000      0.000
REMARK  Name = Sulindac
REMARK  7 active torsions:
REMARK  status: ('A' for Active; 'I' for Inactive)
REMARK    1  A    between atoms: C_1  and  C_2
REMARK    2  A    between atoms: C_3  and  C_4
REMARK    3  A    between atoms: C_4  and  C_5
REMARK    4  A    between atoms: C_5  and  O_6
REMARK    5  A    between atoms: C_16  and  C_17
REMARK    6  A    between atoms: C_20  and  S_23
REMARK    7  A    between atoms: S_23  and  C_24
REMARK                            x       y       z     vdW  Elec       q    Type
REMARK                         _______ _______ _______ _____ _____    ______ ____
ROOT
ATOM      1  C   UNL     1      -8.205   2.320 127.335  0.00  0.00    +0.000 C 
ATOM      2  C   UNL     1      -8.458   1.112 126.420  0.00  0.00    +0.000 C 
ATOM      3  C   UNL     1      -8.930   0.881 125.144  0.00  0.00    +0.000 C 
ATOM      4  C   UNL     1      -8.901  -0.623 124.927  0.00  0.00    +0.000 A 
ATOM      5  C   UNL     1      -9.276  -1.444 123.852  0.00  0.00    +0.000 A 
ATOM      6  C   UNL     1      -9.146  -2.845 123.962  0.00  0.00    +0.000 A 
ATOM      7  F   UNL     1      -9.501  -3.642 122.944  0.00  0.00    +0.000 F 
ATOM      8  C   UNL     1      -8.680  -3.445 125.119  0.00  0.00    +0.000 A 
ATOM      9  C   UNL     1      -8.364  -2.636 126.193  0.00  0.00    +0.000 A 
ATOM     10  C   UNL     1      -8.424  -1.248 126.085  0.00  0.00    +0.000 A 
ATOM     11  C   UNL     1      -8.087  -0.189 127.040  0.00  0.00    +0.000 C 
ATOM     12  C   UNL     1      -7.519  -0.331 128.258  0.00  0.00    +0.000 C 
ENDROOT
BRANCH  12  13
ATOM     13  C   UNL     1      -7.108  -1.594 128.886  0.00  0.00    +0.000 A 
ATOM     14  C   UNL     1      -7.954  -2.253 129.791  0.00  0.00    +0.000 A 
ATOM     15  C   UNL     1      -7.428  -3.208 130.671  0.00  0.00    +0.000 A 
ATOM     16  C   UNL     1      -6.120  -3.671 130.510  0.00  0.00    +0.000 A 
ATOM     17  C   UNL     1      -5.349  -3.155 129.458  0.00  0.00    +0.000 A 
ATOM     18  C   UNL     1      -5.814  -2.078 128.693  0.00  0.00    +0.000 A 
BRANCH  16  19
ATOM     19  S   UNL     1      -5.358  -4.726 131.771  0.00  0.00    +0.000 S 
ATOM     20  C   UNL     1      -3.785  -3.879 132.030  0.00  0.00    +0.000 C 
ATOM     21  O   UNL     1      -6.185  -4.555 133.011  0.00  0.00    +0.000 OA
ENDBRANCH  16  19
ENDBRANCH  12  13
BRANCH   3  22
ATOM     22  C   UNL     1      -9.439   1.747 123.974  0.00  0.00    +0.000 C 
BRANCH  22  23
ATOM     23  C   UNL     1      -8.632   2.900 123.318  0.00  0.00    +0.000 C 
ATOM     24  O   UNL     1      -8.239   2.933 122.178  0.00  0.00    +0.000 OA
BRANCH  23  25
ATOM     25  O   UNL     1      -8.323   3.887 124.160  0.00  0.00    +0.000 OA
ATOM     26  H   UNL     1      -7.693   3.444 124.729  0.00  0.00    +0.000 HD
ENDBRANCH  23  25
ENDBRANCH  22  23
ENDBRANCH   3  22
TORSDOF 5
ENDMDL
MODEL 2
REMARK VINA RESULT:      -7.4      4.680      6.595
REMARK  Name = Sulindac
REMARK  7 active torsions:
REMARK  status: ('A' for Active; 'I' for Inactive)
REMARK    1  A    between atoms: C_1  and  C_2
REMARK    2  A    between atoms: C_3  and  C_4
REMARK    3  A    between atoms: C_4  and  C_5
REMARK    4  A    between atoms: C_5  and  O_6
REMARK    5  A    between atoms: C_16  and  C_17
REMARK    6  A    between atoms: C_20  and  S_23
REMARK    7  A    between atoms: S_23  and  C_24
REMARK                            x       y       z     vdW  Elec       q    Type
REMARK                         _______ _______ _______ _____ _____    ______ ____
ROOT
ATOM      1  C   UNL     1      -5.653  -2.107 125.973  0.00  0.00    +0.000 C 
ATOM      2  C   UNL     1      -6.356  -0.996 125.179  0.00  0.00    +0.000 C 
ATOM      3  C   UNL     1      -7.295  -0.901 124.172  0.00  0.00    +0.000 C 
ATOM      4  C   UNL     1      -7.493   0.579 123.888  0.00  0.00    +0.000 A 
ATOM      5  C   UNL     1      -8.290   1.281 122.970  0.00  0.00    +0.000 A 
ATOM      6  C   UNL     1      -8.239   2.691 122.934  0.00  0.00    +0.000 A 
ATOM      7  F   UNL     1      -8.993   3.375 122.062  0.00  0.00    +0.000 F 
ATOM      8  C   UNL     1      -7.399   3.411 123.766  0.00  0.00    +0.000 A 
ATOM      9  C   UNL     1      -6.578   2.713 124.629  0.00  0.00    +0.000 A 
ATOM     10  C   UNL     1      -6.657   1.326 124.726  0.00  0.00    +0.000 A 
ATOM     11  C   UNL     1      -5.954   0.375 125.592  0.00  0.00    +0.000 C 
ATOM     12  C   UNL     1      -5.106   0.660 126.607  0.00  0.00    +0.000 C 
ENDROOT
BRANCH  12  13
ATOM     13  C   UNL     1      -4.714   2.000 127.065  0.00  0.00    +0.000 A 
ATOM     14  C   UNL     1      -3.537   2.601 126.596  0.00  0.00    +0.000 A 
ATOM     15  C   UNL     1      -2.965   3.666 127.306  0.00  0.00    +0.000 A 
ATOM     16  C   UNL     1      -3.666   4.277 128.347  0.00  0.00    +0.000 A 
ATOM     17  C   UNL     1      -4.945   3.798 128.667  0.00  0.00    +0.000 A 
ATOM     18  C   UNL     1      -5.438   2.628 128.078  0.00  0.00    +0.000 A 
BRANCH  16  19
ATOM     19  S   UNL     1      -2.850   5.492 129.415  0.00  0.00    +0.000 S 
ATOM     20  C   UNL     1      -2.332   6.727 128.204  0.00  0.00    +0.000 C 
ATOM     21  O   UNL     1      -3.933   6.097 130.259  0.00  0.00    +0.000 OA
ENDBRANCH  16  19
ENDBRANCH  12  13
BRANCH   3  22
ATOM     22  C   UNL     1      -8.128  -1.892 123.333  0.00  0.00    +0.000 C 
BRANCH  22  23
ATOM     23  C   UNL     1      -8.814  -3.164 123.902  0.00  0.00    +0.000 C 
ATOM     24  O   UNL     1      -8.296  -3.995 124.607  0.00  0.00    +0.000 OA
BRANCH  23  25
ATOM     25  O   UNL     1     -10.071  -3.329 123.487  0.00  0.00    +0.000 OA
ATOM     26  H   UNL     1      -9.957  -3.242 122.540  0.00  0.00    +0.000 HD
ENDBRANCH  23  25
ENDBRANCH  22  23
ENDBRANCH   3  22
TORSDOF 5
ENDMDL
MODEL 3
REMARK VINA RESULT:      -7.1      3.534      8.082
REMARK  Name = Sulindac
REMARK  7 active torsions:
REMARK  status: ('A' for Active; 'I' for Inactive)
REMARK    1  A    between atoms: C_1  and  C_2
REMARK    2  A    between atoms: C_3  and  C_4
REMARK    3  A    between atoms: C_4  and  C_5
REMARK    4  A    between atoms: C_5  and  O_6
REMARK    5  A    between atoms: C_16  and  C_17
REMARK    6  A    between atoms: C_20  and  S_23
REMARK    7  A    between atoms: S_23  and  C_24
REMARK                            x       y       z     vdW  Elec       q    Type
REMARK                         _______ _______ _______ _____ _____    ______ ____
ROOT
ATOM      1  C   UNL     1      -9.102  -4.057 128.015  0.00  0.00    +0.000 C 
ATOM      2  C   UNL     1      -8.072  -2.964 128.338  0.00  0.00    +0.000 C 
ATOM      3  C   UNL     1      -7.111  -2.720 129.298  0.00  0.00    +0.000 C 
ATOM      4  C   UNL     1      -6.474  -1.383 128.957  0.00  0.00    +0.000 A 
ATOM      5  C   UNL     1      -5.472  -0.615 129.570  0.00  0.00    +0.000 A 
ATOM      6  C   UNL     1      -5.101   0.627 129.011  0.00  0.00    +0.000 A 
ATOM      7  F   UNL     1      -4.147   1.373 129.586  0.00  0.00    +0.000 F 
ATOM      8  C   UNL     1      -5.720   1.131 127.880  0.00  0.00    +0.000 A 
ATOM      9  C   UNL     1      -6.742   0.396 127.312  0.00  0.00    +0.000 A 
ATOM     10  C   UNL     1      -7.081  -0.861 127.809  0.00  0.00    +0.000 A 
ATOM     11  C   UNL     1      -8.066  -1.847 127.355  0.00  0.00    +0.000 C 
ATOM     12  C   UNL     1      -8.828  -1.794 126.240  0.00  0.00    +0.000 C 
ENDROOT
BRANCH  12  13
ATOM     13  C   UNL     1      -8.822  -0.725 125.231  0.00  0.00    +0.000 A 
ATOM     14  C   UNL     1      -7.892  -0.736 124.181  0.00  0.00    +0.000 A 
ATOM     15  C   UNL     1      -7.624   0.444 123.473  0.00  0.00    +0.000 A 
ATOM     16  C   UNL     1      -8.427   1.573 123.652  0.00  0.00    +0.000 A 
ATOM     17  C   UNL     1      -9.497   1.499 124.556  0.00  0.00    +0.000 A 
ATOM     18  C   UNL     1      -9.654   0.384 125.388  0.00  0.00    +0.000 A 
BRANCH  16  19
ATOM     19  S   UNL     1      -7.954   3.162 122.921  0.00  0.00    +0.000 S 
ATOM     20  C   UNL     1      -6.336   2.759 122.231  0.00  0.00    +0.000 C 
ATOM     21  O   UNL     1      -8.900   3.392 121.779  0.00  0.00    +0.000 OA
ENDBRANCH  16  19
ENDBRANCH  12  13
BRANCH   3  22
ATOM     22  C   UNL     1      -6.579  -3.451 130.547  0.00  0.00    +0.000 C 
BRANCH  22  23
ATOM     23  C   UNL     1      -5.452  -4.520 130.525  0.00  0.00    +0.000 C 
ATOM     24  O   UNL     1      -5.574  -5.686 130.811  0.00  0.00    +0.000 OA
BRANCH  23  25
ATOM     25  O   UNL     1      -4.251  -4.030 130.215  0.00  0.00    +0.000 OA
ATOM     26  H   UNL     1      -4.501  -3.246 129.726  0.00  0.00    +0.000 HD
ENDBRANCH  23  25
ENDBRANCH  22  23
ENDBRANCH   3  22
TORSDOF 5
ENDMDL
MODEL 4
REMARK VINA RESULT:      -7.1      2.497      3.673
REMARK  Name = Sulindac
REMARK  7 active torsions:
REMARK  status: ('A' for Active; 'I' for Inactive)
REMARK    1  A    between atoms: C_1  and  C_2
REMARK    2  A    between atoms: C_3  and  C_4
REMARK    3  A    between atoms: C_4  and  C_5
REMARK    4  A    between atoms: C_5  and  O_6
REMARK    5  A    between atoms: C_16  and  C_17
REMARK    6  A    between atoms: C_20  and  S_23
REMARK    7  A    between atoms: S_23  and  C_24
REMARK                            x       y       z     vdW  Elec       q    Type
REMARK                         _______ _______ _______ _____ _____    ______ ____
ROOT
ATOM      1  C   UNL     1      -9.639  -3.119 125.488  0.00  0.00    +0.000 C 
ATOM      2  C   UNL     1      -8.642  -1.958 125.622  0.00  0.00    +0.000 C 
ATOM      3  C   UNL     1      -8.216  -0.887 124.863  0.00  0.00    +0.000 C 
ATOM      4  C   UNL     1      -7.164  -0.155 125.680  0.00  0.00    +0.000 A 
ATOM      5  C   UNL     1      -6.370   0.975 125.430  0.00  0.00    +0.000 A 
ATOM      6  C   UNL     1      -5.446   1.412 126.403  0.00  0.00    +0.000 A 
ATOM      7  F   UNL     1      -4.680   2.488 126.177  0.00  0.00    +0.000 F 
ATOM      8  C   UNL     1      -5.276   0.738 127.600  0.00  0.00    +0.000 A 
ATOM      9  C   UNL     1      -6.021  -0.404 127.819  0.00  0.00    +0.000 A 
ATOM     10  C   UNL     1      -6.984  -0.817 126.900  0.00  0.00    +0.000 A 
ATOM     11  C   UNL     1      -7.930  -1.936 126.928  0.00  0.00    +0.000 C 
ATOM     12  C   UNL     1      -8.157  -2.795 127.947  0.00  0.00    +0.000 C 
ENDROOT
BRANCH  12  13
ATOM     13  C   UNL     1      -7.499  -2.782 129.261  0.00  0.00    +0.000 A 
ATOM     14  C   UNL     1      -6.472  -3.691 129.557  0.00  0.00    +0.000 A 
ATOM     15  C   UNL     1      -6.128  -3.946 130.892  0.00  0.00    +0.000 A 
ATOM     16  C   UNL     1      -6.641  -3.149 131.918  0.00  0.00    +0.000 A 
ATOM     17  C   UNL     1      -7.507  -2.098 131.583  0.00  0.00    +0.000 A 
ATOM     18  C   UNL     1      -7.986  -1.956 130.274  0.00  0.00    +0.000 A 
BRANCH  16  19
ATOM     19  S   UNL     1      -6.389  -3.610 133.652  0.00  0.00    +0.000 S 
ATOM     20  C   UNL     1      -8.054  -3.390 134.315  0.00  0.00    +0.000 C 
ATOM     21  O   UNL     1      -6.082  -5.079 133.651  0.00  0.00    +0.000 OA
ENDBRANCH  16  19
ENDBRANCH  12  13
BRANCH   3  22
ATOM     22  C   UNL     1      -8.548  -0.310 123.472  0.00  0.00    +0.000 C 
BRANCH  22  23
ATOM     23  C   UNL     1      -9.697   0.696 123.190  0.00  0.00    +0.000 C 
ATOM     24  O   UNL     1      -9.784   1.817 123.628  0.00  0.00    +0.000 OA
BRANCH  23  25
ATOM     25  O   UNL     1     -10.678   0.195 122.438  0.00  0.00    +0.000 OA
ATOM     26  H   UNL     1     -10.691   0.827 121.719  0.00  0.00    +0.000 HD
ENDBRANCH  23  25
ENDBRANCH  22  23
ENDBRANCH   3  22
TORSDOF 5
ENDMDL
MODEL 5
REMARK VINA RESULT:      -7.1      4.884      6.832
REMARK  Name = Sulindac
REMARK  7 active torsions:
REMARK  status: ('A' for Active; 'I' for Inactive)
REMARK    1  A    between atoms: C_1  and  C_2
REMARK    2  A    between atoms: C_3  and  C_4
REMARK    3  A    between atoms: C_4  and  C_5
REMARK    4  A    between atoms: C_5  and  O_6
REMARK    5  A    between atoms: C_16  and  C_17
REMARK    6  A    between atoms: C_20  and  S_23
REMARK    7  A    between atoms: S_23  and  C_24
REMARK                            x       y       z     vdW  Elec       q    Type
REMARK                         _______ _______ _______ _____ _____    ______ ____
ROOT
ATOM      1  C   UNL     1      -7.570  -0.530 126.958  0.00  0.00    +0.000 C 
ATOM      2  C   UNL     1      -7.263   0.514 125.872  0.00  0.00    +0.000 C 
ATOM      3  C   UNL     1      -7.617   0.754 124.560  0.00  0.00    +0.000 C 
ATOM      4  C   UNL     1      -6.884   2.013 124.127  0.00  0.00    +0.000 A 
ATOM      5  C   UNL     1      -6.829   2.722 122.917  0.00  0.00    +0.000 A 
ATOM      6  C   UNL     1      -6.021   3.875 122.816  0.00  0.00    +0.000 A 
ATOM      7  F   UNL     1      -5.957   4.561 121.667  0.00  0.00    +0.000 F 
ATOM      8  C   UNL     1      -5.249   4.317 123.877  0.00  0.00    +0.000 A 
ATOM      9  C   UNL     1      -5.264   3.585 125.048  0.00  0.00    +0.000 A 
ATOM     10  C   UNL     1      -6.103   2.482 125.190  0.00  0.00    +0.000 A 
ATOM     11  C   UNL     1      -6.347   1.593 126.329  0.00  0.00    +0.000 C 
ATOM     12  C   UNL     1      -5.863   1.716 127.586  0.00  0.00    +0.000 C 
ENDROOT
BRANCH  12  13
ATOM     13  C   UNL     1      -4.985   2.786 128.081  0.00  0.00    +0.000 A 
ATOM     14  C   UNL     1      -5.524   3.945 128.659  0.00  0.00    +0.000 A 
ATOM     15  C   UNL     1      -4.742   5.103 128.761  0.00  0.00    +0.000 A 
ATOM     16  C   UNL     1      -3.372   5.056 128.496  0.00  0.00    +0.000 A 
ATOM     17  C   UNL     1      -2.802   3.830 128.123  0.00  0.00    +0.000 A 
ATOM     18  C   UNL     1      -3.611   2.719 127.852  0.00  0.00    +0.000 A 
BRANCH  16  19
ATOM     19  S   UNL     1      -2.402   6.583 128.400  0.00  0.00    +0.000 S 
ATOM     20  C   UNL     1      -3.637   7.811 128.875  0.00  0.00    +0.000 C 
ATOM     21  O   UNL     1      -1.385   6.500 129.501  0.00  0.00    +0.000 OA
ENDBRANCH  16  19
ENDBRANCH  12  13
BRANCH   3  22
ATOM     22  C   UNL     1      -8.527   0.079 123.514  0.00  0.00    +0.000 C 
BRANCH  22  23
ATOM     23  C   UNL     1      -9.989   0.506 123.214  0.00  0.00    +0.000 C 
ATOM     24  O   UNL     1     -10.659   1.260 123.878  0.00  0.00    +0.000 OA
BRANCH  23  25
ATOM     25  O   UNL     1     -10.519  -0.095 122.149  0.00  0.00    +0.000 OA
ATOM     26  H   UNL     1      -9.963   0.256 121.453  0.00  0.00    +0.000 HD
ENDBRANCH  23  25
ENDBRANCH  22  23
ENDBRANCH   3  22
TORSDOF 5
ENDMDL
MODEL 6
REMARK VINA RESULT:      -7.1      3.790      5.479
REMARK  Name = Sulindac
REMARK  7 active torsions:
REMARK  status: ('A' for Active; 'I' for Inactive)
REMARK    1  A    between atoms: C_1  and  C_2
REMARK    2  A    between atoms: C_3  and  C_4
REMARK    3  A    between atoms: C_4  and  C_5
REMARK    4  A    between atoms: C_5  and  O_6
REMARK    5  A    between atoms: C_16  and  C_17
REMARK    6  A    between atoms: C_20  and  S_23
REMARK    7  A    between atoms: S_23  and  C_24
REMARK                            x       y       z     vdW  Elec       q    Type
REMARK                         _______ _______ _______ _____ _____    ______ ____
ROOT
ATOM      1  C   UNL     1      -9.074   0.661 124.910  0.00  0.00    +0.000 C 
ATOM      2  C   UNL     1      -8.616  -0.342 125.980  0.00  0.00    +0.000 C 
ATOM      3  C   UNL     1      -8.351  -1.694 126.064  0.00  0.00    +0.000 C 
ATOM      4  C   UNL     1      -7.939  -1.977 127.499  0.00  0.00    +0.000 A 
ATOM      5  C   UNL     1      -7.580  -3.150 128.180  0.00  0.00    +0.000 A 
ATOM      6  C   UNL     1      -7.260  -3.094 129.553  0.00  0.00    +0.000 A 
ATOM      7  F   UNL     1      -6.916  -4.206 130.217  0.00  0.00    +0.000 F 
ATOM      8  C   UNL     1      -7.316  -1.908 130.266  0.00  0.00    +0.000 A 
ATOM      9  C   UNL     1      -7.722  -0.766 129.604  0.00  0.00    +0.000 A 
ATOM     10  C   UNL     1      -7.981  -0.787 128.235  0.00  0.00    +0.000 A 
ATOM     11  C   UNL     1      -8.358   0.282 127.306  0.00  0.00    +0.000 C 
ATOM     12  C   UNL     1      -8.443   1.606 127.567  0.00  0.00    +0.000 C 
ENDROOT
BRANCH  12  13
ATOM     13  C   UNL     1      -8.163   2.260 128.853  0.00  0.00    +0.000 A 
ATOM     14  C   UNL     1      -6.842   2.485 129.270  0.00  0.00    +0.000 A 
ATOM     15  C   UNL     1      -6.569   2.731 130.622  0.00  0.00    +0.000 A 
ATOM     16  C   UNL     1      -7.610   2.971 131.521  0.00  0.00    +0.000 A 
ATOM     17  C   UNL     1      -8.928   2.954 131.042  0.00  0.00    +0.000 A 
ATOM     18  C   UNL     1      -9.208   2.537 129.735  0.00  0.00    +0.000 A 
BRANCH  16  19
ATOM     19  S   UNL     1      -7.285   3.058 133.301  0.00  0.00    +0.000 S 
ATOM     20  C   UNL     1      -8.839   3.749 133.906  0.00  0.00    +0.000 C 
ATOM     21  O   UNL     1      -7.193   1.638 133.778  0.00  0.00    +0.000 OA
ENDBRANCH  16  19
ENDBRANCH  12  13
BRANCH   3  22
ATOM     22  C   UNL     1      -8.377  -2.892 125.094  0.00  0.00    +0.000 C 
BRANCH  22  23
ATOM     23  C   UNL     1      -8.944  -2.841 123.649  0.00  0.00    +0.000 C 
ATOM     24  O   UNL     1      -8.437  -2.283 122.706  0.00  0.00    +0.000 OA
BRANCH  23  25
ATOM     25  O   UNL     1     -10.132  -3.432 123.515  0.00  0.00    +0.000 OA
ATOM     26  H   UNL     1     -10.628  -2.735 123.084  0.00  0.00    +0.000 HD
ENDBRANCH  23  25
ENDBRANCH  22  23
ENDBRANCH   3  22
TORSDOF 5
ENDMDL
MODEL 7
REMARK VINA RESULT:      -7.1      4.723      6.591
REMARK  Name = Sulindac
REMARK  7 active torsions:
REMARK  status: ('A' for Active; 'I' for Inactive)
REMARK    1  A    between atoms: C_1  and  C_2
REMARK    2  A    between atoms: C_3  and  C_4
REMARK    3  A    between atoms: C_4  and  C_5
REMARK    4  A    between atoms: C_5  and  O_6
REMARK    5  A    between atoms: C_16  and  C_17
REMARK    6  A    between atoms: C_20  and  S_23
REMARK    7  A    between atoms: S_23  and  C_24
REMARK                            x       y       z     vdW  Elec       q    Type
REMARK                         _______ _______ _______ _____ _____    ______ ____
ROOT
ATOM      1  C   UNL     1      -7.153   2.274 122.784  0.00  0.00    +0.000 C 
ATOM      2  C   UNL     1      -6.860   1.207 123.849  0.00  0.00    +0.000 C 
ATOM      3  C   UNL     1      -7.085  -0.143 124.030  0.00  0.00    +0.000 C 
ATOM      4  C   UNL     1      -6.495  -0.515 125.380  0.00  0.00    +0.000 A 
ATOM      5  C   UNL     1      -6.439  -1.715 126.104  0.00  0.00    +0.000 A 
ATOM      6  C   UNL     1      -5.824  -1.739 127.374  0.00  0.00    +0.000 A 
ATOM      7  F   UNL     1      -5.764  -2.878 128.078  0.00  0.00    +0.000 F 
ATOM      8  C   UNL     1      -5.293  -0.597 127.948  0.00  0.00    +0.000 A 
ATOM      9  C   UNL     1      -5.399   0.593 127.255  0.00  0.00    +0.000 A 
ATOM     10  C   UNL     1      -5.944   0.628 125.973  0.00  0.00    +0.000 A 
ATOM     11  C   UNL     1      -6.110   1.730 125.022  0.00  0.00    +0.000 C 
ATOM     12  C   UNL     1      -5.654   2.998 125.146  0.00  0.00    +0.000 C 
ENDROOT
BRANCH  12  13
ATOM     13  C   UNL     1      -4.881   3.539 126.273  0.00  0.00    +0.000 A 
ATOM     14  C   UNL     1      -5.521   4.220 127.319  0.00  0.00    +0.000 A 
ATOM     15  C   UNL     1      -4.781   5.061 128.161  0.00  0.00    +0.000 A 
ATOM     16  C   UNL     1      -3.385   5.061 128.110  0.00  0.00    +0.000 A 
ATOM     17  C   UNL     1      -2.747   4.207 127.198  0.00  0.00    +0.000 A 
ATOM     18  C   UNL     1      -3.487   3.502 126.241  0.00  0.00    +0.000 A 
BRANCH  16  19
ATOM     19  S   UNL     1      -2.432   6.302 129.023  0.00  0.00    +0.000 S 
ATOM     20  C   UNL     1      -3.616   7.663 129.098  0.00  0.00    +0.000 C 
ATOM     21  O   UNL     1      -2.264   5.758 130.412  0.00  0.00    +0.000 OA
ENDBRANCH  16  19
ENDBRANCH  12  13
BRANCH   3  22
ATOM     22  C   UNL     1      -7.753  -1.275 123.222  0.00  0.00    +0.000 C 
BRANCH  22  23
ATOM     23  C   UNL     1      -9.286  -1.431 123.031  0.00  0.00    +0.000 C 
ATOM     24  O   UNL     1     -10.025  -0.624 122.522  0.00  0.00    +0.000 OA
BRANCH  23  25
ATOM     25  O   UNL     1      -9.782  -2.554 123.553  0.00  0.00    +0.000 OA
ATOM     26  H   UNL     1      -9.025  -2.868 124.048  0.00  0.00    +0.000 HD
ENDBRANCH  23  25
ENDBRANCH  22  23
ENDBRANCH   3  22
TORSDOF 5
ENDMDL
MODEL 8
REMARK VINA RESULT:      -7.0      4.193      8.546
REMARK  Name = Sulindac
REMARK  7 active torsions:
REMARK  status: ('A' for Active; 'I' for Inactive)
REMARK    1  A    between atoms: C_1  and  C_2
REMARK    2  A    between atoms: C_3  and  C_4
REMARK    3  A    between atoms: C_4  and  C_5
REMARK    4  A    between atoms: C_5  and  O_6
REMARK    5  A    between atoms: C_16  and  C_17
REMARK    6  A    between atoms: C_20  and  S_23
REMARK    7  A    between atoms: S_23  and  C_24
REMARK                            x       y       z     vdW  Elec       q    Type
REMARK                         _______ _______ _______ _____ _____    ______ ____
ROOT
ATOM      1  C   UNL     1      -5.536  -5.203 131.283  0.00  0.00    +0.000 C 
ATOM      2  C   UNL     1      -6.105  -3.815 131.615  0.00  0.00    +0.000 C 
ATOM      3  C   UNL     1      -6.148  -2.965 132.701  0.00  0.00    +0.000 C 
ATOM      4  C   UNL     1      -6.920  -1.729 132.267  0.00  0.00    +0.000 A 
ATOM      5  C   UNL     1      -7.301  -0.554 132.932  0.00  0.00    +0.000 A 
ATOM      6  C   UNL     1      -8.051   0.427 132.247  0.00  0.00    +0.000 A 
ATOM      7  F   UNL     1      -8.423   1.554 132.869  0.00  0.00    +0.000 F 
ATOM      8  C   UNL     1      -8.451   0.252 130.933  0.00  0.00    +0.000 A 
ATOM      9  C   UNL     1      -8.119  -0.930 130.301  0.00  0.00    +0.000 A 
ATOM     10  C   UNL     1      -7.326  -1.883 130.936  0.00  0.00    +0.000 A 
ATOM     11  C   UNL     1      -6.794  -3.166 130.468  0.00  0.00    +0.000 C 
ATOM     12  C   UNL     1      -6.875  -3.684 129.221  0.00  0.00    +0.000 C 
ENDROOT
BRANCH  12  13
ATOM     13  C   UNL     1      -7.517  -3.056 128.057  0.00  0.00    +0.000 A 
ATOM     14  C   UNL     1      -8.800  -3.448 127.648  0.00  0.00    +0.000 A 
ATOM     15  C   UNL     1      -9.239  -3.156 126.350  0.00  0.00    +0.000 A 
ATOM     16  C   UNL     1      -8.505  -2.292 125.534  0.00  0.00    +0.000 A 
ATOM     17  C   UNL     1      -7.322  -1.733 126.040  0.00  0.00    +0.000 A 
ATOM     18  C   UNL     1      -6.796  -2.162 127.265  0.00  0.00    +0.000 A 
BRANCH  16  19
ATOM     19  S   UNL     1      -8.937  -2.092 123.786  0.00  0.00    +0.000 S 
ATOM     20  C   UNL     1      -7.300  -2.002 123.030  0.00  0.00    +0.000 C 
ATOM     21  O   UNL     1      -9.571  -3.384 123.363  0.00  0.00    +0.000 OA
ENDBRANCH  16  19
ENDBRANCH  12  13
BRANCH   3  22
ATOM     22  C   UNL     1      -5.623  -2.987 134.151  0.00  0.00    +0.000 C 
BRANCH  22  23
ATOM     23  C   UNL     1      -6.513  -3.209 135.404  0.00  0.00    +0.000 C 
ATOM     24  O   UNL     1      -7.225  -2.386 135.925  0.00  0.00    +0.000 OA
BRANCH  23  25
ATOM     25  O   UNL     1      -6.387  -4.421 135.947  0.00  0.00    +0.000 OA
ATOM     26  H   UNL     1      -7.306  -4.677 136.022  0.00  0.00    +0.000 HD
ENDBRANCH  23  25
ENDBRANCH  22  23
ENDBRANCH   3  22
TORSDOF 5
ENDMDL
MODEL 9
REMARK VINA RESULT:      -7.0      4.185      6.271
REMARK  Name = Sulindac
REMARK  7 active torsions:
REMARK  status: ('A' for Active; 'I' for Inactive)
REMARK    1  A    between atoms: C_1  and  C_2
REMARK    2  A    between atoms: C_3  and  C_4
REMARK    3  A    between atoms: C_4  and  C_5
REMARK    4  A    between atoms: C_5  and  O_6
REMARK    5  A    between atoms: C_16  and  C_17
REMARK    6  A    between atoms: C_20  and  S_23
REMARK    7  A    between atoms: S_23  and  C_24
REMARK                            x       y       z     vdW  Elec       q    Type
REMARK                         _______ _______ _______ _____ _____    ______ ____
ROOT
ATOM      1  C   UNL     1      -8.934   0.739 125.035  0.00  0.00    +0.000 C 
ATOM      2  C   UNL     1      -8.511  -0.210 126.166  0.00  0.00    +0.000 C 
ATOM      3  C   UNL     1      -8.241  -1.554 126.322  0.00  0.00    +0.000 C 
ATOM      4  C   UNL     1      -7.883  -1.768 127.784  0.00  0.00    +0.000 A 
ATOM      5  C   UNL     1      -7.542  -2.906 128.531  0.00  0.00    +0.000 A 
ATOM      6  C   UNL     1      -7.275  -2.784 129.911  0.00  0.00    +0.000 A 
ATOM      7  F   UNL     1      -6.950  -3.862 130.638  0.00  0.00    +0.000 F 
ATOM      8  C   UNL     1      -7.367  -1.567 130.566  0.00  0.00    +0.000 A 
ATOM      9  C   UNL     1      -7.754  -0.460 129.837  0.00  0.00    +0.000 A 
ATOM     10  C   UNL     1      -7.961  -0.546 128.462  0.00  0.00    +0.000 A 
ATOM     11  C   UNL     1      -8.309   0.476 127.471  0.00  0.00    +0.000 C 
ATOM     12  C   UNL     1      -8.412   1.810 127.668  0.00  0.00    +0.000 C 
ENDROOT
BRANCH  12  13
ATOM     13  C   UNL     1      -8.186   2.525 128.932  0.00  0.00    +0.000 A 
ATOM     14  C   UNL     1      -9.255   2.812 129.793  0.00  0.00    +0.000 A 
ATOM     15  C   UNL     1      -9.117   3.810 130.769  0.00  0.00    +0.000 A 
ATOM     16  C   UNL     1      -7.865   4.366 131.037  0.00  0.00    +0.000 A 
ATOM     17  C   UNL     1      -6.757   3.910 130.308  0.00  0.00    +0.000 A 
ATOM     18  C   UNL     1      -6.924   3.046 129.219  0.00  0.00    +0.000 A 
BRANCH  16  19
ATOM     19  S   UNL     1      -7.715   5.809 132.124  0.00  0.00    +0.000 S 
ATOM     20  C   UNL     1      -6.521   6.809 131.211  0.00  0.00    +0.000 C 
ATOM     21  O   UNL     1      -9.041   6.509 132.070  0.00  0.00    +0.000 OA
ENDBRANCH  16  19
ENDBRANCH  12  13
BRANCH   3  22
ATOM     22  C   UNL     1      -8.222  -2.796 125.408  0.00  0.00    +0.000 C 
BRANCH  22  23
ATOM     23  C   UNL     1      -8.727  -2.814 123.940  0.00  0.00    +0.000 C 
ATOM     24  O   UNL     1      -8.131  -2.393 122.978  0.00  0.00    +0.000 OA
BRANCH  23  25
ATOM     25  O   UNL     1      -9.964  -3.293 123.801  0.00  0.00    +0.000 OA
ATOM     26  H   UNL     1     -10.122  -3.631 124.683  0.00  0.00    +0.000 HD
ENDBRANCH  23  25
ENDBRANCH  22  23
ENDBRANCH   3  22
TORSDOF 5
ENDMDL
