MODEL 1
REMARK VINA RESULT:      -6.6      0.000      0.000
REMARK  Name = Sulthiame
REMARK  3 active torsions:
REMARK  status: ('A' for Active; 'I' for Inactive)
REMARK    1  A    between atoms: N_1  and  S_2
REMARK    2  A    between atoms: S_2  and  C_5
REMARK    3  A    between atoms: C_8  and  N_11
REMARK                            x       y       z     vdW  Elec       q    Type
REMARK                         _______ _______ _______ _____ _____    ______ ____
ROOT
ATOM      1  C   UNL     1      -8.936   4.235 132.259  0.00  0.00    +0.000 A 
ATOM      2  C   UNL     1      -8.989   5.628 132.390  0.00  0.00    +0.000 A 
ATOM      3  C   UNL     1      -9.898   6.367 131.617  0.00  0.00    +0.000 A 
ATOM      4  C   UNL     1     -10.701   5.739 130.659  0.00  0.00    +0.000 A 
ATOM      5  C   UNL     1     -10.647   4.346 130.541  0.00  0.00    +0.000 A 
ATOM      6  C   UNL     1      -9.776   3.593 131.345  0.00  0.00    +0.000 A 
ENDROOT
BRANCH   4   7
ATOM      7  N   UNL     1     -11.527   6.533 129.801  0.00  0.00    +0.000 N 
ATOM      8  C   UNL     1     -12.824   7.077 130.250  0.00  0.00    +0.000 C 
ATOM      9  C   UNL     1     -12.799   8.610 130.184  0.00  0.00    +0.000 C 
ATOM     10  C   UNL     1     -12.487   9.138 128.781  0.00  0.00    +0.000 C 
ATOM     11  C   UNL     1     -11.128   8.651 128.291  0.00  0.00    +0.000 C 
ATOM     12  S   UNL     1     -11.082   6.869 128.210  0.00  0.00    +0.000 S 
ATOM     13  O   UNL     1      -9.713   6.464 127.965  0.00  0.00    +0.000 OA
ATOM     14  O   UNL     1     -12.160   6.445 127.346  0.00  0.00    +0.000 OA
ENDBRANCH   4   7
BRANCH   1  15
ATOM     15  S   UNL     1      -7.959   3.279 133.397  0.00  0.00    +0.000 S 
ATOM     16  O   UNL     1      -8.318   1.884 133.274  0.00  0.00    +0.000 OA
ATOM     17  O   UNL     1      -7.947   3.954 134.672  0.00  0.00    +0.000 OA
BRANCH  15  18
ATOM     18  N   UNL     1      -6.392   3.419 132.793  0.00  0.00    +0.000 NA
ATOM     19  H   UNL     1      -6.457   3.604 131.787  0.00  0.00    +0.000 HD
ATOM     20  H   UNL     1      -5.845   2.577 132.967  0.00  0.00    +0.000 HD
ENDBRANCH  15  18
ENDBRANCH   1  15
TORSDOF 3
ENDMDL
MODEL 2
REMARK VINA RESULT:      -6.5      8.185     10.062
REMARK  Name = Sulthiame
REMARK  3 active torsions:
REMARK  status: ('A' for Active; 'I' for Inactive)
REMARK    1  A    between atoms: N_1  and  S_2
REMARK    2  A    between atoms: S_2  and  C_5
REMARK    3  A    between atoms: C_8  and  N_11
REMARK                            x       y       z     vdW  Elec       q    Type
REMARK                         _______ _______ _______ _____ _____    ______ ____
ROOT
ATOM      1  C   UNL     1      -7.074   3.077 125.079  0.00  0.00    +0.000 A 
ATOM      2  C   UNL     1      -6.351   2.061 125.716  0.00  0.00    +0.000 A 
ATOM      3  C   UNL     1      -6.480   0.734 125.279  0.00  0.00    +0.000 A 
ATOM      4  C   UNL     1      -7.382   0.398 124.264  0.00  0.00    +0.000 A 
ATOM      5  C   UNL     1      -8.095   1.421 123.629  0.00  0.00    +0.000 A 
ATOM      6  C   UNL     1      -7.934   2.758 124.026  0.00  0.00    +0.000 A 
ENDROOT
BRANCH   4   7
ATOM      7  N   UNL     1      -7.583  -0.978 123.926  0.00  0.00    +0.000 N 
ATOM      8  C   UNL     1      -6.661  -1.705 123.031  0.00  0.00    +0.000 C 
ATOM      9  C   UNL     1      -6.034  -2.890 123.777  0.00  0.00    +0.000 C 
ATOM     10  C   UNL     1      -7.080  -3.865 124.326  0.00  0.00    +0.000 C 
ATOM     11  C   UNL     1      -8.026  -3.176 125.304  0.00  0.00    +0.000 C 
ATOM     12  S   UNL     1      -8.907  -1.846 124.505  0.00  0.00    +0.000 S 
ATOM     13  O   UNL     1      -9.607  -1.092 125.525  0.00  0.00    +0.000 OA
ATOM     14  O   UNL     1      -9.605  -2.406 123.370  0.00  0.00    +0.000 OA
ENDBRANCH   4   7
BRANCH   1  15
ATOM     15  S   UNL     1      -6.737   4.779 125.472  0.00  0.00    +0.000 S 
ATOM     16  O   UNL     1      -5.995   5.378 124.385  0.00  0.00    +0.000 OA
ATOM     17  O   UNL     1      -6.280   4.853 126.839  0.00  0.00    +0.000 OA
BRANCH  15  18
ATOM     18  N   UNL     1      -8.259   5.500 125.460  0.00  0.00    +0.000 NA
ATOM     19  H   UNL     1      -8.623   5.455 124.503  0.00  0.00    +0.000 HD
ATOM     20  H   UNL     1      -8.221   6.466 125.784  0.00  0.00    +0.000 HD
ENDBRANCH  15  18
ENDBRANCH   1  15
TORSDOF 3
ENDMDL
MODEL 3
REMARK VINA RESULT:      -6.3      1.984      2.374
REMARK  Name = Sulthiame
REMARK  3 active torsions:
REMARK  status: ('A' for Active; 'I' for Inactive)
REMARK    1  A    between atoms: N_1  and  S_2
REMARK    2  A    between atoms: S_2  and  C_5
REMARK    3  A    between atoms: C_8  and  N_11
REMARK                            x       y       z     vdW  Elec       q    Type
REMARK                         _______ _______ _______ _____ _____    ______ ____
ROOT
ATOM      1  C   UNL     1      -8.701   4.621 132.079  0.00  0.00    +0.000 A 
ATOM      2  C   UNL     1      -8.418   5.988 131.969  0.00  0.00    +0.000 A 
ATOM      3  C   UNL     1      -9.256   6.816 131.207  0.00  0.00    +0.000 A 
ATOM      4  C   UNL     1     -10.331   6.280 130.489  0.00  0.00    +0.000 A 
ATOM      5  C   UNL     1     -10.611   4.914 130.610  0.00  0.00    +0.000 A 
ATOM      6  C   UNL     1      -9.807   4.088 131.412  0.00  0.00    +0.000 A 
ENDROOT
BRANCH   4   7
ATOM      7  N   UNL     1     -11.092   7.127 129.622  0.00  0.00    +0.000 N 
ATOM      8  C   UNL     1     -10.567   7.587 128.320  0.00  0.00    +0.000 C 
ATOM      9  C   UNL     1     -11.473   7.090 127.186  0.00  0.00    +0.000 C 
ATOM     10  C   UNL     1     -12.924   7.555 127.340  0.00  0.00    +0.000 C 
ATOM     11  C   UNL     1     -13.535   7.057 128.645  0.00  0.00    +0.000 C 
ATOM     12  S   UNL     1     -12.627   7.679 130.049  0.00  0.00    +0.000 S 
ATOM     13  O   UNL     1     -13.105   6.995 131.234  0.00  0.00    +0.000 OA
ATOM     14  O   UNL     1     -12.623   9.122 129.962  0.00  0.00    +0.000 OA
ENDBRANCH   4   7
BRANCH   1  15
ATOM     15  S   UNL     1      -7.783   3.620 133.227  0.00  0.00    +0.000 S 
ATOM     16  O   UNL     1      -8.011   4.107 134.569  0.00  0.00    +0.000 OA
ATOM     17  O   UNL     1      -6.453   3.422 132.703  0.00  0.00    +0.000 OA
BRANCH  15  18
ATOM     18  N   UNL     1      -8.537   2.116 133.136  0.00  0.00    +0.000 NA
ATOM     19  H   UNL     1      -8.268   1.576 133.965  0.00  0.00    +0.000 HD
ATOM     20  H   UNL     1      -8.280   1.617 132.286  0.00  0.00    +0.000 HD
ENDBRANCH  15  18
ENDBRANCH   1  15
TORSDOF 3
ENDMDL
MODEL 4
REMARK VINA RESULT:      -6.3      2.443      6.482
REMARK  Name = Sulthiame
REMARK  3 active torsions:
REMARK  status: ('A' for Active; 'I' for Inactive)
REMARK    1  A    between atoms: N_1  and  S_2
REMARK    2  A    between atoms: S_2  and  C_5
REMARK    3  A    between atoms: C_8  and  N_11
REMARK                            x       y       z     vdW  Elec       q    Type
REMARK                         _______ _______ _______ _____ _____    ______ ____
ROOT
ATOM      1  C   UNL     1     -11.233   7.319 130.230  0.00  0.00    +0.000 A 
ATOM      2  C   UNL     1     -11.539   6.545 131.355  0.00  0.00    +0.000 A 
ATOM      3  C   UNL     1     -10.504   5.974 132.112  0.00  0.00    +0.000 A 
ATOM      4  C   UNL     1      -9.169   6.103 131.712  0.00  0.00    +0.000 A 
ATOM      5  C   UNL     1      -8.873   6.885 130.590  0.00  0.00    +0.000 A 
ATOM      6  C   UNL     1      -9.899   7.502 129.856  0.00  0.00    +0.000 A 
ENDROOT
BRANCH   4   7
ATOM      7  N   UNL     1      -8.147   5.407 132.432  0.00  0.00    +0.000 N 
ATOM      8  C   UNL     1      -7.749   5.799 133.799  0.00  0.00    +0.000 C 
ATOM      9  C   UNL     1      -7.999   4.637 134.769  0.00  0.00    +0.000 C 
ATOM     10  C   UNL     1      -7.252   3.361 134.371  0.00  0.00    +0.000 C 
ATOM     11  C   UNL     1      -7.669   2.879 132.986  0.00  0.00    +0.000 C 
ATOM     12  S   UNL     1      -7.310   4.113 131.748  0.00  0.00    +0.000 S 
ATOM     13  O   UNL     1      -7.931   3.700 130.506  0.00  0.00    +0.000 OA
ATOM     14  O   UNL     1      -5.896   4.406 131.824  0.00  0.00    +0.000 OA
ENDBRANCH   4   7
BRANCH   1  15
ATOM     15  S   UNL     1     -12.521   8.233 129.411  0.00  0.00    +0.000 S 
ATOM     16  O   UNL     1     -12.893   9.366 130.230  0.00  0.00    +0.000 OA
ATOM     17  O   UNL     1     -13.501   7.299 128.912  0.00  0.00    +0.000 OA
BRANCH  15  18
ATOM     18  N   UNL     1     -11.758   8.865 128.048  0.00  0.00    +0.000 NA
ATOM     19  H   UNL     1     -12.143   9.799 127.875  0.00  0.00    +0.000 HD
ATOM     20  H   UNL     1     -11.888   8.267 127.233  0.00  0.00    +0.000 HD
ENDBRANCH  15  18
ENDBRANCH   1  15
TORSDOF 3
ENDMDL
MODEL 5
REMARK VINA RESULT:      -6.0      9.123     11.132
REMARK  Name = Sulthiame
REMARK  3 active torsions:
REMARK  status: ('A' for Active; 'I' for Inactive)
REMARK    1  A    between atoms: N_1  and  S_2
REMARK    2  A    between atoms: S_2  and  C_5
REMARK    3  A    between atoms: C_8  and  N_11
REMARK                            x       y       z     vdW  Elec       q    Type
REMARK                         _______ _______ _______ _____ _____    ______ ____
ROOT
ATOM      1  C   UNL     1      -8.122  -2.560 125.960  0.00  0.00    +0.000 A 
ATOM      2  C   UNL     1      -8.931  -3.249 126.871  0.00  0.00    +0.000 A 
ATOM      3  C   UNL     1      -8.509  -3.404 128.201  0.00  0.00    +0.000 A 
ATOM      4  C   UNL     1      -7.253  -2.945 128.611  0.00  0.00    +0.000 A 
ATOM      5  C   UNL     1      -6.454  -2.250 127.696  0.00  0.00    +0.000 A 
ATOM      6  C   UNL     1      -6.891  -2.047 126.376  0.00  0.00    +0.000 A 
ENDROOT
BRANCH   4   7
ATOM      7  N   UNL     1      -6.798  -3.227 129.939  0.00  0.00    +0.000 N 
ATOM      8  C   UNL     1      -6.004  -4.432 130.254  0.00  0.00    +0.000 C 
ATOM      9  C   UNL     1      -4.636  -4.024 130.815  0.00  0.00    +0.000 C 
ATOM     10  C   UNL     1      -4.745  -3.150 132.067  0.00  0.00    +0.000 C 
ATOM     11  C   UNL     1      -5.509  -1.861 131.782  0.00  0.00    +0.000 C 
ATOM     12  S   UNL     1      -7.170  -2.215 131.234  0.00  0.00    +0.000 S 
ATOM     13  O   UNL     1      -7.762  -0.979 130.764  0.00  0.00    +0.000 OA
ATOM     14  O   UNL     1      -7.805  -3.013 132.258  0.00  0.00    +0.000 OA
ENDBRANCH   4   7
BRANCH   1  15
ATOM     15  S   UNL     1      -8.755  -2.160 124.346  0.00  0.00    +0.000 S 
ATOM     16  O   UNL     1      -7.703  -2.327 123.369  0.00  0.00    +0.000 OA
ATOM     17  O   UNL     1      -9.520  -0.940 124.442  0.00  0.00    +0.000 OA
BRANCH  15  18
ATOM     18  N   UNL     1      -9.878  -3.379 124.045  0.00  0.00    +0.000 NA
ATOM     19  H   UNL     1     -10.305  -3.644 124.938  0.00  0.00    +0.000 HD
ATOM     20  H   UNL     1      -9.444  -4.188 123.602  0.00  0.00    +0.000 HD
ENDBRANCH  15  18
ENDBRANCH   1  15
TORSDOF 3
ENDMDL
MODEL 6
REMARK VINA RESULT:      -6.0      7.831      9.676
REMARK  Name = Sulthiame
REMARK  3 active torsions:
REMARK  status: ('A' for Active; 'I' for Inactive)
REMARK    1  A    between atoms: N_1  and  S_2
REMARK    2  A    between atoms: S_2  and  C_5
REMARK    3  A    between atoms: C_8  and  N_11
REMARK                            x       y       z     vdW  Elec       q    Type
REMARK                         _______ _______ _______ _____ _____    ______ ____
ROOT
ATOM      1  C   UNL     1      -7.393   2.984 125.654  0.00  0.00    +0.000 A 
ATOM      2  C   UNL     1      -8.579   2.384 125.215  0.00  0.00    +0.000 A 
ATOM      3  C   UNL     1      -8.660   0.986 125.118  0.00  0.00    +0.000 A 
ATOM      4  C   UNL     1      -7.544   0.184 125.381  0.00  0.00    +0.000 A 
ATOM      5  C   UNL     1      -6.365   0.792 125.826  0.00  0.00    +0.000 A 
ATOM      6  C   UNL     1      -6.291   2.187 125.974  0.00  0.00    +0.000 A 
ENDROOT
BRANCH   4   7
ATOM      7  N   UNL     1      -7.620  -1.227 125.154  0.00  0.00    +0.000 N 
ATOM      8  C   UNL     1      -8.161  -2.153 126.169  0.00  0.00    +0.000 C 
ATOM      9  C   UNL     1      -9.388  -2.884 125.608  0.00  0.00    +0.000 C 
ATOM     10  C   UNL     1      -9.079  -3.662 124.326  0.00  0.00    +0.000 C 
ATOM     11  C   UNL     1      -8.570  -2.741 123.223  0.00  0.00    +0.000 C 
ATOM     12  S   UNL     1      -7.065  -1.923 123.722  0.00  0.00    +0.000 S 
ATOM     13  O   UNL     1      -6.761  -0.902 122.741  0.00  0.00    +0.000 OA
ATOM     14  O   UNL     1      -6.106  -2.948 124.066  0.00  0.00    +0.000 OA
ENDBRANCH   4   7
BRANCH   1  15
ATOM     15  S   UNL     1      -7.363   4.729 126.000  0.00  0.00    +0.000 S 
ATOM     16  O   UNL     1      -6.583   4.961 127.196  0.00  0.00    +0.000 OA
ATOM     17  O   UNL     1      -8.699   5.250 125.848  0.00  0.00    +0.000 OA
BRANCH  15  18
ATOM     18  N   UNL     1      -6.473   5.374 124.723  0.00  0.00    +0.000 NA
ATOM     19  H   UNL     1      -6.707   4.846 123.876  0.00  0.00    +0.000 HD
ATOM     20  H   UNL     1      -5.471   5.333 124.904  0.00  0.00    +0.000 HD
ENDBRANCH  15  18
ENDBRANCH   1  15
TORSDOF 3
ENDMDL
MODEL 7
REMARK VINA RESULT:      -5.9      7.479      8.558
REMARK  Name = Sulthiame
REMARK  3 active torsions:
REMARK  status: ('A' for Active; 'I' for Inactive)
REMARK    1  A    between atoms: N_1  and  S_2
REMARK    2  A    between atoms: S_2  and  C_5
REMARK    3  A    between atoms: C_8  and  N_11
REMARK                            x       y       z     vdW  Elec       q    Type
REMARK                         _______ _______ _______ _____ _____    ______ ____
ROOT
ATOM      1  C   UNL     1      -8.503  -1.046 124.892  0.00  0.00    +0.000 A 
ATOM      2  C   UNL     1      -7.292  -0.515 124.434  0.00  0.00    +0.000 A 
ATOM      3  C   UNL     1      -6.814   0.693 124.966  0.00  0.00    +0.000 A 
ATOM      4  C   UNL     1      -7.571   1.415 125.895  0.00  0.00    +0.000 A 
ATOM      5  C   UNL     1      -8.777   0.872 126.353  0.00  0.00    +0.000 A 
ATOM      6  C   UNL     1      -9.238  -0.360 125.863  0.00  0.00    +0.000 A 
ENDROOT
BRANCH   4   7
ATOM      7  N   UNL     1      -7.117   2.703 126.326  0.00  0.00    +0.000 N 
ATOM      8  C   UNL     1      -6.078   2.858 127.364  0.00  0.00    +0.000 C 
ATOM      9  C   UNL     1      -4.866   3.597 126.783  0.00  0.00    +0.000 C 
ATOM     10  C   UNL     1      -5.226   4.974 126.218  0.00  0.00    +0.000 C 
ATOM     11  C   UNL     1      -6.257   4.866 125.100  0.00  0.00    +0.000 C 
ATOM     12  S   UNL     1      -7.766   4.125 125.696  0.00  0.00    +0.000 S 
ATOM     13  O   UNL     1      -8.610   3.840 124.553  0.00  0.00    +0.000 OA
ATOM     14  O   UNL     1      -8.239   4.928 126.801  0.00  0.00    +0.000 OA
ENDBRANCH   4   7
BRANCH   1  15
ATOM     15  S   UNL     1      -8.992  -2.683 124.395  0.00  0.00    +0.000 S 
ATOM     16  O   UNL     1      -7.843  -3.559 124.450  0.00  0.00    +0.000 OA
ATOM     17  O   UNL     1      -9.815  -2.578 123.214  0.00  0.00    +0.000 OA
BRANCH  15  18
ATOM     18  N   UNL     1     -10.027  -3.182 125.628  0.00  0.00    +0.000 NA
ATOM     19  H   UNL     1     -10.620  -2.387 125.884  0.00  0.00    +0.000 HD
ATOM     20  H   UNL     1      -9.510  -3.519 126.439  0.00  0.00    +0.000 HD
ENDBRANCH  15  18
ENDBRANCH   1  15
TORSDOF 3
ENDMDL
MODEL 8
REMARK VINA RESULT:      -5.9      9.067      9.722
REMARK  Name = Sulthiame
REMARK  3 active torsions:
REMARK  status: ('A' for Active; 'I' for Inactive)
REMARK    1  A    between atoms: N_1  and  S_2
REMARK    2  A    between atoms: S_2  and  C_5
REMARK    3  A    between atoms: C_8  and  N_11
REMARK                            x       y       z     vdW  Elec       q    Type
REMARK                         _______ _______ _______ _____ _____    ______ ____
ROOT
ATOM      1  C   UNL     1      -5.796  -2.914 129.138  0.00  0.00    +0.000 A 
ATOM      2  C   UNL     1      -7.166  -3.206 129.141  0.00  0.00    +0.000 A 
ATOM      3  C   UNL     1      -7.938  -2.940 127.999  0.00  0.00    +0.000 A 
ATOM      4  C   UNL     1      -7.373  -2.314 126.883  0.00  0.00    +0.000 A 
ATOM      5  C   UNL     1      -6.003  -2.033 126.886  0.00  0.00    +0.000 A 
ATOM      6  C   UNL     1      -5.212  -2.342 128.005  0.00  0.00    +0.000 A 
ENDROOT
BRANCH   4   7
ATOM      7  N   UNL     1      -8.212  -1.943 125.783  0.00  0.00    +0.000 N 
ATOM      8  C   UNL     1      -8.998  -0.692 125.787  0.00  0.00    +0.000 C 
ATOM      9  C   UNL     1      -8.563   0.202 124.619  0.00  0.00    +0.000 C 
ATOM     10  C   UNL     1      -8.713  -0.486 123.259  0.00  0.00    +0.000 C 
ATOM     11  C   UNL     1      -7.874  -1.757 123.180  0.00  0.00    +0.000 C 
ATOM     12  S   UNL     1      -8.379  -2.929 124.427  0.00  0.00    +0.000 S 
ATOM     13  O   UNL     1      -7.408  -4.005 124.453  0.00  0.00    +0.000 OA
ATOM     14  O   UNL     1      -9.788  -3.190 124.235  0.00  0.00    +0.000 OA
ENDBRANCH   4   7
BRANCH   1  15
ATOM     15  S   UNL     1      -4.775  -3.463 130.488  0.00  0.00    +0.000 S 
ATOM     16  O   UNL     1      -5.120  -4.828 130.818  0.00  0.00    +0.000 OA
ATOM     17  O   UNL     1      -4.736  -2.423 131.487  0.00  0.00    +0.000 OA
BRANCH  15  18
ATOM     18  N   UNL     1      -3.228  -3.514 129.822  0.00  0.00    +0.000 NA
ATOM     19  H   UNL     1      -2.701  -4.250 130.302  0.00  0.00    +0.000 HD
ATOM     20  H   UNL     1      -2.752  -2.618 129.910  0.00  0.00    +0.000 HD
ENDBRANCH  15  18
ENDBRANCH   1  15
TORSDOF 3
ENDMDL
MODEL 9
REMARK VINA RESULT:      -5.8      3.913      6.663
REMARK  Name = Sulthiame
REMARK  3 active torsions:
REMARK  status: ('A' for Active; 'I' for Inactive)
REMARK    1  A    between atoms: N_1  and  S_2
REMARK    2  A    between atoms: S_2  and  C_5
REMARK    3  A    between atoms: C_8  and  N_11
REMARK                            x       y       z     vdW  Elec       q    Type
REMARK                         _______ _______ _______ _____ _____    ______ ____
ROOT
ATOM      1  C   UNL     1      -9.313   5.542 130.293  0.00  0.00    +0.000 A 
ATOM      2  C   UNL     1      -8.404   4.572 129.853  0.00  0.00    +0.000 A 
ATOM      3  C   UNL     1      -7.034   4.732 130.110  0.00  0.00    +0.000 A 
ATOM      4  C   UNL     1      -6.553   5.888 130.734  0.00  0.00    +0.000 A 
ATOM      5  C   UNL     1      -7.469   6.848 131.177  0.00  0.00    +0.000 A 
ATOM      6  C   UNL     1      -8.847   6.672 130.969  0.00  0.00    +0.000 A 
ENDROOT
BRANCH   4   7
ATOM      7  N   UNL     1      -5.141   6.080 130.872  0.00  0.00    +0.000 N 
ATOM      8  C   UNL     1      -4.361   6.864 129.893  0.00  0.00    +0.000 C 
ATOM      9  C   UNL     1      -3.704   8.064 130.589  0.00  0.00    +0.000 C 
ATOM     10  C   UNL     1      -2.793   7.651 131.748  0.00  0.00    +0.000 C 
ATOM     11  C   UNL     1      -3.564   6.885 132.818  0.00  0.00    +0.000 C 
ATOM     12  S   UNL     1      -4.275   5.394 132.145  0.00  0.00    +0.000 S 
ATOM     13  O   UNL     1      -5.175   4.837 133.134  0.00  0.00    +0.000 OA
ATOM     14  O   UNL     1      -3.197   4.613 131.582  0.00  0.00    +0.000 OA
ENDBRANCH   4   7
BRANCH   1  15
ATOM     15  S   UNL     1     -11.061   5.229 130.177  0.00  0.00    +0.000 S 
ATOM     16  O   UNL     1     -11.291   3.802 130.212  0.00  0.00    +0.000 OA
ATOM     17  O   UNL     1     -11.609   6.065 129.136  0.00  0.00    +0.000 OA
BRANCH  15  18
ATOM     18  N   UNL     1     -11.672   5.843 131.622  0.00  0.00    +0.000 NA
ATOM     19  H   UNL     1     -10.910   6.326 132.108  0.00  0.00    +0.000 HD
ATOM     20  H   UNL     1     -12.060   5.105 132.209  0.00  0.00    +0.000 HD
ENDBRANCH  15  18
ENDBRANCH   1  15
TORSDOF 3
ENDMDL
