MODEL 1
REMARK VINA RESULT:      -7.0      0.000      0.000
REMARK  Name = Sultopride
REMARK  10 active torsions:
REMARK  status: ('A' for Active; 'I' for Inactive)
REMARK    1  A    between atoms: C_1  and  C_2
REMARK    2  A    between atoms: C_2  and  N_3
REMARK    3  A    between atoms: C_7  and  C_8
REMARK    4  A    between atoms: C_8  and  N_9
REMARK    5  A    between atoms: C_10  and  C_12
REMARK    6  A    between atoms: C_14  and  S_20
REMARK    7  A    between atoms: C_17  and  O_18
REMARK    8  A    between atoms: O_18  and  C_19
REMARK    9  A    between atoms: S_20  and  C_23
REMARK   10  A    between atoms: C_23  and  C_24
REMARK                            x       y       z     vdW  Elec       q    Type
REMARK                         _______ _______ _______ _____ _____    ______ ____
ROOT
ATOM      1  C   UNL     1      -8.516   6.611 131.246  0.00  0.00    +0.000 A 
ATOM      2  C   UNL     1      -9.257   7.174 130.180  0.00  0.00    +0.000 A 
ATOM      3  C   UNL     1     -10.669   7.192 130.218  0.00  0.00    +0.000 A 
ATOM      4  C   UNL     1     -11.352   6.562 131.249  0.00  0.00    +0.000 A 
ATOM      5  C   UNL     1     -10.625   6.039 132.311  0.00  0.00    +0.000 A 
ATOM      6  C   UNL     1      -9.222   6.097 132.354  0.00  0.00    +0.000 A 
ENDROOT
BRANCH   1   8
ATOM      7  N   UNL     1      -6.278   5.921 132.025  0.00  0.00    +0.000 N 
ATOM      8  C   UNL     1      -7.023   6.754 131.191  0.00  0.00    +0.000 C 
ATOM      9  O   UNL     1      -6.530   7.627 130.494  0.00  0.00    +0.000 OA
ATOM     10  H   UNL     1      -6.770   5.211 132.548  0.00  0.00    +0.000 HD
BRANCH   7  11
ATOM     11  C   UNL     1      -4.937   6.320 132.477  0.00  0.00    +0.000 C 
BRANCH  11  16
ATOM     12  N   UNL     1      -3.054   6.183 130.920  0.00  0.00    +0.000 NA
ATOM     13  C   UNL     1      -1.682   6.489 131.266  0.00  0.00    +0.000 C 
ATOM     14  C   UNL     1      -1.302   5.409 132.251  0.00  0.00    +0.000 C 
ATOM     15  C   UNL     1      -2.610   5.199 132.991  0.00  0.00    +0.000 C 
ATOM     16  C   UNL     1      -3.743   5.441 131.971  0.00  0.00    +0.000 C 
BRANCH  12  18
ATOM     17  C   UNL     1      -3.323   7.219 128.645  0.00  0.00    +0.000 C 
ATOM     18  C   UNL     1      -3.459   6.001 129.546  0.00  0.00    +0.000 C 
ENDBRANCH  12  18
ENDBRANCH  11  16
ENDBRANCH   7  11
ENDBRANCH   1   8
BRANCH   3  19
ATOM     19  S   UNL     1     -11.563   8.157 129.010  0.00  0.00    +0.000 S 
ATOM     20  O   UNL     1     -12.424   9.038 129.768  0.00  0.00    +0.000 OA
ATOM     21  O   UNL     1     -10.564   8.673 128.091  0.00  0.00    +0.000 OA
BRANCH  19  22
ATOM     22  C   UNL     1     -12.623   7.040 128.093  0.00  0.00    +0.000 C 
ATOM     23  C   UNL     1     -12.318   7.088 126.606  0.00  0.00    +0.000 C 
ENDBRANCH  19  22
ENDBRANCH   3  19
BRANCH   6  24
ATOM     24  O   UNL     1      -8.801   5.662 133.579  0.00  0.00    +0.000 OA
ATOM     25  C   UNL     1      -8.885   4.296 133.877  0.00  0.00    +0.000 C 
ENDBRANCH   6  24
TORSDOF 7
ENDMDL
MODEL 2
REMARK VINA RESULT:      -7.0      4.596      7.173
REMARK  Name = Sultopride
REMARK  10 active torsions:
REMARK  status: ('A' for Active; 'I' for Inactive)
REMARK    1  A    between atoms: C_1  and  C_2
REMARK    2  A    between atoms: C_2  and  N_3
REMARK    3  A    between atoms: C_7  and  C_8
REMARK    4  A    between atoms: C_8  and  N_9
REMARK    5  A    between atoms: C_10  and  C_12
REMARK    6  A    between atoms: C_14  and  S_20
REMARK    7  A    between atoms: C_17  and  O_18
REMARK    8  A    between atoms: O_18  and  C_19
REMARK    9  A    between atoms: S_20  and  C_23
REMARK   10  A    between atoms: C_23  and  C_24
REMARK                            x       y       z     vdW  Elec       q    Type
REMARK                         _______ _______ _______ _____ _____    ______ ____
ROOT
ATOM      1  C   UNL     1      -9.280   4.734 130.343  0.00  0.00    +0.000 A 
ATOM      2  C   UNL     1      -8.715   5.062 129.087  0.00  0.00    +0.000 A 
ATOM      3  C   UNL     1      -8.155   4.059 128.267  0.00  0.00    +0.000 A 
ATOM      4  C   UNL     1      -8.054   2.753 128.725  0.00  0.00    +0.000 A 
ATOM      5  C   UNL     1      -8.637   2.424 129.942  0.00  0.00    +0.000 A 
ATOM      6  C   UNL     1      -9.293   3.379 130.736  0.00  0.00    +0.000 A 
ENDROOT
BRANCH   1   8
ATOM      7  N   UNL     1     -11.333   5.664 131.347  0.00  0.00    +0.000 N 
ATOM      8  C   UNL     1      -9.974   5.836 131.090  0.00  0.00    +0.000 C 
ATOM      9  O   UNL     1      -9.357   6.851 131.369  0.00  0.00    +0.000 OA
ATOM     10  H   UNL     1     -11.754   4.779 131.103  0.00  0.00    +0.000 HD
BRANCH   7  11
ATOM     11  C   UNL     1     -12.211   6.828 131.540  0.00  0.00    +0.000 C 
BRANCH  11  16
ATOM     12  N   UNL     1     -12.525   8.609 129.892  0.00  0.00    +0.000 NA
ATOM     13  C   UNL     1     -11.950   8.605 128.562  0.00  0.00    +0.000 C 
ATOM     14  C   UNL     1     -12.648   7.460 127.865  0.00  0.00    +0.000 C 
ATOM     15  C   UNL     1     -12.817   6.469 129.002  0.00  0.00    +0.000 C 
ATOM     16  C   UNL     1     -13.027   7.297 130.288  0.00  0.00    +0.000 C 
BRANCH  12  18
ATOM     17  C   UNL     1     -13.566  10.851 129.432  0.00  0.00    +0.000 C 
ATOM     18  C   UNL     1     -13.139   9.795 130.440  0.00  0.00    +0.000 C 
ENDBRANCH  12  18
ENDBRANCH  11  16
ENDBRANCH   7  11
ENDBRANCH   1   8
BRANCH   3  19
ATOM     19  S   UNL     1      -7.716   4.453 126.581  0.00  0.00    +0.000 S 
ATOM     20  O   UNL     1      -8.773   5.309 126.088  0.00  0.00    +0.000 OA
ATOM     21  O   UNL     1      -6.334   4.895 126.621  0.00  0.00    +0.000 OA
BRANCH  19  22
ATOM     22  C   UNL     1      -7.777   2.935 125.631  0.00  0.00    +0.000 C 
ATOM     23  C   UNL     1      -6.930   3.038 124.374  0.00  0.00    +0.000 C 
ENDBRANCH  19  22
ENDBRANCH   3  19
BRANCH   6  24
ATOM     24  O   UNL     1      -9.905   2.740 131.778  0.00  0.00    +0.000 OA
ATOM     25  C   UNL     1      -9.772   1.351 131.891  0.00  0.00    +0.000 C 
ENDBRANCH   6  24
TORSDOF 7
ENDMDL
MODEL 3
REMARK VINA RESULT:      -6.9      8.632     10.031
REMARK  Name = Sultopride
REMARK  10 active torsions:
REMARK  status: ('A' for Active; 'I' for Inactive)
REMARK    1  A    between atoms: C_1  and  C_2
REMARK    2  A    between atoms: C_2  and  N_3
REMARK    3  A    between atoms: C_7  and  C_8
REMARK    4  A    between atoms: C_8  and  N_9
REMARK    5  A    between atoms: C_10  and  C_12
REMARK    6  A    between atoms: C_14  and  S_20
REMARK    7  A    between atoms: C_17  and  O_18
REMARK    8  A    between atoms: O_18  and  C_19
REMARK    9  A    between atoms: S_20  and  C_23
REMARK   10  A    between atoms: C_23  and  C_24
REMARK                            x       y       z     vdW  Elec       q    Type
REMARK                         _______ _______ _______ _____ _____    ______ ____
ROOT
ATOM      1  C   UNL     1      -7.287   2.693 124.711  0.00  0.00    +0.000 A 
ATOM      2  C   UNL     1      -7.183   2.979 123.329  0.00  0.00    +0.000 A 
ATOM      3  C   UNL     1      -6.163   3.829 122.846  0.00  0.00    +0.000 A 
ATOM      4  C   UNL     1      -5.315   4.480 123.731  0.00  0.00    +0.000 A 
ATOM      5  C   UNL     1      -5.396   4.174 125.083  0.00  0.00    +0.000 A 
ATOM      6  C   UNL     1      -6.333   3.255 125.584  0.00  0.00    +0.000 A 
ENDROOT
BRANCH   1   8
ATOM      7  N   UNL     1      -7.878   0.647 125.957  0.00  0.00    +0.000 N 
ATOM      8  C   UNL     1      -8.312   1.676 125.123  0.00  0.00    +0.000 C 
ATOM      9  O   UNL     1      -9.440   1.741 124.662  0.00  0.00    +0.000 OA
ATOM     10  H   UNL     1      -6.932   0.689 126.311  0.00  0.00    +0.000 HD
BRANCH   7  11
ATOM     11  C   UNL     1      -8.573  -0.650 125.970  0.00  0.00    +0.000 C 
BRANCH  11  16
ATOM     12  N   UNL     1      -7.862  -1.570 123.818  0.00  0.00    +0.000 NA
ATOM     13  C   UNL     1      -6.531  -1.425 123.265  0.00  0.00    +0.000 C 
ATOM     14  C   UNL     1      -5.654  -2.218 124.206  0.00  0.00    +0.000 C 
ATOM     15  C   UNL     1      -6.333  -1.966 125.539  0.00  0.00    +0.000 C 
ATOM     16  C   UNL     1      -7.845  -1.836 125.253  0.00  0.00    +0.000 C 
BRANCH  12  18
ATOM     17  C   UNL     1      -9.581  -3.376 123.491  0.00  0.00    +0.000 C 
ATOM     18  C   UNL     1      -8.955  -2.071 123.020  0.00  0.00    +0.000 C 
ENDBRANCH  12  18
ENDBRANCH  11  16
ENDBRANCH   7  11
ENDBRANCH   1   8
BRANCH   3  19
ATOM     19  S   UNL     1      -5.880   3.941 121.087  0.00  0.00    +0.000 S 
ATOM     20  O   UNL     1      -5.250   5.225 120.870  0.00  0.00    +0.000 OA
ATOM     21  O   UNL     1      -5.229   2.700 120.706  0.00  0.00    +0.000 OA
BRANCH  19  22
ATOM     22  C   UNL     1      -7.477   3.991 120.277  0.00  0.00    +0.000 C 
ATOM     23  C   UNL     1      -7.354   4.495 118.849  0.00  0.00    +0.000 C 
ENDBRANCH  19  22
ENDBRANCH   3  19
BRANCH   6  24
ATOM     24  O   UNL     1      -6.068   3.033 126.906  0.00  0.00    +0.000 OA
ATOM     25  C   UNL     1      -6.239   4.084 127.816  0.00  0.00    +0.000 C 
ENDBRANCH   6  24
TORSDOF 7
ENDMDL
MODEL 4
REMARK VINA RESULT:      -6.6      8.691     10.891
REMARK  Name = Sultopride
REMARK  10 active torsions:
REMARK  status: ('A' for Active; 'I' for Inactive)
REMARK    1  A    between atoms: C_1  and  C_2
REMARK    2  A    between atoms: C_2  and  N_3
REMARK    3  A    between atoms: C_7  and  C_8
REMARK    4  A    between atoms: C_8  and  N_9
REMARK    5  A    between atoms: C_10  and  C_12
REMARK    6  A    between atoms: C_14  and  S_20
REMARK    7  A    between atoms: C_17  and  O_18
REMARK    8  A    between atoms: O_18  and  C_19
REMARK    9  A    between atoms: S_20  and  C_23
REMARK   10  A    between atoms: C_23  and  C_24
REMARK                            x       y       z     vdW  Elec       q    Type
REMARK                         _______ _______ _______ _____ _____    ______ ____
ROOT
ATOM      1  C   UNL     1      -7.200   2.355 123.494  0.00  0.00    +0.000 A 
ATOM      2  C   UNL     1      -6.593   2.312 124.772  0.00  0.00    +0.000 A 
ATOM      3  C   UNL     1      -5.569   3.223 125.111  0.00  0.00    +0.000 A 
ATOM      4  C   UNL     1      -5.069   4.103 124.162  0.00  0.00    +0.000 A 
ATOM      5  C   UNL     1      -5.687   4.169 122.920  0.00  0.00    +0.000 A 
ATOM      6  C   UNL     1      -6.776   3.347 122.585  0.00  0.00    +0.000 A 
ENDROOT
BRANCH   1   8
ATOM      7  N   UNL     1      -8.198   0.101 123.591  0.00  0.00    +0.000 N 
ATOM      8  C   UNL     1      -8.370   1.444 123.262  0.00  0.00    +0.000 C 
ATOM      9  O   UNL     1      -9.378   1.886 122.734  0.00  0.00    +0.000 OA
ATOM     10  H   UNL     1      -7.339  -0.170 124.048  0.00  0.00    +0.000 HD
BRANCH   7  11
ATOM     11  C   UNL     1      -8.994  -0.942 122.924  0.00  0.00    +0.000 C 
BRANCH  11  16
ATOM     12  N   UNL     1      -7.189  -2.369 123.757  0.00  0.00    +0.000 NA
ATOM     13  C   UNL     1      -7.210  -3.053 125.034  0.00  0.00    +0.000 C 
ATOM     14  C   UNL     1      -8.318  -4.069 124.888  0.00  0.00    +0.000 C 
ATOM     15  C   UNL     1      -9.308  -3.316 124.019  0.00  0.00    +0.000 C 
ATOM     16  C   UNL     1      -8.481  -2.413 123.079  0.00  0.00    +0.000 C 
BRANCH  12  18
ATOM     17  C   UNL     1      -4.832  -3.172 123.417  0.00  0.00    +0.000 C 
ATOM     18  C   UNL     1      -5.982  -2.282 122.971  0.00  0.00    +0.000 C 
ENDBRANCH  12  18
ENDBRANCH  11  16
ENDBRANCH   7  11
ENDBRANCH   1   8
BRANCH   3  19
ATOM     19  S   UNL     1      -5.027   3.334 126.809  0.00  0.00    +0.000 S 
ATOM     20  O   UNL     1      -6.225   3.225 127.614  0.00  0.00    +0.000 OA
ATOM     21  O   UNL     1      -3.932   2.391 126.943  0.00  0.00    +0.000 OA
BRANCH  19  22
ATOM     22  C   UNL     1      -4.366   4.980 127.066  0.00  0.00    +0.000 C 
ATOM     23  C   UNL     1      -2.997   4.926 127.723  0.00  0.00    +0.000 C 
ENDBRANCH  19  22
ENDBRANCH   3  19
BRANCH   6  24
ATOM     24  O   UNL     1      -7.274   3.747 121.377  0.00  0.00    +0.000 OA
ATOM     25  C   UNL     1      -6.379   4.103 120.360  0.00  0.00    +0.000 C 
ENDBRANCH   6  24
TORSDOF 7
ENDMDL
MODEL 5
REMARK VINA RESULT:      -6.6      2.567      3.160
REMARK  Name = Sultopride
REMARK  10 active torsions:
REMARK  status: ('A' for Active; 'I' for Inactive)
REMARK    1  A    between atoms: C_1  and  C_2
REMARK    2  A    between atoms: C_2  and  N_3
REMARK    3  A    between atoms: C_7  and  C_8
REMARK    4  A    between atoms: C_8  and  N_9
REMARK    5  A    between atoms: C_10  and  C_12
REMARK    6  A    between atoms: C_14  and  S_20
REMARK    7  A    between atoms: C_17  and  O_18
REMARK    8  A    between atoms: O_18  and  C_19
REMARK    9  A    between atoms: S_20  and  C_23
REMARK   10  A    between atoms: C_23  and  C_24
REMARK                            x       y       z     vdW  Elec       q    Type
REMARK                         _______ _______ _______ _____ _____    ______ ____
ROOT
ATOM      1  C   UNL     1      -8.841   4.778 130.378  0.00  0.00    +0.000 A 
ATOM      2  C   UNL     1     -10.093   5.252 129.917  0.00  0.00    +0.000 A 
ATOM      3  C   UNL     1     -10.916   6.038 130.753  0.00  0.00    +0.000 A 
ATOM      4  C   UNL     1     -10.557   6.270 132.073  0.00  0.00    +0.000 A 
ATOM      5  C   UNL     1      -9.315   5.835 132.516  0.00  0.00    +0.000 A 
ATOM      6  C   UNL     1      -8.429   5.138 131.678  0.00  0.00    +0.000 A 
ENDROOT
BRANCH   1   8
ATOM      7  N   UNL     1      -6.593   4.198 129.543  0.00  0.00    +0.000 N 
ATOM      8  C   UNL     1      -7.972   4.065 129.384  0.00  0.00    +0.000 C 
ATOM      9  O   UNL     1      -8.490   3.474 128.450  0.00  0.00    +0.000 OA
ATOM     10  H   UNL     1      -6.254   4.684 130.361  0.00  0.00    +0.000 HD
BRANCH   7  11
ATOM     11  C   UNL     1      -5.689   4.051 128.393  0.00  0.00    +0.000 C 
BRANCH  11  16
ATOM     12  N   UNL     1      -3.456   4.646 127.588  0.00  0.00    +0.000 NA
ATOM     13  C   UNL     1      -2.742   5.847 127.970  0.00  0.00    +0.000 C 
ATOM     14  C   UNL     1      -2.461   5.654 129.442  0.00  0.00    +0.000 C 
ATOM     15  C   UNL     1      -3.706   4.915 129.894  0.00  0.00    +0.000 C 
ATOM     16  C   UNL     1      -4.156   4.031 128.712  0.00  0.00    +0.000 C 
BRANCH  12  18
ATOM     17  C   UNL     1      -1.702   3.056 126.742  0.00  0.00    +0.000 C 
ATOM     18  C   UNL     1      -2.999   3.813 126.501  0.00  0.00    +0.000 C 
ENDBRANCH  12  18
ENDBRANCH  11  16
ENDBRANCH   7  11
ENDBRANCH   1   8
BRANCH   3  19
ATOM     19  S   UNL     1     -12.342   6.855 130.055  0.00  0.00    +0.000 S 
ATOM     20  O   UNL     1     -12.711   6.080 128.890  0.00  0.00    +0.000 OA
ATOM     21  O   UNL     1     -13.265   7.060 131.157  0.00  0.00    +0.000 OA
BRANCH  19  22
ATOM     22  C   UNL     1     -11.820   8.468 129.473  0.00  0.00    +0.000 C 
ATOM     23  C   UNL     1     -10.932   8.349 128.247  0.00  0.00    +0.000 C 
ENDBRANCH  19  22
ENDBRANCH   3  19
BRANCH   6  24
ATOM     24  O   UNL     1      -7.235   4.990 132.327  0.00  0.00    +0.000 OA
ATOM     25  C   UNL     1      -6.392   6.101 132.454  0.00  0.00    +0.000 C 
ENDBRANCH   6  24
TORSDOF 7
ENDMDL
MODEL 6
REMARK VINA RESULT:      -6.6      8.206     10.264
REMARK  Name = Sultopride
REMARK  10 active torsions:
REMARK  status: ('A' for Active; 'I' for Inactive)
REMARK    1  A    between atoms: C_1  and  C_2
REMARK    2  A    between atoms: C_2  and  N_3
REMARK    3  A    between atoms: C_7  and  C_8
REMARK    4  A    between atoms: C_8  and  N_9
REMARK    5  A    between atoms: C_10  and  C_12
REMARK    6  A    between atoms: C_14  and  S_20
REMARK    7  A    between atoms: C_17  and  O_18
REMARK    8  A    between atoms: O_18  and  C_19
REMARK    9  A    between atoms: S_20  and  C_23
REMARK   10  A    between atoms: C_23  and  C_24
REMARK                            x       y       z     vdW  Elec       q    Type
REMARK                         _______ _______ _______ _____ _____    ______ ____
ROOT
ATOM      1  C   UNL     1      -6.731   1.760 125.314  0.00  0.00    +0.000 A 
ATOM      2  C   UNL     1      -5.946   2.407 126.298  0.00  0.00    +0.000 A 
ATOM      3  C   UNL     1      -5.237   3.588 125.989  0.00  0.00    +0.000 A 
ATOM      4  C   UNL     1      -5.215   4.074 124.688  0.00  0.00    +0.000 A 
ATOM      5  C   UNL     1      -6.011   3.459 123.731  0.00  0.00    +0.000 A 
ATOM      6  C   UNL     1      -6.808   2.342 124.031  0.00  0.00    +0.000 A 
ENDROOT
BRANCH   1   8
ATOM      7  N   UNL     1      -6.867  -0.546 126.180  0.00  0.00    +0.000 N 
ATOM      8  C   UNL     1      -7.558   0.589 125.760  0.00  0.00    +0.000 C 
ATOM      9  O   UNL     1      -8.773   0.644 125.667  0.00  0.00    +0.000 OA
ATOM     10  H   UNL     1      -5.861  -0.492 126.250  0.00  0.00    +0.000 HD
BRANCH   7  11
ATOM     11  C   UNL     1      -7.492  -1.876 126.098  0.00  0.00    +0.000 C 
BRANCH  11  16
ATOM     12  N   UNL     1      -7.570  -1.959 123.654  0.00  0.00    +0.000 NA
ATOM     13  C   UNL     1      -6.459  -1.624 122.787  0.00  0.00    +0.000 C 
ATOM     14  C   UNL     1      -5.439  -2.703 123.066  0.00  0.00    +0.000 C 
ATOM     15  C   UNL     1      -5.653  -2.948 124.548  0.00  0.00    +0.000 C 
ATOM     16  C   UNL     1      -7.155  -2.724 124.826  0.00  0.00    +0.000 C 
BRANCH  12  18
ATOM     17  C   UNL     1      -9.587  -3.450 123.486  0.00  0.00    +0.000 C 
ATOM     18  C   UNL     1      -8.903  -2.139 123.129  0.00  0.00    +0.000 C 
ENDBRANCH  12  18
ENDBRANCH  11  16
ENDBRANCH   7  11
ENDBRANCH   1   8
BRANCH   3  19
ATOM     19  S   UNL     1      -4.496   4.534 127.310  0.00  0.00    +0.000 S 
ATOM     20  O   UNL     1      -4.864   5.911 127.065  0.00  0.00    +0.000 OA
ATOM     21  O   UNL     1      -4.861   3.856 128.541  0.00  0.00    +0.000 OA
BRANCH  19  22
ATOM     22  C   UNL     1      -2.716   4.422 127.131  0.00  0.00    +0.000 C 
ATOM     23  C   UNL     1      -2.274   2.985 126.915  0.00  0.00    +0.000 C 
ENDBRANCH  19  22
ENDBRANCH   3  19
BRANCH   6  24
ATOM     24  O   UNL     1      -7.598   2.062 122.952  0.00  0.00    +0.000 OA
ATOM     25  C   UNL     1      -8.217   3.121 122.275  0.00  0.00    +0.000 C 
ENDBRANCH   6  24
TORSDOF 7
ENDMDL
MODEL 7
REMARK VINA RESULT:      -6.6      1.940      2.277
REMARK  Name = Sultopride
REMARK  10 active torsions:
REMARK  status: ('A' for Active; 'I' for Inactive)
REMARK    1  A    between atoms: C_1  and  C_2
REMARK    2  A    between atoms: C_2  and  N_3
REMARK    3  A    between atoms: C_7  and  C_8
REMARK    4  A    between atoms: C_8  and  N_9
REMARK    5  A    between atoms: C_10  and  C_12
REMARK    6  A    between atoms: C_14  and  S_20
REMARK    7  A    between atoms: C_17  and  O_18
REMARK    8  A    between atoms: O_18  and  C_19
REMARK    9  A    between atoms: S_20  and  C_23
REMARK   10  A    between atoms: C_23  and  C_24
REMARK                            x       y       z     vdW  Elec       q    Type
REMARK                         _______ _______ _______ _____ _____    ______ ____
ROOT
ATOM      1  C   UNL     1      -9.379   5.375 130.146  0.00  0.00    +0.000 A 
ATOM      2  C   UNL     1     -10.402   6.065 129.454  0.00  0.00    +0.000 A 
ATOM      3  C   UNL     1     -11.424   6.735 130.162  0.00  0.00    +0.000 A 
ATOM      4  C   UNL     1     -11.499   6.637 131.545  0.00  0.00    +0.000 A 
ATOM      5  C   UNL     1     -10.478   5.989 132.226  0.00  0.00    +0.000 A 
ATOM      6  C   UNL     1      -9.392   5.400 131.557  0.00  0.00    +0.000 A 
ENDROOT
BRANCH   1   8
ATOM      7  N   UNL     1      -7.107   4.423 130.007  0.00  0.00    +0.000 N 
ATOM      8  C   UNL     1      -8.260   4.806 129.323  0.00  0.00    +0.000 C 
ATOM      9  O   UNL     1      -8.367   4.773 128.108  0.00  0.00    +0.000 OA
ATOM     10  H   UNL     1      -7.119   4.461 131.016  0.00  0.00    +0.000 HD
BRANCH   7  11
ATOM     11  C   UNL     1      -5.806   4.395 129.322  0.00  0.00    +0.000 C 
BRANCH  11  16
ATOM     12  N   UNL     1      -4.538   6.487 129.375  0.00  0.00    +0.000 NA
ATOM     13  C   UNL     1      -4.794   7.576 130.296  0.00  0.00    +0.000 C 
ATOM     14  C   UNL     1      -4.435   7.004 131.648  0.00  0.00    +0.000 C 
ATOM     15  C   UNL     1      -4.872   5.559 131.492  0.00  0.00    +0.000 C 
ATOM     16  C   UNL     1      -4.640   5.179 130.014  0.00  0.00    +0.000 C 
BRANCH  12  18
ATOM     17  C   UNL     1      -2.174   6.474 128.520  0.00  0.00    +0.000 C 
ATOM     18  C   UNL     1      -3.659   6.654 128.242  0.00  0.00    +0.000 C 
ENDBRANCH  12  18
ENDBRANCH  11  16
ENDBRANCH   7  11
ENDBRANCH   1   8
BRANCH   3  19
ATOM     19  S   UNL     1     -12.526   7.828 129.280  0.00  0.00    +0.000 S 
ATOM     20  O   UNL     1     -13.686   7.031 128.943  0.00  0.00    +0.000 OA
ATOM     21  O   UNL     1     -12.636   9.026 130.092  0.00  0.00    +0.000 OA
BRANCH  19  22
ATOM     22  C   UNL     1     -11.731   8.282 127.740  0.00  0.00    +0.000 C 
ATOM     23  C   UNL     1     -12.076   7.301 126.632  0.00  0.00    +0.000 C 
ENDBRANCH  19  22
ENDBRANCH   3  19
BRANCH   6  24
ATOM     24  O   UNL     1      -8.474   4.991 132.482  0.00  0.00    +0.000 OA
ATOM     25  C   UNL     1      -8.256   5.785 133.615  0.00  0.00    +0.000 C 
ENDBRANCH   6  24
TORSDOF 7
ENDMDL
MODEL 8
REMARK VINA RESULT:      -6.3      1.786      2.458
REMARK  Name = Sultopride
REMARK  10 active torsions:
REMARK  status: ('A' for Active; 'I' for Inactive)
REMARK    1  A    between atoms: C_1  and  C_2
REMARK    2  A    between atoms: C_2  and  N_3
REMARK    3  A    between atoms: C_7  and  C_8
REMARK    4  A    between atoms: C_8  and  N_9
REMARK    5  A    between atoms: C_10  and  C_12
REMARK    6  A    between atoms: C_14  and  S_20
REMARK    7  A    between atoms: C_17  and  O_18
REMARK    8  A    between atoms: O_18  and  C_19
REMARK    9  A    between atoms: S_20  and  C_23
REMARK   10  A    between atoms: C_23  and  C_24
REMARK                            x       y       z     vdW  Elec       q    Type
REMARK                         _______ _______ _______ _____ _____    ______ ____
ROOT
ATOM      1  C   UNL     1      -8.736   5.076 130.531  0.00  0.00    +0.000 A 
ATOM      2  C   UNL     1      -9.694   5.682 129.683  0.00  0.00    +0.000 A 
ATOM      3  C   UNL     1     -10.780   6.403 130.225  0.00  0.00    +0.000 A 
ATOM      4  C   UNL     1     -10.983   6.439 131.598  0.00  0.00    +0.000 A 
ATOM      5  C   UNL     1     -10.027   5.874 132.431  0.00  0.00    +0.000 A 
ATOM      6  C   UNL     1      -8.881   5.237 131.925  0.00  0.00    +0.000 A 
ENDROOT
BRANCH   1   8
ATOM      7  N   UNL     1      -6.318   4.590 130.523  0.00  0.00    +0.000 N 
ATOM      8  C   UNL     1      -7.543   4.445 129.875  0.00  0.00    +0.000 C 
ATOM      9  O   UNL     1      -7.672   3.909 128.786  0.00  0.00    +0.000 OA
ATOM     10  H   UNL     1      -6.311   5.026 131.434  0.00  0.00    +0.000 HD
BRANCH   7  11
ATOM     11  C   UNL     1      -5.058   4.534 129.765  0.00  0.00    +0.000 C 
BRANCH  11  16
ATOM     12  N   UNL     1      -3.466   6.299 130.346  0.00  0.00    +0.000 NA
ATOM     13  C   UNL     1      -2.124   6.400 129.808  0.00  0.00    +0.000 C 
ATOM     14  C   UNL     1      -2.338   6.695 128.342  0.00  0.00    +0.000 C 
ATOM     15  C   UNL     1      -3.591   5.890 128.050  0.00  0.00    +0.000 C 
ATOM     16  C   UNL     1      -4.445   5.910 129.336  0.00  0.00    +0.000 C 
BRANCH  12  18
ATOM     17  C   UNL     1      -2.860   8.090 132.003  0.00  0.00    +0.000 C 
ATOM     18  C   UNL     1      -3.889   7.107 131.465  0.00  0.00    +0.000 C 
ENDBRANCH  12  18
ENDBRANCH  11  16
ENDBRANCH   7  11
ENDBRANCH   1   8
BRANCH   3  19
ATOM     19  S   UNL     1     -11.801   7.390 129.142  0.00  0.00    +0.000 S 
ATOM     20  O   UNL     1     -12.592   6.449 128.380  0.00  0.00    +0.000 OA
ATOM     21  O   UNL     1     -12.418   8.399 129.984  0.00  0.00    +0.000 OA
BRANCH  19  22
ATOM     22  C   UNL     1     -10.719   8.230 127.986  0.00  0.00    +0.000 C 
ATOM     23  C   UNL     1     -10.912   7.707 126.573  0.00  0.00    +0.000 C 
ENDBRANCH  19  22
ENDBRANCH   3  19
BRANCH   6  24
ATOM     24  O   UNL     1      -8.051   4.933 132.967  0.00  0.00    +0.000 OA
ATOM     25  C   UNL     1      -8.550   4.167 134.028  0.00  0.00    +0.000 C 
ENDBRANCH   6  24
TORSDOF 7
ENDMDL
MODEL 9
REMARK VINA RESULT:      -6.3      1.680      2.399
REMARK  Name = Sultopride
REMARK  10 active torsions:
REMARK  status: ('A' for Active; 'I' for Inactive)
REMARK    1  A    between atoms: C_1  and  C_2
REMARK    2  A    between atoms: C_2  and  N_3
REMARK    3  A    between atoms: C_7  and  C_8
REMARK    4  A    between atoms: C_8  and  N_9
REMARK    5  A    between atoms: C_10  and  C_12
REMARK    6  A    between atoms: C_14  and  S_20
REMARK    7  A    between atoms: C_17  and  O_18
REMARK    8  A    between atoms: O_18  and  C_19
REMARK    9  A    between atoms: S_20  and  C_23
REMARK   10  A    between atoms: C_23  and  C_24
REMARK                            x       y       z     vdW  Elec       q    Type
REMARK                         _______ _______ _______ _____ _____    ______ ____
ROOT
ATOM      1  C   UNL     1      -8.953   5.382 130.602  0.00  0.00    +0.000 A 
ATOM      2  C   UNL     1      -9.885   5.757 129.605  0.00  0.00    +0.000 A 
ATOM      3  C   UNL     1     -11.118   6.348 129.959  0.00  0.00    +0.000 A 
ATOM      4  C   UNL     1     -11.479   6.472 131.293  0.00  0.00    +0.000 A 
ATOM      5  C   UNL     1     -10.553   6.135 132.271  0.00  0.00    +0.000 A 
ATOM      6  C   UNL     1      -9.278   5.641 131.951  0.00  0.00    +0.000 A 
ENDROOT
BRANCH   1   8
ATOM      7  N   UNL     1      -6.738   4.426 131.117  0.00  0.00    +0.000 N 
ATOM      8  C   UNL     1      -7.615   4.888 130.137  0.00  0.00    +0.000 C 
ATOM      9  O   UNL     1      -7.321   4.978 128.956  0.00  0.00    +0.000 OA
ATOM     10  H   UNL     1      -7.077   4.363 132.067  0.00  0.00    +0.000 HD
BRANCH   7  11
ATOM     11  C   UNL     1      -5.284   4.454 130.894  0.00  0.00    +0.000 C 
BRANCH  11  16
ATOM     12  N   UNL     1      -3.135   5.617 131.017  0.00  0.00    +0.000 NA
ATOM     13  C   UNL     1      -2.777   6.763 130.207  0.00  0.00    +0.000 C 
ATOM     14  C   UNL     1      -3.706   7.854 130.684  0.00  0.00    +0.000 C 
ATOM     15  C   UNL     1      -4.966   7.066 130.993  0.00  0.00    +0.000 C 
ATOM     16  C   UNL     1      -4.513   5.678 131.494  0.00  0.00    +0.000 C 
BRANCH  12  18
ATOM     17  C   UNL     1      -1.197   5.783 132.610  0.00  0.00    +0.000 C 
ATOM     18  C   UNL     1      -2.147   4.914 131.801  0.00  0.00    +0.000 C 
ENDBRANCH  12  18
ENDBRANCH  11  16
ENDBRANCH   7  11
ENDBRANCH   1   8
BRANCH   3  19
ATOM     19  S   UNL     1     -12.139   7.068 128.683  0.00  0.00    +0.000 S 
ATOM     20  O   UNL     1     -11.624   6.558 127.431  0.00  0.00    +0.000 OA
ATOM     21  O   UNL     1     -13.513   6.837 129.092  0.00  0.00    +0.000 OA
BRANCH  19  22
ATOM     22  C   UNL     1     -11.856   8.837 128.690  0.00  0.00    +0.000 C 
ATOM     23  C   UNL     1     -12.915   9.561 129.504  0.00  0.00    +0.000 C 
ENDBRANCH  19  22
ENDBRANCH   3  19
BRANCH   6  24
ATOM     24  O   UNL     1      -8.537   5.560 133.096  0.00  0.00    +0.000 OA
ATOM     25  C   UNL     1      -8.767   4.496 133.977  0.00  0.00    +0.000 C 
ENDBRANCH   6  24
TORSDOF 7
ENDMDL
