MODEL 1
REMARK VINA RESULT:      -9.6      0.000      0.000
REMARK  Name = Sultamicillin
REMARK  14 active torsions:
REMARK  status: ('A' for Active; 'I' for Inactive)
REMARK    1  A    between atoms: C_4  and  C_5
REMARK    2  A    between atoms: C_4  and  C_6
REMARK    3  A    between atoms: C_7  and  C_23
REMARK    4  A    between atoms: C_11  and  N_12
REMARK    5  A    between atoms: C_13  and  C_15
REMARK    6  A    between atoms: C_15  and  N_16
REMARK    7  A    between atoms: C_15  and  C_17
REMARK    8  A    between atoms: C_23  and  O_25
REMARK    9  A    between atoms: O_25  and  C_26
REMARK   10  A    between atoms: C_26  and  O_27
REMARK   11  A    between atoms: O_27  and  C_28
REMARK   12  A    between atoms: C_28  and  C_30
REMARK   13  A    between atoms: C_40  and  C_41
REMARK   14  A    between atoms: C_40  and  C_42
REMARK                            x       y       z     vdW  Elec       q    Type
REMARK                         _______ _______ _______ _____ _____    ______ ____
ROOT
ATOM      1  C   UNL     1      -7.579   3.982 131.484  0.00  0.00    +0.000 C 
ATOM      2  S   UNL     1      -8.678   2.955 132.511  0.00  0.00    +0.000 S 
ATOM      3  C   UNL     1      -8.015   1.404 131.713  0.00  0.00    +0.000 C 
ATOM      4  C   UNL     1      -9.082   0.326 131.915  0.00  0.00    +0.000 C 
ATOM      5  C   UNL     1      -6.727   1.040 132.471  0.00  0.00    +0.000 C 
ATOM      6  C   UNL     1      -7.792   1.799 130.215  0.00  0.00    +0.000 C 
ATOM      7  N   UNL     1      -7.401   3.222 130.224  0.00  0.00    +0.000 N 
ATOM      8  C   UNL     1      -8.119   4.133 129.483  0.00  0.00    +0.000 C 
ATOM      9  O   UNL     1      -8.582   4.025 128.373  0.00  0.00    +0.000 OA
ATOM     10  C   UNL     1      -8.210   5.128 130.682  0.00  0.00    +0.000 C 
ENDROOT
BRANCH  10  11
ATOM     11  N   UNL     1      -9.565   5.598 131.088  0.00  0.00    +0.000 N 
ATOM     12  C   UNL     1     -10.041   6.772 130.549  0.00  0.00    +0.000 C 
ATOM     13  O   UNL     1      -9.367   7.395 129.725  0.00  0.00    +0.000 OA
ATOM     14  H   UNL     1     -10.162   5.034 131.684  0.00  0.00    +0.000 HD
BRANCH  12  15
ATOM     15  C   UNL     1     -11.422   7.266 131.064  0.00  0.00    +0.000 C 
BRANCH  15  16
ATOM     16  C   UNL     1     -12.362   7.668 129.935  0.00  0.00    +0.000 A 
ATOM     17  C   UNL     1     -12.823   6.710 129.018  0.00  0.00    +0.000 A 
ATOM     18  C   UNL     1     -13.541   7.104 127.884  0.00  0.00    +0.000 A 
ATOM     19  C   UNL     1     -13.887   8.441 127.698  0.00  0.00    +0.000 A 
ATOM     20  C   UNL     1     -13.470   9.397 128.612  0.00  0.00    +0.000 A 
ATOM     21  C   UNL     1     -12.701   9.014 129.706  0.00  0.00    +0.000 A 
ENDBRANCH  15  16
BRANCH  15  22
ATOM     22  N   UNL     1     -12.026   6.177 131.858  0.00  0.00    +0.000 NA
ATOM     23  H   UNL     1     -11.921   6.437 132.844  0.00  0.00    +0.000 HD
ATOM     24  H   UNL     1     -11.475   5.329 131.742  0.00  0.00    +0.000 HD
ENDBRANCH  15  22
ENDBRANCH  12  15
ENDBRANCH  10  11
BRANCH   6  25
ATOM     25  C   UNL     1      -6.804   0.857 129.460  0.00  0.00    +0.000 C 
ATOM     26  O   UNL     1      -5.692   1.210 129.082  0.00  0.00    +0.000 OA
BRANCH  25  27
ATOM     27  O   UNL     1      -7.211  -0.440 129.320  0.00  0.00    +0.000 OA
BRANCH  27  28
ATOM     28  C   UNL     1      -6.094  -1.352 129.093  0.00  0.00    +0.000 C 
BRANCH  28  29
ATOM     29  O   UNL     1      -6.285  -2.113 127.878  0.00  0.00    +0.000 OA
BRANCH  29  30
ATOM     30  C   UNL     1      -5.946  -1.514 126.698  0.00  0.00    +0.000 C 
ATOM     31  O   UNL     1      -5.089  -0.646 126.611  0.00  0.00    +0.000 OA
BRANCH  30  32
ATOM     32  C   UNL     1      -6.764  -2.070 125.488  0.00  0.00    +0.000 C 
ATOM     33  N   UNL     1      -6.156  -1.681 124.189  0.00  0.00    +0.000 N 
ATOM     34  C   UNL     1      -5.476  -2.601 123.426  0.00  0.00    +0.000 C 
ATOM     35  O   UNL     1      -4.730  -3.493 123.735  0.00  0.00    +0.000 OA
ATOM     36  C   UNL     1      -6.200  -2.166 122.137  0.00  0.00    +0.000 C 
ATOM     37  C   UNL     1      -7.042  -1.283 123.053  0.00  0.00    +0.000 C 
ATOM     38  S   UNL     1      -8.631  -1.863 123.623  0.00  0.00    +0.000 S 
ATOM     39  O   UNL     1      -9.664  -0.927 123.225  0.00  0.00    +0.000 OA
ATOM     40  O   UNL     1      -8.781  -3.278 123.337  0.00  0.00    +0.000 OA
ATOM     41  C   UNL     1      -8.253  -1.643 125.413  0.00  0.00    +0.000 C 
ATOM     42  C   UNL     1      -9.170  -2.558 126.225  0.00  0.00    +0.000 C 
ATOM     43  C   UNL     1      -8.476  -0.161 125.766  0.00  0.00    +0.000 C 
ENDBRANCH  30  32
ENDBRANCH  29  30
ENDBRANCH  28  29
ENDBRANCH  27  28
ENDBRANCH  25  27
ENDBRANCH   6  25
TORSDOF 10
ENDMDL
MODEL 2
REMARK VINA RESULT:      -9.5      1.642      2.362
REMARK  Name = Sultamicillin
REMARK  14 active torsions:
REMARK  status: ('A' for Active; 'I' for Inactive)
REMARK    1  A    between atoms: C_4  and  C_5
REMARK    2  A    between atoms: C_4  and  C_6
REMARK    3  A    between atoms: C_7  and  C_23
REMARK    4  A    between atoms: C_11  and  N_12
REMARK    5  A    between atoms: C_13  and  C_15
REMARK    6  A    between atoms: C_15  and  N_16
REMARK    7  A    between atoms: C_15  and  C_17
REMARK    8  A    between atoms: C_23  and  O_25
REMARK    9  A    between atoms: O_25  and  C_26
REMARK   10  A    between atoms: C_26  and  O_27
REMARK   11  A    between atoms: O_27  and  C_28
REMARK   12  A    between atoms: C_28  and  C_30
REMARK   13  A    between atoms: C_40  and  C_41
REMARK   14  A    between atoms: C_40  and  C_42
REMARK                            x       y       z     vdW  Elec       q    Type
REMARK                         _______ _______ _______ _____ _____    ______ ____
ROOT
ATOM      1  C   UNL     1      -7.481   1.857 129.786  0.00  0.00    +0.000 C 
ATOM      2  S   UNL     1      -6.059   2.592 130.654  0.00  0.00    +0.000 S 
ATOM      3  C   UNL     1      -5.427   0.896 131.109  0.00  0.00    +0.000 C 
ATOM      4  C   UNL     1      -4.520   1.087 132.326  0.00  0.00    +0.000 C 
ATOM      5  C   UNL     1      -4.616   0.395 129.902  0.00  0.00    +0.000 C 
ATOM      6  C   UNL     1      -6.719   0.065 131.408  0.00  0.00    +0.000 C 
ATOM      7  N   UNL     1      -7.758   0.587 130.499  0.00  0.00    +0.000 N 
ATOM      8  C   UNL     1      -8.949   1.047 131.014  0.00  0.00    +0.000 C 
ATOM      9  O   UNL     1      -9.625   0.594 131.906  0.00  0.00    +0.000 OA
ATOM     10  C   UNL     1      -8.884   2.351 130.159  0.00  0.00    +0.000 C 
ENDROOT
BRANCH  10  11
ATOM     11  N   UNL     1      -8.994   3.653 130.878  0.00  0.00    +0.000 N 
ATOM     12  C   UNL     1     -10.122   4.418 130.679  0.00  0.00    +0.000 C 
ATOM     13  O   UNL     1     -11.028   4.012 129.947  0.00  0.00    +0.000 OA
ATOM     14  H   UNL     1      -8.300   3.940 131.559  0.00  0.00    +0.000 HD
BRANCH  12  15
ATOM     15  C   UNL     1     -10.156   5.804 131.382  0.00  0.00    +0.000 C 
BRANCH  15  16
ATOM     16  C   UNL     1     -10.749   6.897 130.501  0.00  0.00    +0.000 A 
ATOM     17  C   UNL     1     -12.077   7.314 130.683  0.00  0.00    +0.000 A 
ATOM     18  C   UNL     1     -12.675   8.187 129.768  0.00  0.00    +0.000 A 
ATOM     19  C   UNL     1     -11.933   8.726 128.718  0.00  0.00    +0.000 A 
ATOM     20  C   UNL     1     -10.609   8.352 128.544  0.00  0.00    +0.000 A 
ATOM     21  C   UNL     1     -10.033   7.434 129.416  0.00  0.00    +0.000 A 
ENDBRANCH  15  16
BRANCH  15  22
ATOM     22  N   UNL     1     -10.953   5.667 132.618  0.00  0.00    +0.000 NA
ATOM     23  H   UNL     1     -11.613   4.898 132.459  0.00  0.00    +0.000 HD
ATOM     24  H   UNL     1     -11.529   6.496 132.742  0.00  0.00    +0.000 HD
ENDBRANCH  15  22
ENDBRANCH  12  15
ENDBRANCH  10  11
BRANCH   6  25
ATOM     25  C   UNL     1      -6.502  -1.478 131.330  0.00  0.00    +0.000 C 
ATOM     26  O   UNL     1      -5.795  -2.101 132.115  0.00  0.00    +0.000 OA
BRANCH  25  27
ATOM     27  O   UNL     1      -7.231  -2.131 130.375  0.00  0.00    +0.000 OA
BRANCH  27  28
ATOM     28  C   UNL     1      -6.389  -2.702 129.328  0.00  0.00    +0.000 C 
BRANCH  28  29
ATOM     29  O   UNL     1      -7.065  -2.682 128.050  0.00  0.00    +0.000 OA
BRANCH  29  30
ATOM     30  C   UNL     1      -6.398  -2.137 126.991  0.00  0.00    +0.000 C 
ATOM     31  O   UNL     1      -5.368  -1.487 127.112  0.00  0.00    +0.000 OA
BRANCH  30  32
ATOM     32  C   UNL     1      -7.090  -2.446 125.624  0.00  0.00    +0.000 C 
ATOM     33  N   UNL     1      -6.320  -1.889 124.481  0.00  0.00    +0.000 N 
ATOM     34  C   UNL     1      -5.590  -2.712 123.655  0.00  0.00    +0.000 C 
ATOM     35  O   UNL     1      -4.919  -3.681 123.892  0.00  0.00    +0.000 OA
ATOM     36  C   UNL     1      -6.143  -2.036 122.385  0.00  0.00    +0.000 C 
ATOM     37  C   UNL     1      -7.052  -1.266 123.337  0.00  0.00    +0.000 C 
ATOM     38  S   UNL     1      -8.717  -1.841 123.627  0.00  0.00    +0.000 S 
ATOM     39  O   UNL     1      -9.661  -0.797 123.278  0.00  0.00    +0.000 OA
ATOM     40  O   UNL     1      -8.885  -3.181 123.096  0.00  0.00    +0.000 OA
ATOM     41  C   UNL     1      -8.543  -1.930 125.459  0.00  0.00    +0.000 C 
ATOM     42  C   UNL     1      -9.581  -2.911 126.004  0.00  0.00    +0.000 C 
ATOM     43  C   UNL     1      -8.750  -0.514 126.025  0.00  0.00    +0.000 C 
ENDBRANCH  30  32
ENDBRANCH  29  30
ENDBRANCH  28  29
ENDBRANCH  27  28
ENDBRANCH  25  27
ENDBRANCH   6  25
TORSDOF 10
ENDMDL
MODEL 3
REMARK VINA RESULT:      -9.2      3.558      8.704
REMARK  Name = Sultamicillin
REMARK  14 active torsions:
REMARK  status: ('A' for Active; 'I' for Inactive)
REMARK    1  A    between atoms: C_4  and  C_5
REMARK    2  A    between atoms: C_4  and  C_6
REMARK    3  A    between atoms: C_7  and  C_23
REMARK    4  A    between atoms: C_11  and  N_12
REMARK    5  A    between atoms: C_13  and  C_15
REMARK    6  A    between atoms: C_15  and  N_16
REMARK    7  A    between atoms: C_15  and  C_17
REMARK    8  A    between atoms: C_23  and  O_25
REMARK    9  A    between atoms: O_25  and  C_26
REMARK   10  A    between atoms: C_26  and  O_27
REMARK   11  A    between atoms: O_27  and  C_28
REMARK   12  A    between atoms: C_28  and  C_30
REMARK   13  A    between atoms: C_40  and  C_41
REMARK   14  A    between atoms: C_40  and  C_42
REMARK                            x       y       z     vdW  Elec       q    Type
REMARK                         _______ _______ _______ _____ _____    ______ ____
ROOT
ATOM      1  C   UNL     1      -6.175   3.198 126.973  0.00  0.00    +0.000 C 
ATOM      2  S   UNL     1      -4.823   2.076 126.492  0.00  0.00    +0.000 S 
ATOM      3  C   UNL     1      -3.562   3.246 127.216  0.00  0.00    +0.000 C 
ATOM      4  C   UNL     1      -2.233   2.925 126.530  0.00  0.00    +0.000 C 
ATOM      5  C   UNL     1      -3.485   2.927 128.720  0.00  0.00    +0.000 C 
ATOM      6  C   UNL     1      -4.115   4.672 126.887  0.00  0.00    +0.000 C 
ATOM      7  N   UNL     1      -5.586   4.558 126.933  0.00  0.00    +0.000 N 
ATOM      8  C   UNL     1      -6.335   4.933 125.841  0.00  0.00    +0.000 C 
ATOM      9  O   UNL     1      -6.197   5.879 125.104  0.00  0.00    +0.000 OA
ATOM     10  C   UNL     1      -7.177   3.620 125.892  0.00  0.00    +0.000 C 
ENDROOT
BRANCH  10  11
ATOM     11  N   UNL     1      -7.248   2.797 124.651  0.00  0.00    +0.000 N 
ATOM     12  C   UNL     1      -8.412   2.110 124.384  0.00  0.00    +0.000 C 
ATOM     13  O   UNL     1      -9.378   2.206 125.145  0.00  0.00    +0.000 OA
ATOM     14  H   UNL     1      -6.494   2.800 123.972  0.00  0.00    +0.000 HD
BRANCH  12  15
ATOM     15  C   UNL     1      -8.411   1.200 123.124  0.00  0.00    +0.000 C 
BRANCH  15  16
ATOM     16  C   UNL     1      -8.107  -0.256 123.450  0.00  0.00    +0.000 A 
ATOM     17  C   UNL     1      -6.832  -0.632 123.901  0.00  0.00    +0.000 A 
ATOM     18  C   UNL     1      -6.498  -1.984 124.032  0.00  0.00    +0.000 A 
ATOM     19  C   UNL     1      -7.455  -2.972 123.806  0.00  0.00    +0.000 A 
ATOM     20  C   UNL     1      -8.731  -2.617 123.393  0.00  0.00    +0.000 A 
ATOM     21  C   UNL     1      -9.043  -1.276 123.200  0.00  0.00    +0.000 A 
ENDBRANCH  15  16
BRANCH  15  22
ATOM     22  N   UNL     1      -9.739   1.307 122.487  0.00  0.00    +0.000 NA
ATOM     23  H   UNL     1      -9.801   0.545 121.804  0.00  0.00    +0.000 HD
ATOM     24  H   UNL     1      -9.783   2.164 121.939  0.00  0.00    +0.000 HD
ENDBRANCH  15  22
ENDBRANCH  12  15
ENDBRANCH  10  11
BRANCH   6  25
ATOM     25  C   UNL     1      -3.521   5.798 127.790  0.00  0.00    +0.000 C 
ATOM     26  O   UNL     1      -2.318   5.997 127.916  0.00  0.00    +0.000 OA
BRANCH  25  27
ATOM     27  O   UNL     1      -4.434   6.630 128.375  0.00  0.00    +0.000 OA
BRANCH  27  28
ATOM     28  C   UNL     1      -4.727   6.251 129.754  0.00  0.00    +0.000 C 
BRANCH  28  29
ATOM     29  O   UNL     1      -6.067   5.721 129.872  0.00  0.00    +0.000 OA
BRANCH  29  30
ATOM     30  C   UNL     1      -6.638   5.718 131.112  0.00  0.00    +0.000 C 
ATOM     31  O   UNL     1      -6.351   6.530 131.982  0.00  0.00    +0.000 OA
BRANCH  30  32
ATOM     32  C   UNL     1      -7.696   4.580 131.283  0.00  0.00    +0.000 C 
ATOM     33  N   UNL     1      -7.575   3.554 130.216  0.00  0.00    +0.000 N 
ATOM     34  C   UNL     1      -7.033   2.318 130.485  0.00  0.00    +0.000 C 
ATOM     35  O   UNL     1      -6.108   1.992 131.181  0.00  0.00    +0.000 OA
ATOM     36  C   UNL     1      -8.170   1.586 129.746  0.00  0.00    +0.000 C 
ATOM     37  C   UNL     1      -8.812   2.963 129.621  0.00  0.00    +0.000 C 
ATOM     38  S   UNL     1     -10.051   3.472 130.801  0.00  0.00    +0.000 S 
ATOM     39  O   UNL     1     -11.280   3.803 130.106  0.00  0.00    +0.000 OA
ATOM     40  O   UNL     1     -10.074   2.560 131.930  0.00  0.00    +0.000 OA
ATOM     41  C   UNL     1      -9.182   5.022 131.291  0.00  0.00    +0.000 C 
ATOM     42  C   UNL     1      -9.666   5.438 132.680  0.00  0.00    +0.000 C 
ATOM     43  C   UNL     1      -9.500   6.098 130.236  0.00  0.00    +0.000 C 
ENDBRANCH  30  32
ENDBRANCH  29  30
ENDBRANCH  28  29
ENDBRANCH  27  28
ENDBRANCH  25  27
ENDBRANCH   6  25
TORSDOF 10
ENDMDL
MODEL 4
REMARK VINA RESULT:      -9.2      1.929      2.995
REMARK  Name = Sultamicillin
REMARK  14 active torsions:
REMARK  status: ('A' for Active; 'I' for Inactive)
REMARK    1  A    between atoms: C_4  and  C_5
REMARK    2  A    between atoms: C_4  and  C_6
REMARK    3  A    between atoms: C_7  and  C_23
REMARK    4  A    between atoms: C_11  and  N_12
REMARK    5  A    between atoms: C_13  and  C_15
REMARK    6  A    between atoms: C_15  and  N_16
REMARK    7  A    between atoms: C_15  and  C_17
REMARK    8  A    between atoms: C_23  and  O_25
REMARK    9  A    between atoms: O_25  and  C_26
REMARK   10  A    between atoms: C_26  and  O_27
REMARK   11  A    between atoms: O_27  and  C_28
REMARK   12  A    between atoms: C_28  and  C_30
REMARK   13  A    between atoms: C_40  and  C_41
REMARK   14  A    between atoms: C_40  and  C_42
REMARK                            x       y       z     vdW  Elec       q    Type
REMARK                         _______ _______ _______ _____ _____    ______ ____
ROOT
ATOM      1  C   UNL     1      -7.625   1.934 129.785  0.00  0.00    +0.000 C 
ATOM      2  S   UNL     1      -6.188   2.732 130.570  0.00  0.00    +0.000 S 
ATOM      3  C   UNL     1      -5.552   1.075 131.146  0.00  0.00    +0.000 C 
ATOM      4  C   UNL     1      -4.625   1.357 132.330  0.00  0.00    +0.000 C 
ATOM      5  C   UNL     1      -4.761   0.479 129.969  0.00  0.00    +0.000 C 
ATOM      6  C   UNL     1      -6.840   0.272 131.529  0.00  0.00    +0.000 C 
ATOM      7  N   UNL     1      -7.893   0.724 130.599  0.00  0.00    +0.000 N 
ATOM      8  C   UNL     1      -9.074   1.227 131.095  0.00  0.00    +0.000 C 
ATOM      9  O   UNL     1      -9.737   0.846 132.030  0.00  0.00    +0.000 OA
ATOM     10  C   UNL     1      -9.021   2.460 130.140  0.00  0.00    +0.000 C 
ENDROOT
BRANCH  10  11
ATOM     11  N   UNL     1      -9.119   3.814 130.756  0.00  0.00    +0.000 N 
ATOM     12  C   UNL     1     -10.305   4.504 130.640  0.00  0.00    +0.000 C 
ATOM     13  O   UNL     1     -11.268   3.991 130.066  0.00  0.00    +0.000 OA
ATOM     14  H   UNL     1      -8.364   4.194 131.317  0.00  0.00    +0.000 HD
BRANCH  12  15
ATOM     15  C   UNL     1     -10.334   5.944 131.225  0.00  0.00    +0.000 C 
BRANCH  15  16
ATOM     16  C   UNL     1     -11.013   6.943 130.297  0.00  0.00    +0.000 A 
ATOM     17  C   UNL     1     -10.335   7.445 129.175  0.00  0.00    +0.000 A 
ATOM     18  C   UNL     1     -10.887   8.488 128.423  0.00  0.00    +0.000 A 
ATOM     19  C   UNL     1     -12.157   8.978 128.723  0.00  0.00    +0.000 A 
ATOM     20  C   UNL     1     -12.856   8.469 129.807  0.00  0.00    +0.000 A 
ATOM     21  C   UNL     1     -12.280   7.477 130.593  0.00  0.00    +0.000 A 
ENDBRANCH  15  16
BRANCH  15  22
ATOM     22  N   UNL     1     -11.044   5.894 132.518  0.00  0.00    +0.000 NA
ATOM     23  H   UNL     1     -10.507   6.472 133.173  0.00  0.00    +0.000 HD
ATOM     24  H   UNL     1     -10.999   4.949 132.892  0.00  0.00    +0.000 HD
ENDBRANCH  15  22
ENDBRANCH  12  15
ENDBRANCH  10  11
BRANCH   6  25
ATOM     25  C   UNL     1      -6.626  -1.273 131.568  0.00  0.00    +0.000 C 
ATOM     26  O   UNL     1      -5.799  -1.822 132.288  0.00  0.00    +0.000 OA
BRANCH  25  27
ATOM     27  O   UNL     1      -7.492  -2.009 130.809  0.00  0.00    +0.000 OA
BRANCH  27  28
ATOM     28  C   UNL     1      -6.840  -2.614 129.651  0.00  0.00    +0.000 C 
BRANCH  28  29
ATOM     29  O   UNL     1      -7.155  -1.889 128.441  0.00  0.00    +0.000 OA
BRANCH  29  30
ATOM     30  C   UNL     1      -6.310  -2.035 127.378  0.00  0.00    +0.000 C 
ATOM     31  O   UNL     1      -5.216  -2.577 127.464  0.00  0.00    +0.000 OA
BRANCH  30  32
ATOM     32  C   UNL     1      -6.901  -1.446 126.057  0.00  0.00    +0.000 C 
ATOM     33  N   UNL     1      -7.976  -0.457 126.329  0.00  0.00    +0.000 N 
ATOM     34  C   UNL     1      -7.752   0.890 126.163  0.00  0.00    +0.000 C 
ATOM     35  O   UNL     1      -6.790   1.570 126.406  0.00  0.00    +0.000 OA
ATOM     36  C   UNL     1      -9.074   1.083 125.396  0.00  0.00    +0.000 C 
ATOM     37  C   UNL     1      -9.192  -0.437 125.460  0.00  0.00    +0.000 C 
ATOM     38  S   UNL     1      -8.655  -1.425 124.075  0.00  0.00    +0.000 S 
ATOM     39  O   UNL     1      -9.758  -2.236 123.597  0.00  0.00    +0.000 OA
ATOM     40  O   UNL     1      -7.891  -0.613 123.145  0.00  0.00    +0.000 OA
ATOM     41  C   UNL     1      -7.499  -2.471 125.058  0.00  0.00    +0.000 C 
ATOM     42  C   UNL     1      -6.447  -3.059 124.117  0.00  0.00    +0.000 C 
ATOM     43  C   UNL     1      -8.325  -3.574 125.744  0.00  0.00    +0.000 C 
ENDBRANCH  30  32
ENDBRANCH  29  30
ENDBRANCH  28  29
ENDBRANCH  27  28
ENDBRANCH  25  27
ENDBRANCH   6  25
TORSDOF 10
ENDMDL
MODEL 5
REMARK VINA RESULT:      -9.2      3.569      9.110
REMARK  Name = Sultamicillin
REMARK  14 active torsions:
REMARK  status: ('A' for Active; 'I' for Inactive)
REMARK    1  A    between atoms: C_4  and  C_5
REMARK    2  A    between atoms: C_4  and  C_6
REMARK    3  A    between atoms: C_7  and  C_23
REMARK    4  A    between atoms: C_11  and  N_12
REMARK    5  A    between atoms: C_13  and  C_15
REMARK    6  A    between atoms: C_15  and  N_16
REMARK    7  A    between atoms: C_15  and  C_17
REMARK    8  A    between atoms: C_23  and  O_25
REMARK    9  A    between atoms: O_25  and  C_26
REMARK   10  A    between atoms: C_26  and  O_27
REMARK   11  A    between atoms: O_27  and  C_28
REMARK   12  A    between atoms: C_28  and  C_30
REMARK   13  A    between atoms: C_40  and  C_41
REMARK   14  A    between atoms: C_40  and  C_42
REMARK                            x       y       z     vdW  Elec       q    Type
REMARK                         _______ _______ _______ _____ _____    ______ ____
ROOT
ATOM      1  C   UNL     1      -6.145   3.185 127.153  0.00  0.00    +0.000 C 
ATOM      2  S   UNL     1      -4.749   2.084 126.761  0.00  0.00    +0.000 S 
ATOM      3  C   UNL     1      -3.539   3.345 127.415  0.00  0.00    +0.000 C 
ATOM      4  C   UNL     1      -2.192   3.028 126.763  0.00  0.00    +0.000 C 
ATOM      5  C   UNL     1      -3.467   3.132 128.937  0.00  0.00    +0.000 C 
ATOM      6  C   UNL     1      -4.139   4.725 126.985  0.00  0.00    +0.000 C 
ATOM      7  N   UNL     1      -5.605   4.560 127.026  0.00  0.00    +0.000 N 
ATOM      8  C   UNL     1      -6.356   4.833 125.904  0.00  0.00    +0.000 C 
ATOM      9  O   UNL     1      -6.244   5.732 125.106  0.00  0.00    +0.000 OA
ATOM     10  C   UNL     1      -7.151   3.496 126.037  0.00  0.00    +0.000 C 
ENDROOT
BRANCH  10  11
ATOM     11  N   UNL     1      -7.178   2.589 124.854  0.00  0.00    +0.000 N 
ATOM     12  C   UNL     1      -8.374   2.001 124.507  0.00  0.00    +0.000 C 
ATOM     13  O   UNL     1      -9.398   2.250 125.147  0.00  0.00    +0.000 OA
ATOM     14  H   UNL     1      -6.362   2.466 124.265  0.00  0.00    +0.000 HD
BRANCH  12  15
ATOM     15  C   UNL     1      -8.338   0.999 123.318  0.00  0.00    +0.000 C 
BRANCH  15  16
ATOM     16  C   UNL     1      -7.743  -0.350 123.703  0.00  0.00    +0.000 A 
ATOM     17  C   UNL     1      -8.147  -0.993 124.883  0.00  0.00    +0.000 A 
ATOM     18  C   UNL     1      -7.480  -2.140 125.327  0.00  0.00    +0.000 A 
ATOM     19  C   UNL     1      -6.468  -2.711 124.556  0.00  0.00    +0.000 A 
ATOM     20  C   UNL     1      -6.080  -2.107 123.369  0.00  0.00    +0.000 A 
ATOM     21  C   UNL     1      -6.699  -0.931 122.961  0.00  0.00    +0.000 A 
ENDBRANCH  15  16
BRANCH  15  22
ATOM     22  N   UNL     1      -9.722   0.820 122.834  0.00  0.00    +0.000 NA
ATOM     23  H   UNL     1      -9.752  -0.088 122.358  0.00  0.00    +0.000 HD
ATOM     24  H   UNL     1      -9.919   1.511 122.114  0.00  0.00    +0.000 HD
ENDBRANCH  15  22
ENDBRANCH  12  15
ENDBRANCH  10  11
BRANCH   6  25
ATOM     25  C   UNL     1      -3.597   5.930 127.814  0.00  0.00    +0.000 C 
ATOM     26  O   UNL     1      -2.435   6.319 127.758  0.00  0.00    +0.000 OA
BRANCH  25  27
ATOM     27  O   UNL     1      -4.526   6.604 128.556  0.00  0.00    +0.000 OA
BRANCH  27  28
ATOM     28  C   UNL     1      -4.157   6.689 129.965  0.00  0.00    +0.000 C 
BRANCH  28  29
ATOM     29  O   UNL     1      -5.051   5.902 130.784  0.00  0.00    +0.000 OA
BRANCH  29  30
ATOM     30  C   UNL     1      -6.363   6.281 130.830  0.00  0.00    +0.000 C 
ATOM     31  O   UNL     1      -6.721   7.451 130.827  0.00  0.00    +0.000 OA
BRANCH  30  32
ATOM     32  C   UNL     1      -7.338   5.060 130.875  0.00  0.00    +0.000 C 
ATOM     33  N   UNL     1      -8.755   5.485 130.738  0.00  0.00    +0.000 N 
ATOM     34  C   UNL     1      -9.445   5.272 129.567  0.00  0.00    +0.000 C 
ATOM     35  O   UNL     1      -9.101   5.356 128.418  0.00  0.00    +0.000 OA
ATOM     36  C   UNL     1     -10.673   4.716 130.314  0.00  0.00    +0.000 C 
ATOM     37  C   UNL     1      -9.805   4.815 131.564  0.00  0.00    +0.000 C 
ATOM     38  S   UNL     1      -8.930   3.373 132.149  0.00  0.00    +0.000 S 
ATOM     39  O   UNL     1      -9.327   3.080 133.512  0.00  0.00    +0.000 OA
ATOM     40  O   UNL     1      -8.955   2.328 131.142  0.00  0.00    +0.000 OA
ATOM     41  C   UNL     1      -7.272   4.177 132.147  0.00  0.00    +0.000 C 
ATOM     42  C   UNL     1      -6.199   3.091 132.055  0.00  0.00    +0.000 C 
ATOM     43  C   UNL     1      -7.140   4.994 133.445  0.00  0.00    +0.000 C 
ENDBRANCH  30  32
ENDBRANCH  29  30
ENDBRANCH  28  29
ENDBRANCH  27  28
ENDBRANCH  25  27
ENDBRANCH   6  25
TORSDOF 10
ENDMDL
MODEL 6
REMARK VINA RESULT:      -9.1      1.412      2.295
REMARK  Name = Sultamicillin
REMARK  14 active torsions:
REMARK  status: ('A' for Active; 'I' for Inactive)
REMARK    1  A    between atoms: C_4  and  C_5
REMARK    2  A    between atoms: C_4  and  C_6
REMARK    3  A    between atoms: C_7  and  C_23
REMARK    4  A    between atoms: C_11  and  N_12
REMARK    5  A    between atoms: C_13  and  C_15
REMARK    6  A    between atoms: C_15  and  N_16
REMARK    7  A    between atoms: C_15  and  C_17
REMARK    8  A    between atoms: C_23  and  O_25
REMARK    9  A    between atoms: O_25  and  C_26
REMARK   10  A    between atoms: C_26  and  O_27
REMARK   11  A    between atoms: O_27  and  C_28
REMARK   12  A    between atoms: C_28  and  C_30
REMARK   13  A    between atoms: C_40  and  C_41
REMARK   14  A    between atoms: C_40  and  C_42
REMARK                            x       y       z     vdW  Elec       q    Type
REMARK                         _______ _______ _______ _____ _____    ______ ____
ROOT
ATOM      1  C   UNL     1      -7.519   3.997 131.609  0.00  0.00    +0.000 C 
ATOM      2  S   UNL     1      -8.607   2.941 132.618  0.00  0.00    +0.000 S 
ATOM      3  C   UNL     1      -7.865   1.407 131.857  0.00  0.00    +0.000 C 
ATOM      4  C   UNL     1      -8.896   0.292 132.043  0.00  0.00    +0.000 C 
ATOM      5  C   UNL     1      -6.586   1.099 132.654  0.00  0.00    +0.000 C 
ATOM      6  C   UNL     1      -7.615   1.793 130.361  0.00  0.00    +0.000 C 
ATOM      7  N   UNL     1      -7.277   3.230 130.363  0.00  0.00    +0.000 N 
ATOM      8  C   UNL     1      -8.008   4.106 129.592  0.00  0.00    +0.000 C 
ATOM      9  O   UNL     1      -8.435   3.968 128.472  0.00  0.00    +0.000 OA
ATOM     10  C   UNL     1      -8.168   5.109 130.777  0.00  0.00    +0.000 C 
ENDROOT
BRANCH  10  11
ATOM     11  N   UNL     1      -9.551   5.533 131.140  0.00  0.00    +0.000 N 
ATOM     12  C   UNL     1     -10.022   6.728 130.645  0.00  0.00    +0.000 C 
ATOM     13  O   UNL     1      -9.320   7.410 129.894  0.00  0.00    +0.000 OA
ATOM     14  H   UNL     1     -10.166   4.926 131.671  0.00  0.00    +0.000 HD
BRANCH  12  15
ATOM     15  C   UNL     1     -11.436   7.169 131.117  0.00  0.00    +0.000 C 
BRANCH  15  16
ATOM     16  C   UNL     1     -12.353   7.543 129.960  0.00  0.00    +0.000 A 
ATOM     17  C   UNL     1     -12.842   6.553 129.093  0.00  0.00    +0.000 A 
ATOM     18  C   UNL     1     -13.537   6.910 127.933  0.00  0.00    +0.000 A 
ATOM     19  C   UNL     1     -13.835   8.247 127.671  0.00  0.00    +0.000 A 
ATOM     20  C   UNL     1     -13.389   9.235 128.536  0.00  0.00    +0.000 A 
ATOM     21  C   UNL     1     -12.642   8.885 129.655  0.00  0.00    +0.000 A 
ENDBRANCH  15  16
BRANCH  15  22
ATOM     22  N   UNL     1     -12.025   6.055 131.887  0.00  0.00    +0.000 NA
ATOM     23  H   UNL     1     -12.640   5.544 131.245  0.00  0.00    +0.000 HD
ATOM     24  H   UNL     1     -12.638   6.429 132.608  0.00  0.00    +0.000 HD
ENDBRANCH  15  22
ENDBRANCH  12  15
ENDBRANCH  10  11
BRANCH   6  25
ATOM     25  C   UNL     1      -6.572   0.881 129.644  0.00  0.00    +0.000 C 
ATOM     26  O   UNL     1      -5.458   1.266 129.307  0.00  0.00    +0.000 OA
BRANCH  25  27
ATOM     27  O   UNL     1      -6.936  -0.428 129.490  0.00  0.00    +0.000 OA
BRANCH  27  28
ATOM     28  C   UNL     1      -7.462  -0.704 128.157  0.00  0.00    +0.000 C 
BRANCH  28  29
ATOM     29  O   UNL     1      -8.027  -2.033 128.088  0.00  0.00    +0.000 OA
BRANCH  29  30
ATOM     30  C   UNL     1      -8.512  -2.452 126.882  0.00  0.00    +0.000 C 
ATOM     31  O   UNL     1      -9.270  -3.405 126.761  0.00  0.00    +0.000 OA
BRANCH  30  32
ATOM     32  C   UNL     1      -8.001  -1.575 125.693  0.00  0.00    +0.000 C 
ATOM     33  N   UNL     1      -9.125  -1.063 124.866  0.00  0.00    +0.000 N 
ATOM     34  C   UNL     1      -9.507   0.256 124.936  0.00  0.00    +0.000 C 
ATOM     35  O   UNL     1      -9.588   1.011 125.869  0.00  0.00    +0.000 OA
ATOM     36  C   UNL     1      -9.566   0.389 123.402  0.00  0.00    +0.000 C 
ATOM     37  C   UNL     1      -8.981  -1.020 123.379  0.00  0.00    +0.000 C 
ATOM     38  S   UNL     1      -7.221  -1.244 123.186  0.00  0.00    +0.000 S 
ATOM     39  O   UNL     1      -6.959  -2.062 122.018  0.00  0.00    +0.000 OA
ATOM     40  O   UNL     1      -6.532   0.022 123.360  0.00  0.00    +0.000 OA
ATOM     41  C   UNL     1      -7.018  -2.260 124.710  0.00  0.00    +0.000 C 
ATOM     42  C   UNL     1      -5.563  -2.167 125.172  0.00  0.00    +0.000 C 
ATOM     43  C   UNL     1      -7.412  -3.709 124.370  0.00  0.00    +0.000 C 
ENDBRANCH  30  32
ENDBRANCH  29  30
ENDBRANCH  28  29
ENDBRANCH  27  28
ENDBRANCH  25  27
ENDBRANCH   6  25
TORSDOF 10
ENDMDL
MODEL 7
REMARK VINA RESULT:      -9.1      5.753      8.446
REMARK  Name = Sultamicillin
REMARK  14 active torsions:
REMARK  status: ('A' for Active; 'I' for Inactive)
REMARK    1  A    between atoms: C_4  and  C_5
REMARK    2  A    between atoms: C_4  and  C_6
REMARK    3  A    between atoms: C_7  and  C_23
REMARK    4  A    between atoms: C_11  and  N_12
REMARK    5  A    between atoms: C_13  and  C_15
REMARK    6  A    between atoms: C_15  and  N_16
REMARK    7  A    between atoms: C_15  and  C_17
REMARK    8  A    between atoms: C_23  and  O_25
REMARK    9  A    between atoms: O_25  and  C_26
REMARK   10  A    between atoms: C_26  and  O_27
REMARK   11  A    between atoms: O_27  and  C_28
REMARK   12  A    between atoms: C_28  and  C_30
REMARK   13  A    between atoms: C_40  and  C_41
REMARK   14  A    between atoms: C_40  and  C_42
REMARK                            x       y       z     vdW  Elec       q    Type
REMARK                         _______ _______ _______ _____ _____    ______ ____
ROOT
ATOM      1  C   UNL     1      -8.779  -0.355 123.677  0.00  0.00    +0.000 C 
ATOM      2  S   UNL     1      -7.441  -1.355 122.952  0.00  0.00    +0.000 S 
ATOM      3  C   UNL     1      -7.754  -2.717 124.189  0.00  0.00    +0.000 C 
ATOM      4  C   UNL     1      -6.462  -3.532 124.269  0.00  0.00    +0.000 C 
ATOM      5  C   UNL     1      -8.898  -3.571 123.617  0.00  0.00    +0.000 C 
ATOM      6  C   UNL     1      -8.110  -1.967 125.516  0.00  0.00    +0.000 C 
ATOM      7  N   UNL     1      -8.819  -0.737 125.110  0.00  0.00    +0.000 N 
ATOM      8  C   UNL     1      -8.354   0.490 125.527  0.00  0.00    +0.000 C 
ATOM      9  O   UNL     1      -7.916   0.818 126.603  0.00  0.00    +0.000 OA
ATOM     10  C   UNL     1      -8.457   1.086 124.089  0.00  0.00    +0.000 C 
ENDROOT
BRANCH  10  11
ATOM     11  N   UNL     1      -7.233   1.716 123.515  0.00  0.00    +0.000 N 
ATOM     12  C   UNL     1      -7.201   3.087 123.383  0.00  0.00    +0.000 C 
ATOM     13  O   UNL     1      -8.155   3.770 123.765  0.00  0.00    +0.000 OA
ATOM     14  H   UNL     1      -6.409   1.166 123.298  0.00  0.00    +0.000 HD
BRANCH  12  15
ATOM     15  C   UNL     1      -5.941   3.692 122.704  0.00  0.00    +0.000 C 
BRANCH  15  16
ATOM     16  C   UNL     1      -6.184   4.077 121.250  0.00  0.00    +0.000 A 
ATOM     17  C   UNL     1      -5.228   4.824 120.544  0.00  0.00    +0.000 A 
ATOM     18  C   UNL     1      -5.522   5.326 119.272  0.00  0.00    +0.000 A 
ATOM     19  C   UNL     1      -6.731   5.013 118.651  0.00  0.00    +0.000 A 
ATOM     20  C   UNL     1      -7.673   4.246 119.321  0.00  0.00    +0.000 A 
ATOM     21  C   UNL     1      -7.407   3.801 120.611  0.00  0.00    +0.000 A 
ENDBRANCH  15  16
BRANCH  15  22
ATOM     22  N   UNL     1      -5.535   4.882 123.479  0.00  0.00    +0.000 NA
ATOM     23  H   UNL     1      -6.085   5.670 123.120  0.00  0.00    +0.000 HD
ATOM     24  H   UNL     1      -4.567   5.109 123.265  0.00  0.00    +0.000 HD
ENDBRANCH  15  22
ENDBRANCH  12  15
ENDBRANCH  10  11
BRANCH   6  25
ATOM     25  C   UNL     1      -8.880  -2.849 126.547  0.00  0.00    +0.000 C 
ATOM     26  O   UNL     1     -10.013  -3.276 126.356  0.00  0.00    +0.000 OA
BRANCH  25  27
ATOM     27  O   UNL     1      -8.175  -3.209 127.661  0.00  0.00    +0.000 OA
BRANCH  27  28
ATOM     28  C   UNL     1      -8.302  -2.232 128.738  0.00  0.00    +0.000 C 
BRANCH  28  29
ATOM     29  O   UNL     1      -7.991  -2.827 130.019  0.00  0.00    +0.000 OA
BRANCH  29  30
ATOM     30  C   UNL     1      -7.466  -2.015 130.983  0.00  0.00    +0.000 C 
ATOM     31  O   UNL     1      -8.146  -1.259 131.663  0.00  0.00    +0.000 OA
BRANCH  30  32
ATOM     32  C   UNL     1      -5.917  -2.172 131.120  0.00  0.00    +0.000 C 
ATOM     33  N   UNL     1      -5.365  -3.086 130.087  0.00  0.00    +0.000 N 
ATOM     34  C   UNL     1      -4.652  -2.594 129.018  0.00  0.00    +0.000 C 
ATOM     35  O   UNL     1      -4.809  -1.608 128.347  0.00  0.00    +0.000 OA
ATOM     36  C   UNL     1      -3.541  -3.648 129.188  0.00  0.00    +0.000 C 
ATOM     37  C   UNL     1      -4.282  -4.047 130.460  0.00  0.00    +0.000 C 
ATOM     38  S   UNL     1      -3.753  -3.390 132.034  0.00  0.00    +0.000 S 
ATOM     39  O   UNL     1      -3.422  -4.480 132.931  0.00  0.00    +0.000 OA
ATOM     40  O   UNL     1      -2.814  -2.301 131.833  0.00  0.00    +0.000 OA
ATOM     41  C   UNL     1      -5.400  -2.697 132.484  0.00  0.00    +0.000 C 
ATOM     42  C   UNL     1      -5.200  -1.579 133.507  0.00  0.00    +0.000 C 
ATOM     43  C   UNL     1      -6.256  -3.842 133.056  0.00  0.00    +0.000 C 
ENDBRANCH  30  32
ENDBRANCH  29  30
ENDBRANCH  28  29
ENDBRANCH  27  28
ENDBRANCH  25  27
ENDBRANCH   6  25
TORSDOF 10
ENDMDL
MODEL 8
REMARK VINA RESULT:      -9.0      5.176      8.485
REMARK  Name = Sultamicillin
REMARK  14 active torsions:
REMARK  status: ('A' for Active; 'I' for Inactive)
REMARK    1  A    between atoms: C_4  and  C_5
REMARK    2  A    between atoms: C_4  and  C_6
REMARK    3  A    between atoms: C_7  and  C_23
REMARK    4  A    between atoms: C_11  and  N_12
REMARK    5  A    between atoms: C_13  and  C_15
REMARK    6  A    between atoms: C_15  and  N_16
REMARK    7  A    between atoms: C_15  and  C_17
REMARK    8  A    between atoms: C_23  and  O_25
REMARK    9  A    between atoms: O_25  and  C_26
REMARK   10  A    between atoms: C_26  and  O_27
REMARK   11  A    between atoms: O_27  and  C_28
REMARK   12  A    between atoms: C_28  and  C_30
REMARK   13  A    between atoms: C_40  and  C_41
REMARK   14  A    between atoms: C_40  and  C_42
REMARK                            x       y       z     vdW  Elec       q    Type
REMARK                         _______ _______ _______ _____ _____    ______ ____
ROOT
ATOM      1  C   UNL     1      -8.317  -0.571 123.591  0.00  0.00    +0.000 C 
ATOM      2  S   UNL     1      -6.777  -1.435 123.145  0.00  0.00    +0.000 S 
ATOM      3  C   UNL     1      -7.029  -2.653 124.536  0.00  0.00    +0.000 C 
ATOM      4  C   UNL     1      -5.651  -3.237 124.852  0.00  0.00    +0.000 C 
ATOM      5  C   UNL     1      -7.969  -3.744 123.996  0.00  0.00    +0.000 C 
ATOM      6  C   UNL     1      -7.635  -1.799 125.700  0.00  0.00    +0.000 C 
ATOM      7  N   UNL     1      -8.462  -0.761 125.054  0.00  0.00    +0.000 N 
ATOM      8  C   UNL     1      -8.226   0.568 125.326  0.00  0.00    +0.000 C 
ATOM      9  O   UNL     1      -7.962   1.101 126.377  0.00  0.00    +0.000 OA
ATOM     10  C   UNL     1      -8.252   0.945 123.812  0.00  0.00    +0.000 C 
ENDROOT
BRANCH  10  11
ATOM     11  N   UNL     1      -7.074   1.678 123.264  0.00  0.00    +0.000 N 
ATOM     12  C   UNL     1      -7.139   3.051 123.176  0.00  0.00    +0.000 C 
ATOM     13  O   UNL     1      -8.139   3.653 123.575  0.00  0.00    +0.000 OA
ATOM     14  H   UNL     1      -6.213   1.195 123.034  0.00  0.00    +0.000 HD
BRANCH  12  15
ATOM     15  C   UNL     1      -5.923   3.765 122.522  0.00  0.00    +0.000 C 
BRANCH  15  16
ATOM     16  C   UNL     1      -6.181   4.159 121.074  0.00  0.00    +0.000 A 
ATOM     17  C   UNL     1      -5.245   4.935 120.371  0.00  0.00    +0.000 A 
ATOM     18  C   UNL     1      -5.557   5.443 119.105  0.00  0.00    +0.000 A 
ATOM     19  C   UNL     1      -6.761   5.109 118.487  0.00  0.00    +0.000 A 
ATOM     20  C   UNL     1      -7.683   4.315 119.153  0.00  0.00    +0.000 A 
ATOM     21  C   UNL     1      -7.400   3.863 120.438  0.00  0.00    +0.000 A 
ENDBRANCH  15  16
BRANCH  15  22
ATOM     22  N   UNL     1      -5.618   4.967 123.324  0.00  0.00    +0.000 NA
ATOM     23  H   UNL     1      -6.458   5.178 123.872  0.00  0.00    +0.000 HD
ATOM     24  H   UNL     1      -5.492   5.764 122.704  0.00  0.00    +0.000 HD
ENDBRANCH  15  22
ENDBRANCH  12  15
ENDBRANCH  10  11
BRANCH   6  25
ATOM     25  C   UNL     1      -8.381  -2.647 126.776  0.00  0.00    +0.000 C 
ATOM     26  O   UNL     1      -9.511  -3.096 126.618  0.00  0.00    +0.000 OA
BRANCH  25  27
ATOM     27  O   UNL     1      -7.658  -2.951 127.896  0.00  0.00    +0.000 OA
BRANCH  27  28
ATOM     28  C   UNL     1      -8.498  -3.449 128.981  0.00  0.00    +0.000 C 
BRANCH  28  29
ATOM     29  O   UNL     1      -7.952  -3.082 130.269  0.00  0.00    +0.000 OA
BRANCH  29  30
ATOM     30  C   UNL     1      -6.628  -3.332 130.488  0.00  0.00    +0.000 C 
ATOM     31  O   UNL     1      -6.100  -4.407 130.237  0.00  0.00    +0.000 OA
BRANCH  30  32
ATOM     32  C   UNL     1      -5.875  -2.096 131.078  0.00  0.00    +0.000 C 
ATOM     33  N   UNL     1      -6.796  -0.956 131.321  0.00  0.00    +0.000 N 
ATOM     34  C   UNL     1      -7.180  -0.620 132.599  0.00  0.00    +0.000 C 
ATOM     35  O   UNL     1      -7.454  -1.304 133.550  0.00  0.00    +0.000 OA
ATOM     36  C   UNL     1      -6.913   0.878 132.357  0.00  0.00    +0.000 C 
ATOM     37  C   UNL     1      -6.342   0.434 131.014  0.00  0.00    +0.000 C 
ATOM     38  S   UNL     1      -4.582   0.201 130.836  0.00  0.00    +0.000 S 
ATOM     39  O   UNL     1      -4.081   1.054 129.776  0.00  0.00    +0.000 OA
ATOM     40  O   UNL     1      -3.940   0.204 132.138  0.00  0.00    +0.000 OA
ATOM     41  C   UNL     1      -4.708  -1.534 130.226  0.00  0.00    +0.000 C 
ATOM     42  C   UNL     1      -3.384  -2.248 130.497  0.00  0.00    +0.000 C 
ATOM     43  C   UNL     1      -5.026  -1.485 128.721  0.00  0.00    +0.000 C 
ENDBRANCH  30  32
ENDBRANCH  29  30
ENDBRANCH  28  29
ENDBRANCH  27  28
ENDBRANCH  25  27
ENDBRANCH   6  25
TORSDOF 10
ENDMDL
MODEL 9
REMARK VINA RESULT:      -8.9      4.508      7.726
REMARK  Name = Sultamicillin
REMARK  14 active torsions:
REMARK  status: ('A' for Active; 'I' for Inactive)
REMARK    1  A    between atoms: C_4  and  C_5
REMARK    2  A    between atoms: C_4  and  C_6
REMARK    3  A    between atoms: C_7  and  C_23
REMARK    4  A    between atoms: C_11  and  N_12
REMARK    5  A    between atoms: C_13  and  C_15
REMARK    6  A    between atoms: C_15  and  N_16
REMARK    7  A    between atoms: C_15  and  C_17
REMARK    8  A    between atoms: C_23  and  O_25
REMARK    9  A    between atoms: O_25  and  C_26
REMARK   10  A    between atoms: C_26  and  O_27
REMARK   11  A    between atoms: O_27  and  C_28
REMARK   12  A    between atoms: C_28  and  C_30
REMARK   13  A    between atoms: C_40  and  C_41
REMARK   14  A    between atoms: C_40  and  C_42
REMARK                            x       y       z     vdW  Elec       q    Type
REMARK                         _______ _______ _______ _____ _____    ______ ____
ROOT
ATOM      1  C   UNL     1      -8.683   0.579 124.255  0.00  0.00    +0.000 C 
ATOM      2  S   UNL     1      -7.127  -0.048 123.545  0.00  0.00    +0.000 S 
ATOM      3  C   UNL     1      -7.471  -1.749 124.232  0.00  0.00    +0.000 C 
ATOM      4  C   UNL     1      -6.120  -2.460 124.320  0.00  0.00    +0.000 C 
ATOM      5  C   UNL     1      -8.388  -2.452 123.215  0.00  0.00    +0.000 C 
ATOM      6  C   UNL     1      -8.137  -1.483 125.623  0.00  0.00    +0.000 C 
ATOM      7  N   UNL     1      -8.915  -0.238 125.470  0.00  0.00    +0.000 N 
ATOM      8  C   UNL     1      -8.684   0.821 126.318  0.00  0.00    +0.000 C 
ATOM      9  O   UNL     1      -8.477   0.820 127.508  0.00  0.00    +0.000 OA
ATOM     10  C   UNL     1      -8.616   1.835 125.133  0.00  0.00    +0.000 C 
ENDROOT
BRANCH  10  11
ATOM     11  N   UNL     1      -7.402   2.694 125.029  0.00  0.00    +0.000 N 
ATOM     12  C   UNL     1      -7.538   4.049 125.230  0.00  0.00    +0.000 C 
ATOM     13  O   UNL     1      -8.637   4.526 125.521  0.00  0.00    +0.000 OA
ATOM     14  H   UNL     1      -6.481   2.290 124.893  0.00  0.00    +0.000 HD
BRANCH  12  15
ATOM     15  C   UNL     1      -6.263   4.915 125.029  0.00  0.00    +0.000 C 
BRANCH  15  16
ATOM     16  C   UNL     1      -5.131   4.523 125.969  0.00  0.00    +0.000 A 
ATOM     17  C   UNL     1      -4.855   5.294 127.109  0.00  0.00    +0.000 A 
ATOM     18  C   UNL     1      -3.713   5.040 127.876  0.00  0.00    +0.000 A 
ATOM     19  C   UNL     1      -2.885   3.960 127.572  0.00  0.00    +0.000 A 
ATOM     20  C   UNL     1      -3.162   3.166 126.469  0.00  0.00    +0.000 A 
ATOM     21  C   UNL     1      -4.261   3.458 125.669  0.00  0.00    +0.000 A 
ENDBRANCH  15  16
BRANCH  15  22
ATOM     22  N   UNL     1      -5.828   4.762 123.626  0.00  0.00    +0.000 NA
ATOM     23  H   UNL     1      -6.403   5.402 123.067  0.00  0.00    +0.000 HD
ATOM     24  H   UNL     1      -6.066   3.829 123.298  0.00  0.00    +0.000 HD
ENDBRANCH  15  22
ENDBRANCH  12  15
ENDBRANCH  10  11
BRANCH   6  25
ATOM     25  C   UNL     1      -8.953  -2.696 126.169  0.00  0.00    +0.000 C 
ATOM     26  O   UNL     1     -10.118  -2.919 125.859  0.00  0.00    +0.000 OA
BRANCH  25  27
ATOM     27  O   UNL     1      -8.258  -3.571 126.956  0.00  0.00    +0.000 OA
BRANCH  27  28
ATOM     28  C   UNL     1      -8.802  -3.654 128.308  0.00  0.00    +0.000 C 
BRANCH  28  29
ATOM     29  O   UNL     1      -8.170  -2.691 129.182  0.00  0.00    +0.000 OA
BRANCH  29  30
ATOM     30  C   UNL     1      -7.034  -3.079 129.833  0.00  0.00    +0.000 C 
ATOM     31  O   UNL     1      -6.656  -4.242 129.882  0.00  0.00    +0.000 OA
BRANCH  30  32
ATOM     32  C   UNL     1      -6.279  -1.878 130.489  0.00  0.00    +0.000 C 
ATOM     33  N   UNL     1      -7.187  -0.727 130.735  0.00  0.00    +0.000 N 
ATOM     34  C   UNL     1      -7.611  -0.424 132.007  0.00  0.00    +0.000 C 
ATOM     35  O   UNL     1      -7.933  -1.130 132.926  0.00  0.00    +0.000 OA
ATOM     36  C   UNL     1      -7.306   1.075 131.823  0.00  0.00    +0.000 C 
ATOM     37  C   UNL     1      -6.694   0.662 130.488  0.00  0.00    +0.000 C 
ATOM     38  S   UNL     1      -4.933   0.398 130.367  0.00  0.00    +0.000 S 
ATOM     39  O   UNL     1      -4.377   1.273 129.353  0.00  0.00    +0.000 OA
ATOM     40  O   UNL     1      -4.341   0.347 131.691  0.00  0.00    +0.000 OA
ATOM     41  C   UNL     1      -5.071  -1.314 129.698  0.00  0.00    +0.000 C 
ATOM     42  C   UNL     1      -3.772  -2.063 129.995  0.00  0.00    +0.000 C 
ATOM     43  C   UNL     1      -5.332  -1.212 128.184  0.00  0.00    +0.000 C 
ENDBRANCH  30  32
ENDBRANCH  29  30
ENDBRANCH  28  29
ENDBRANCH  27  28
ENDBRANCH  25  27
ENDBRANCH   6  25
TORSDOF 10
ENDMDL
