MODEL 1
REMARK VINA RESULT:      -7.4      0.000      0.000
REMARK  Name = Sumatriptan
REMARK  9 active torsions:
REMARK  status: ('A' for Active; 'I' for Inactive)
REMARK    1  A    between atoms: C_1  and  N_2
REMARK    2  A    between atoms: N_2  and  S_3
REMARK    3  A    between atoms: S_3  and  C_6
REMARK    4  A    between atoms: C_6  and  C_7
REMARK    5  A    between atoms: C_13  and  C_14
REMARK    6  A    between atoms: C_14  and  C_15
REMARK    7  A    between atoms: C_15  and  N_16
REMARK    8  A    between atoms: N_16  and  C_17
REMARK    9  A    between atoms: N_16  and  C_18
REMARK                            x       y       z     vdW  Elec       q    Type
REMARK                         _______ _______ _______ _____ _____    ______ ____
ROOT
ATOM      1  C   UNL     1     -10.777   7.723 129.484  0.00  0.00    +0.000 A 
ATOM      2  C   UNL     1     -11.908   7.244 130.147  0.00  0.00    +0.000 A 
ATOM      3  C   UNL     1     -11.814   6.513 131.363  0.00  0.00    +0.000 A 
ATOM      4  C   UNL     1     -10.539   6.239 131.890  0.00  0.00    +0.000 A 
ATOM      5  N   UNL     1     -10.110   5.554 133.004  0.00  0.00    +0.000 N 
ATOM      6  C   UNL     1      -8.735   5.524 133.050  0.00  0.00    +0.000 A 
ATOM      7  C   UNL     1      -8.244   6.258 131.988  0.00  0.00    +0.000 A 
ATOM      8  C   UNL     1      -9.392   6.686 131.258  0.00  0.00    +0.000 A 
ATOM      9  C   UNL     1      -9.563   7.421 130.083  0.00  0.00    +0.000 A 
ATOM     10  H   UNL     1     -10.715   5.114 133.680  0.00  0.00    +0.000 HD
ENDROOT
BRANCH   1  11
ATOM     11  C   UNL     1     -10.829   8.499 128.171  0.00  0.00    +0.000 C 
BRANCH  11  12
ATOM     12  S   UNL     1     -10.793   7.365 126.726  0.00  0.00    +0.000 S 
ATOM     13  O   UNL     1      -9.802   6.337 126.954  0.00  0.00    +0.000 OA
ATOM     14  O   UNL     1     -10.784   8.148 125.501  0.00  0.00    +0.000 OA
BRANCH  12  16
ATOM     15  C   UNL     1     -13.379   7.426 127.023  0.00  0.00    +0.000 C 
ATOM     16  N   UNL     1     -12.241   6.508 126.719  0.00  0.00    +0.000 NA
ATOM     17  H   UNL     1     -12.385   6.086 125.800  0.00  0.00    +0.000 HD
ENDBRANCH  12  16
ENDBRANCH  11  12
ENDBRANCH   1  11
BRANCH   7  18
ATOM     18  C   UNL     1      -6.787   6.485 131.666  0.00  0.00    +0.000 C 
BRANCH  18  19
ATOM     19  C   UNL     1      -6.249   5.655 130.489  0.00  0.00    +0.000 C 
BRANCH  19  20
ATOM     20  N   UNL     1      -5.203   6.264 129.656  0.00  0.00    +0.000 NA
ATOM     21  C   UNL     1      -4.578   7.360 130.391  0.00  0.00    +0.000 C 
ATOM     22  C   UNL     1      -4.197   5.228 129.365  0.00  0.00    +0.000 C 
ENDBRANCH  19  20
ENDBRANCH  18  19
ENDBRANCH   7  18
TORSDOF 6
ENDMDL
MODEL 2
REMARK VINA RESULT:      -6.7      2.871      6.343
REMARK  Name = Sumatriptan
REMARK  9 active torsions:
REMARK  status: ('A' for Active; 'I' for Inactive)
REMARK    1  A    between atoms: C_1  and  N_2
REMARK    2  A    between atoms: N_2  and  S_3
REMARK    3  A    between atoms: S_3  and  C_6
REMARK    4  A    between atoms: C_6  and  C_7
REMARK    5  A    between atoms: C_13  and  C_14
REMARK    6  A    between atoms: C_14  and  C_15
REMARK    7  A    between atoms: C_15  and  N_16
REMARK    8  A    between atoms: N_16  and  C_17
REMARK    9  A    between atoms: N_16  and  C_18
REMARK                            x       y       z     vdW  Elec       q    Type
REMARK                         _______ _______ _______ _____ _____    ______ ____
ROOT
ATOM      1  C   UNL     1      -6.410   6.432 131.859  0.00  0.00    +0.000 A 
ATOM      2  C   UNL     1      -6.722   5.789 133.058  0.00  0.00    +0.000 A 
ATOM      3  C   UNL     1      -8.064   5.506 133.433  0.00  0.00    +0.000 A 
ATOM      4  C   UNL     1      -9.105   5.920 132.581  0.00  0.00    +0.000 A 
ATOM      5  N   UNL     1     -10.476   5.828 132.659  0.00  0.00    +0.000 N 
ATOM      6  C   UNL     1     -11.061   6.444 131.577  0.00  0.00    +0.000 A 
ATOM      7  C   UNL     1     -10.065   6.893 130.735  0.00  0.00    +0.000 A 
ATOM      8  C   UNL     1      -8.839   6.571 131.390  0.00  0.00    +0.000 A 
ATOM      9  C   UNL     1      -7.496   6.790 131.075  0.00  0.00    +0.000 A 
ATOM     10  H   UNL     1     -10.984   5.392 133.414  0.00  0.00    +0.000 HD
ENDROOT
BRANCH   1  11
ATOM     11  C   UNL     1      -4.986   6.768 131.423  0.00  0.00    +0.000 C 
BRANCH  11  12
ATOM     12  S   UNL     1      -4.390   5.596 130.140  0.00  0.00    +0.000 S 
ATOM     13  O   UNL     1      -4.795   6.074 128.836  0.00  0.00    +0.000 OA
ATOM     14  O   UNL     1      -4.684   4.235 130.558  0.00  0.00    +0.000 OA
BRANCH  12  16
ATOM     15  C   UNL     1      -2.278   6.230 128.756  0.00  0.00    +0.000 C 
ATOM     16  N   UNL     1      -2.712   5.714 130.088  0.00  0.00    +0.000 NA
ATOM     17  H   UNL     1      -2.391   6.353 130.818  0.00  0.00    +0.000 HD
ENDBRANCH  12  16
ENDBRANCH  11  12
ENDBRANCH   1  11
BRANCH   7  18
ATOM     18  C   UNL     1     -10.269   7.623 129.430  0.00  0.00    +0.000 C 
BRANCH  18  19
ATOM     19  C   UNL     1     -11.666   8.237 129.245  0.00  0.00    +0.000 C 
BRANCH  19  20
ATOM     20  N   UNL     1     -12.254   8.186 127.900  0.00  0.00    +0.000 NA
ATOM     21  C   UNL     1     -11.228   7.786 126.940  0.00  0.00    +0.000 C 
ATOM     22  C   UNL     1     -13.332   7.182 127.915  0.00  0.00    +0.000 C 
ENDBRANCH  19  20
ENDBRANCH  18  19
ENDBRANCH   7  18
TORSDOF 6
ENDMDL
MODEL 3
REMARK VINA RESULT:      -6.4      1.849      2.387
REMARK  Name = Sumatriptan
REMARK  9 active torsions:
REMARK  status: ('A' for Active; 'I' for Inactive)
REMARK    1  A    between atoms: C_1  and  N_2
REMARK    2  A    between atoms: N_2  and  S_3
REMARK    3  A    between atoms: S_3  and  C_6
REMARK    4  A    between atoms: C_6  and  C_7
REMARK    5  A    between atoms: C_13  and  C_14
REMARK    6  A    between atoms: C_14  and  C_15
REMARK    7  A    between atoms: C_15  and  N_16
REMARK    8  A    between atoms: N_16  and  C_17
REMARK    9  A    between atoms: N_16  and  C_18
REMARK                            x       y       z     vdW  Elec       q    Type
REMARK                         _______ _______ _______ _____ _____    ______ ____
ROOT
ATOM      1  C   UNL     1      -9.834   7.056 130.558  0.00  0.00    +0.000 A 
ATOM      2  C   UNL     1     -10.480   6.419 131.619  0.00  0.00    +0.000 A 
ATOM      3  C   UNL     1      -9.760   5.842 132.701  0.00  0.00    +0.000 A 
ATOM      4  C   UNL     1      -8.354   5.889 132.679  0.00  0.00    +0.000 A 
ATOM      5  N   UNL     1      -7.385   5.416 133.534  0.00  0.00    +0.000 N 
ATOM      6  C   UNL     1      -6.131   5.676 133.029  0.00  0.00    +0.000 A 
ATOM      7  C   UNL     1      -6.269   6.390 131.856  0.00  0.00    +0.000 A 
ATOM      8  C   UNL     1      -7.675   6.501 131.641  0.00  0.00    +0.000 A 
ATOM      9  C   UNL     1      -8.448   7.070 130.627  0.00  0.00    +0.000 A 
ATOM     10  H   UNL     1      -7.564   4.927 134.398  0.00  0.00    +0.000 HD
ENDROOT
BRANCH   1  11
ATOM     11  C   UNL     1     -10.564   7.676 129.371  0.00  0.00    +0.000 C 
BRANCH  11  12
ATOM     12  S   UNL     1     -12.068   6.714 128.938  0.00  0.00    +0.000 S 
ATOM     13  O   UNL     1     -13.238   7.429 129.403  0.00  0.00    +0.000 OA
ATOM     14  O   UNL     1     -11.862   5.318 129.287  0.00  0.00    +0.000 OA
BRANCH  12  16
ATOM     15  C   UNL     1     -11.175   7.626 126.669  0.00  0.00    +0.000 C 
ATOM     16  N   UNL     1     -12.232   6.757 127.264  0.00  0.00    +0.000 NA
ATOM     17  H   UNL     1     -12.143   5.811 126.888  0.00  0.00    +0.000 HD
ENDBRANCH  12  16
ENDBRANCH  11  12
ENDBRANCH   1  11
BRANCH   7  18
ATOM     18  C   UNL     1      -5.143   6.882 130.980  0.00  0.00    +0.000 C 
BRANCH  18  19
ATOM     19  C   UNL     1      -4.751   5.930 129.838  0.00  0.00    +0.000 C 
BRANCH  19  20
ATOM     20  N   UNL     1      -4.182   6.530 128.624  0.00  0.00    +0.000 NA
ATOM     21  C   UNL     1      -3.632   7.844 128.947  0.00  0.00    +0.000 C 
ATOM     22  C   UNL     1      -3.103   5.648 128.146  0.00  0.00    +0.000 C 
ENDBRANCH  19  20
ENDBRANCH  18  19
ENDBRANCH   7  18
TORSDOF 6
ENDMDL
MODEL 4
REMARK VINA RESULT:      -6.3      2.428      3.432
REMARK  Name = Sumatriptan
REMARK  9 active torsions:
REMARK  status: ('A' for Active; 'I' for Inactive)
REMARK    1  A    between atoms: C_1  and  N_2
REMARK    2  A    between atoms: N_2  and  S_3
REMARK    3  A    between atoms: S_3  and  C_6
REMARK    4  A    between atoms: C_6  and  C_7
REMARK    5  A    between atoms: C_13  and  C_14
REMARK    6  A    between atoms: C_14  and  C_15
REMARK    7  A    between atoms: C_15  and  N_16
REMARK    8  A    between atoms: N_16  and  C_17
REMARK    9  A    between atoms: N_16  and  C_18
REMARK                            x       y       z     vdW  Elec       q    Type
REMARK                         _______ _______ _______ _____ _____    ______ ____
ROOT
ATOM      1  C   UNL     1      -9.122   6.692 131.116  0.00  0.00    +0.000 A 
ATOM      2  C   UNL     1      -9.404   6.080 132.339  0.00  0.00    +0.000 A 
ATOM      3  C   UNL     1      -8.378   5.714 133.252  0.00  0.00    +0.000 A 
ATOM      4  C   UNL     1      -7.038   5.948 132.892  0.00  0.00    +0.000 A 
ATOM      5  N   UNL     1      -5.839   5.697 133.518  0.00  0.00    +0.000 N 
ATOM      6  C   UNL     1      -4.788   6.073 132.713  0.00  0.00    +0.000 A 
ATOM      7  C   UNL     1      -5.297   6.644 131.565  0.00  0.00    +0.000 A 
ATOM      8  C   UNL     1      -6.715   6.542 131.685  0.00  0.00    +0.000 A 
ATOM      9  C   UNL     1      -7.776   6.899 130.851  0.00  0.00    +0.000 A 
ATOM     10  H   UNL     1      -5.739   5.274 134.429  0.00  0.00    +0.000 HD
ENDROOT
BRANCH   1  11
ATOM     11  C   UNL     1     -10.189   7.089 130.101  0.00  0.00    +0.000 C 
BRANCH  11  12
ATOM     12  S   UNL     1     -11.630   5.950 130.170  0.00  0.00    +0.000 S 
ATOM     13  O   UNL     1     -12.482   6.330 131.276  0.00  0.00    +0.000 OA
ATOM     14  O   UNL     1     -11.166   4.580 130.024  0.00  0.00    +0.000 OA
BRANCH  12  16
ATOM     15  C   UNL     1     -12.729   7.737 128.628  0.00  0.00    +0.000 C 
ATOM     16  N   UNL     1     -12.587   6.263 128.822  0.00  0.00    +0.000 NA
ATOM     17  H   UNL     1     -12.155   5.853 127.992  0.00  0.00    +0.000 HD
ENDBRANCH  12  16
ENDBRANCH  11  12
ENDBRANCH   1  11
BRANCH   7  18
ATOM     18  C   UNL     1      -4.489   7.195 130.416  0.00  0.00    +0.000 C 
BRANCH  18  19
ATOM     19  C   UNL     1      -2.974   6.952 130.516  0.00  0.00    +0.000 C 
BRANCH  19  20
ATOM     20  N   UNL     1      -2.341   6.183 129.436  0.00  0.00    +0.000 NA
ATOM     21  C   UNL     1      -2.923   4.845 129.390  0.00  0.00    +0.000 C 
ATOM     22  C   UNL     1      -2.608   6.881 128.167  0.00  0.00    +0.000 C 
ENDBRANCH  19  20
ENDBRANCH  18  19
ENDBRANCH   7  18
TORSDOF 6
ENDMDL
MODEL 5
REMARK VINA RESULT:      -6.0      8.300      9.577
REMARK  Name = Sumatriptan
REMARK  9 active torsions:
REMARK  status: ('A' for Active; 'I' for Inactive)
REMARK    1  A    between atoms: C_1  and  N_2
REMARK    2  A    between atoms: N_2  and  S_3
REMARK    3  A    between atoms: S_3  and  C_6
REMARK    4  A    between atoms: C_6  and  C_7
REMARK    5  A    between atoms: C_13  and  C_14
REMARK    6  A    between atoms: C_14  and  C_15
REMARK    7  A    between atoms: C_15  and  N_16
REMARK    8  A    between atoms: N_16  and  C_17
REMARK    9  A    between atoms: N_16  and  C_18
REMARK                            x       y       z     vdW  Elec       q    Type
REMARK                         _______ _______ _______ _____ _____    ______ ____
ROOT
ATOM      1  C   UNL     1      -7.359   0.560 124.898  0.00  0.00    +0.000 A 
ATOM      2  C   UNL     1      -6.997   0.167 123.608  0.00  0.00    +0.000 A 
ATOM      3  C   UNL     1      -7.108  -1.182 123.175  0.00  0.00    +0.000 A 
ATOM      4  C   UNL     1      -7.563  -2.151 124.088  0.00  0.00    +0.000 A 
ATOM      5  N   UNL     1      -7.755  -3.510 123.998  0.00  0.00    +0.000 N 
ATOM      6  C   UNL     1      -8.172  -4.018 125.207  0.00  0.00    +0.000 A 
ATOM      7  C   UNL     1      -8.324  -2.972 126.094  0.00  0.00    +0.000 A 
ATOM      8  C   UNL     1      -7.920  -1.805 125.379  0.00  0.00    +0.000 A 
ATOM      9  C   UNL     1      -7.812  -0.457 125.726  0.00  0.00    +0.000 A 
ATOM     10  H   UNL     1      -7.591  -4.064 123.170  0.00  0.00    +0.000 HD
ENDROOT
BRANCH   1  11
ATOM     11  C   UNL     1      -7.244   1.993 125.411  0.00  0.00    +0.000 C 
BRANCH  11  12
ATOM     12  S   UNL     1      -8.584   3.051 124.733  0.00  0.00    +0.000 S 
ATOM     13  O   UNL     1      -8.693   4.251 125.534  0.00  0.00    +0.000 OA
ATOM     14  O   UNL     1      -9.753   2.231 124.461  0.00  0.00    +0.000 OA
BRANCH  12  16
ATOM     15  C   UNL     1      -8.790   2.929 122.140  0.00  0.00    +0.000 C 
ATOM     16  N   UNL     1      -8.065   3.631 123.241  0.00  0.00    +0.000 NA
ATOM     17  H   UNL     1      -8.249   4.634 123.180  0.00  0.00    +0.000 HD
ENDBRANCH  12  16
ENDBRANCH  11  12
ENDBRANCH   1  11
BRANCH   7  18
ATOM     18  C   UNL     1      -8.770  -3.086 127.531  0.00  0.00    +0.000 C 
BRANCH  18  19
ATOM     19  C   UNL     1      -7.645  -3.393 128.533  0.00  0.00    +0.000 C 
BRANCH  19  20
ATOM     20  N   UNL     1      -7.843  -2.961 129.923  0.00  0.00    +0.000 NA
ATOM     21  C   UNL     1      -6.709  -3.401 130.732  0.00  0.00    +0.000 C 
ATOM     22  C   UNL     1      -7.916  -1.490 129.935  0.00  0.00    +0.000 C 
ENDBRANCH  19  20
ENDBRANCH  18  19
ENDBRANCH   7  18
TORSDOF 6
ENDMDL
MODEL 6
REMARK VINA RESULT:      -5.9      7.447      8.543
REMARK  Name = Sumatriptan
REMARK  9 active torsions:
REMARK  status: ('A' for Active; 'I' for Inactive)
REMARK    1  A    between atoms: C_1  and  N_2
REMARK    2  A    between atoms: N_2  and  S_3
REMARK    3  A    between atoms: S_3  and  C_6
REMARK    4  A    between atoms: C_6  and  C_7
REMARK    5  A    between atoms: C_13  and  C_14
REMARK    6  A    between atoms: C_14  and  C_15
REMARK    7  A    between atoms: C_15  and  N_16
REMARK    8  A    between atoms: N_16  and  C_17
REMARK    9  A    between atoms: N_16  and  C_18
REMARK                            x       y       z     vdW  Elec       q    Type
REMARK                         _______ _______ _______ _____ _____    ______ ____
ROOT
ATOM      1  C   UNL     1      -8.309   0.842 124.403  0.00  0.00    +0.000 A 
ATOM      2  C   UNL     1      -8.895   1.794 123.567  0.00  0.00    +0.000 A 
ATOM      3  C   UNL     1      -8.287   3.054 123.319  0.00  0.00    +0.000 A 
ATOM      4  C   UNL     1      -7.075   3.359 123.967  0.00  0.00    +0.000 A 
ATOM      5  N   UNL     1      -6.262   4.468 123.965  0.00  0.00    +0.000 N 
ATOM      6  C   UNL     1      -5.199   4.287 124.819  0.00  0.00    +0.000 A 
ATOM      7  C   UNL     1      -5.271   3.013 125.346  0.00  0.00    +0.000 A 
ATOM      8  C   UNL     1      -6.467   2.448 124.813  0.00  0.00    +0.000 A 
ATOM      9  C   UNL     1      -7.108   1.220 124.986  0.00  0.00    +0.000 A 
ATOM     10  H   UNL     1      -6.430   5.308 123.431  0.00  0.00    +0.000 HD
ENDROOT
BRANCH   1  11
ATOM     11  C   UNL     1      -8.932  -0.517 124.708  0.00  0.00    +0.000 C 
BRANCH  11  12
ATOM     12  S   UNL     1      -9.193  -1.490 123.171  0.00  0.00    +0.000 S 
ATOM     13  O   UNL     1      -7.909  -1.789 122.576  0.00  0.00    +0.000 OA
ATOM     14  O   UNL     1     -10.251  -0.873 122.387  0.00  0.00    +0.000 OA
BRANCH  12  16
ATOM     15  C   UNL     1      -9.330  -3.325 125.013  0.00  0.00    +0.000 C 
ATOM     16  N   UNL     1      -9.771  -3.004 123.623  0.00  0.00    +0.000 NA
ATOM     17  H   UNL     1     -10.792  -3.007 123.583  0.00  0.00    +0.000 HD
ENDBRANCH  12  16
ENDBRANCH  11  12
ENDBRANCH   1  11
BRANCH   7  18
ATOM     18  C   UNL     1      -4.299   2.403 126.326  0.00  0.00    +0.000 C 
BRANCH  18  19
ATOM     19  C   UNL     1      -4.010   3.262 127.568  0.00  0.00    +0.000 C 
BRANCH  19  20
ATOM     20  N   UNL     1      -2.608   3.603 127.841  0.00  0.00    +0.000 NA
ATOM     21  C   UNL     1      -1.769   3.110 126.752  0.00  0.00    +0.000 C 
ATOM     22  C   UNL     1      -2.505   5.071 127.915  0.00  0.00    +0.000 C 
ENDBRANCH  19  20
ENDBRANCH  18  19
ENDBRANCH   7  18
TORSDOF 6
ENDMDL
MODEL 7
REMARK VINA RESULT:      -5.9      8.432      9.354
REMARK  Name = Sumatriptan
REMARK  9 active torsions:
REMARK  status: ('A' for Active; 'I' for Inactive)
REMARK    1  A    between atoms: C_1  and  N_2
REMARK    2  A    between atoms: N_2  and  S_3
REMARK    3  A    between atoms: S_3  and  C_6
REMARK    4  A    between atoms: C_6  and  C_7
REMARK    5  A    between atoms: C_13  and  C_14
REMARK    6  A    between atoms: C_14  and  C_15
REMARK    7  A    between atoms: C_15  and  N_16
REMARK    8  A    between atoms: N_16  and  C_17
REMARK    9  A    between atoms: N_16  and  C_18
REMARK                            x       y       z     vdW  Elec       q    Type
REMARK                         _______ _______ _______ _____ _____    ______ ____
ROOT
ATOM      1  C   UNL     1      -9.390   0.365 124.376  0.00  0.00    +0.000 A 
ATOM      2  C   UNL     1      -9.142  -0.118 123.090  0.00  0.00    +0.000 A 
ATOM      3  C   UNL     1      -8.737  -1.461 122.856  0.00  0.00    +0.000 A 
ATOM      4  C   UNL     1      -8.549  -2.313 123.960  0.00  0.00    +0.000 A 
ATOM      5  N   UNL     1      -8.147  -3.623 124.078  0.00  0.00    +0.000 N 
ATOM      6  C   UNL     1      -8.070  -3.985 125.403  0.00  0.00    +0.000 A 
ATOM      7  C   UNL     1      -8.492  -2.921 126.174  0.00  0.00    +0.000 A 
ATOM      8  C   UNL     1      -8.772  -1.870 125.251  0.00  0.00    +0.000 A 
ATOM      9  C   UNL     1      -9.196  -0.547 125.403  0.00  0.00    +0.000 A 
ATOM     10  H   UNL     1      -7.917  -4.229 123.305  0.00  0.00    +0.000 HD
ENDROOT
BRANCH   1  11
ATOM     11  C   UNL     1      -9.813   1.800 124.676  0.00  0.00    +0.000 C 
BRANCH  11  12
ATOM     12  S   UNL     1      -8.408   2.966 124.467  0.00  0.00    +0.000 S 
ATOM     13  O   UNL     1      -7.165   2.249 124.654  0.00  0.00    +0.000 OA
ATOM     14  O   UNL     1      -8.682   4.186 125.208  0.00  0.00    +0.000 OA
BRANCH  12  16
ATOM     15  C   UNL     1      -7.036   3.031 122.254  0.00  0.00    +0.000 C 
ATOM     16  N   UNL     1      -8.355   3.409 122.844  0.00  0.00    +0.000 NA
ATOM     17  H   UNL     1      -9.102   2.932 122.335  0.00  0.00    +0.000 HD
ENDBRANCH  12  16
ENDBRANCH  11  12
ENDBRANCH   1  11
BRANCH   7  18
ATOM     18  C   UNL     1      -8.568  -2.893 127.681  0.00  0.00    +0.000 C 
BRANCH  18  19
ATOM     19  C   UNL     1      -7.330  -2.306 128.379  0.00  0.00    +0.000 C 
BRANCH  19  20
ATOM     20  N   UNL     1      -6.206  -1.894 127.527  0.00  0.00    +0.000 NA
ATOM     21  C   UNL     1      -6.100  -0.438 127.537  0.00  0.00    +0.000 C 
ATOM     22  C   UNL     1      -4.976  -2.482 128.086  0.00  0.00    +0.000 C 
ENDBRANCH  19  20
ENDBRANCH  18  19
ENDBRANCH   7  18
TORSDOF 6
ENDMDL
MODEL 8
REMARK VINA RESULT:      -5.9      8.027      8.888
REMARK  Name = Sumatriptan
REMARK  9 active torsions:
REMARK  status: ('A' for Active; 'I' for Inactive)
REMARK    1  A    between atoms: C_1  and  N_2
REMARK    2  A    between atoms: N_2  and  S_3
REMARK    3  A    between atoms: S_3  and  C_6
REMARK    4  A    between atoms: C_6  and  C_7
REMARK    5  A    between atoms: C_13  and  C_14
REMARK    6  A    between atoms: C_14  and  C_15
REMARK    7  A    between atoms: C_15  and  N_16
REMARK    8  A    between atoms: N_16  and  C_17
REMARK    9  A    between atoms: N_16  and  C_18
REMARK                            x       y       z     vdW  Elec       q    Type
REMARK                         _______ _______ _______ _____ _____    ______ ____
ROOT
ATOM      1  C   UNL     1      -8.471  -1.059 124.694  0.00  0.00    +0.000 A 
ATOM      2  C   UNL     1      -9.004  -2.284 124.288  0.00  0.00    +0.000 A 
ATOM      3  C   UNL     1      -9.193  -3.360 125.198  0.00  0.00    +0.000 A 
ATOM      4  C   UNL     1      -8.799  -3.191 126.538  0.00  0.00    +0.000 A 
ATOM      5  N   UNL     1      -8.820  -4.020 127.635  0.00  0.00    +0.000 N 
ATOM      6  C   UNL     1      -8.264  -3.390 128.724  0.00  0.00    +0.000 A 
ATOM      7  C   UNL     1      -7.929  -2.101 128.363  0.00  0.00    +0.000 A 
ATOM      8  C   UNL     1      -8.256  -1.997 126.978  0.00  0.00    +0.000 A 
ATOM      9  C   UNL     1      -8.125  -0.975 126.035  0.00  0.00    +0.000 A 
ATOM     10  H   UNL     1      -9.172  -4.966 127.639  0.00  0.00    +0.000 HD
ENDROOT
BRANCH   1  11
ATOM     11  C   UNL     1      -8.237   0.118 123.752  0.00  0.00    +0.000 C 
BRANCH  11  12
ATOM     12  S   UNL     1      -9.798   1.034 123.432  0.00  0.00    +0.000 S 
ATOM     13  O   UNL     1     -10.627   0.987 124.617  0.00  0.00    +0.000 OA
ATOM     14  O   UNL     1     -10.328   0.642 122.137  0.00  0.00    +0.000 OA
BRANCH  12  16
ATOM     15  C   UNL     1      -8.198   2.970 124.121  0.00  0.00    +0.000 C 
ATOM     16  N   UNL     1      -9.408   2.666 123.301  0.00  0.00    +0.000 NA
ATOM     17  H   UNL     1      -9.220   2.895 122.323  0.00  0.00    +0.000 HD
ENDBRANCH  12  16
ENDBRANCH  11  12
ENDBRANCH   1  11
BRANCH   7  18
ATOM     18  C   UNL     1      -7.294  -1.065 129.258  0.00  0.00    +0.000 C 
BRANCH  18  19
ATOM     19  C   UNL     1      -8.089  -0.740 130.534  0.00  0.00    +0.000 C 
BRANCH  19  20
ATOM     20  N   UNL     1      -8.170   0.670 130.938  0.00  0.00    +0.000 NA
ATOM     21  C   UNL     1      -8.314   1.506 129.749  0.00  0.00    +0.000 C 
ATOM     22  C   UNL     1      -9.356   0.827 131.798  0.00  0.00    +0.000 C 
ENDBRANCH  19  20
ENDBRANCH  18  19
ENDBRANCH   7  18
TORSDOF 6
ENDMDL
MODEL 9
REMARK VINA RESULT:      -5.9      8.424      9.178
REMARK  Name = Sumatriptan
REMARK  9 active torsions:
REMARK  status: ('A' for Active; 'I' for Inactive)
REMARK    1  A    between atoms: C_1  and  N_2
REMARK    2  A    between atoms: N_2  and  S_3
REMARK    3  A    between atoms: S_3  and  C_6
REMARK    4  A    between atoms: C_6  and  C_7
REMARK    5  A    between atoms: C_13  and  C_14
REMARK    6  A    between atoms: C_14  and  C_15
REMARK    7  A    between atoms: C_15  and  N_16
REMARK    8  A    between atoms: N_16  and  C_17
REMARK    9  A    between atoms: N_16  and  C_18
REMARK                            x       y       z     vdW  Elec       q    Type
REMARK                         _______ _______ _______ _____ _____    ______ ____
ROOT
ATOM      1  C   UNL     1      -8.493  -1.098 124.517  0.00  0.00    +0.000 A 
ATOM      2  C   UNL     1      -9.134  -2.287 124.166  0.00  0.00    +0.000 A 
ATOM      3  C   UNL     1      -9.360  -3.327 125.109  0.00  0.00    +0.000 A 
ATOM      4  C   UNL     1      -8.891  -3.160 126.425  0.00  0.00    +0.000 A 
ATOM      5  N   UNL     1      -8.923  -3.961 127.543  0.00  0.00    +0.000 N 
ATOM      6  C   UNL     1      -8.270  -3.353 128.589  0.00  0.00    +0.000 A 
ATOM      7  C   UNL     1      -7.858  -2.100 128.182  0.00  0.00    +0.000 A 
ATOM      8  C   UNL     1      -8.241  -2.001 126.811  0.00  0.00    +0.000 A 
ATOM      9  C   UNL     1      -8.079  -1.012 125.839  0.00  0.00    +0.000 A 
ATOM     10  H   UNL     1      -9.343  -4.878 127.585  0.00  0.00    +0.000 HD
ENDROOT
BRANCH   1  11
ATOM     11  C   UNL     1      -8.217   0.038 123.537  0.00  0.00    +0.000 C 
BRANCH  11  12
ATOM     12  S   UNL     1      -9.700   1.099 123.313  0.00  0.00    +0.000 S 
ATOM     13  O   UNL     1     -10.074   1.667 124.590  0.00  0.00    +0.000 OA
ATOM     14  O   UNL     1     -10.676   0.394 122.498  0.00  0.00    +0.000 OA
BRANCH  12  16
ATOM     15  C   UNL     1      -7.991   3.038 123.000  0.00  0.00    +0.000 C 
ATOM     16  N   UNL     1      -9.230   2.444 122.417  0.00  0.00    +0.000 NA
ATOM     17  H   UNL     1      -9.049   2.165 121.451  0.00  0.00    +0.000 HD
ENDBRANCH  12  16
ENDBRANCH  11  12
ENDBRANCH   1  11
BRANCH   7  18
ATOM     18  C   UNL     1      -7.106  -1.097 129.022  0.00  0.00    +0.000 C 
BRANCH  18  19
ATOM     19  C   UNL     1      -5.613  -0.960 128.682  0.00  0.00    +0.000 C 
BRANCH  19  20
ATOM     20  N   UNL     1      -4.657  -1.677 129.536  0.00  0.00    +0.000 NA
ATOM     21  C   UNL     1      -5.262  -1.915 130.844  0.00  0.00    +0.000 C 
ATOM     22  C   UNL     1      -4.353  -2.966 128.892  0.00  0.00    +0.000 C 
ENDBRANCH  19  20
ENDBRANCH  18  19
ENDBRANCH   7  18
TORSDOF 6
ENDMDL
