MODEL 1
REMARK VINA RESULT:      -7.7      0.000      0.000
REMARK  Name = Sunitinib
REMARK  11 active torsions:
REMARK  status: ('A' for Active; 'I' for Inactive)
REMARK    1  A    between atoms: C_1  and  C_2
REMARK    2  A    between atoms: C_2  and  N_3
REMARK    3  A    between atoms: N_3  and  C_4
REMARK    4  A    between atoms: N_3  and  C_6
REMARK    5  A    between atoms: C_4  and  C_5
REMARK    6  A    between atoms: C_6  and  C_7
REMARK    7  A    between atoms: C_7  and  N_8
REMARK    8  A    between atoms: C_9  and  C_11
REMARK    9  A    between atoms: C_12  and  C_13
REMARK   10  A    between atoms: C_15  and  C_16
REMARK   11  A    between atoms: C_28  and  C_29
REMARK                            x       y       z     vdW  Elec       q    Type
REMARK                         _______ _______ _______ _____ _____    ______ ____
ROOT
ATOM      1  C   UNL     1      -6.453   5.764 133.041  0.00  0.00    +0.000 A 
ATOM      2  C   UNL     1      -7.627   5.175 133.493  0.00  0.00    +0.000 A 
ATOM      3  C   UNL     1      -7.980   4.434 134.725  0.00  0.00    +0.000 C 
ATOM      4  N   UNL     1      -8.609   5.438 132.576  0.00  0.00    +0.000 N 
ATOM      5  C   UNL     1      -8.124   6.189 131.544  0.00  0.00    +0.000 A 
ATOM      6  C   UNL     1      -6.780   6.420 131.798  0.00  0.00    +0.000 A 
ATOM      7  C   UNL     1      -5.832   7.191 130.939  0.00  0.00    +0.000 C 
ATOM      8  H   UNL     1      -9.572   5.132 132.673  0.00  0.00    +0.000 HD
ENDROOT
BRANCH   5   9
ATOM      9  C   UNL     1      -8.951   6.595 130.472  0.00  0.00    +0.000 C 
ATOM     10  C   UNL     1     -10.269   6.833 130.460  0.00  0.00    +0.000 C 
ATOM     11  C   UNL     1     -11.336   6.778 131.522  0.00  0.00    +0.000 C 
ATOM     12  O   UNL     1     -11.208   6.485 132.690  0.00  0.00    +0.000 OA
ATOM     13  N   UNL     1     -12.515   7.137 130.871  0.00  0.00    +0.000 N 
ATOM     14  C   UNL     1     -12.291   7.408 129.519  0.00  0.00    +0.000 A 
ATOM     15  C   UNL     1     -10.937   7.236 129.222  0.00  0.00    +0.000 A 
ATOM     16  C   UNL     1     -10.436   7.434 127.948  0.00  0.00    +0.000 A 
ATOM     17  C   UNL     1     -11.324   7.818 126.962  0.00  0.00    +0.000 A 
ATOM     18  F   UNL     1     -10.859   8.016 125.722  0.00  0.00    +0.000 F 
ATOM     19  C   UNL     1     -12.684   8.000 127.241  0.00  0.00    +0.000 A 
ATOM     20  C   UNL     1     -13.188   7.792 128.537  0.00  0.00    +0.000 A 
ATOM     21  H   UNL     1     -13.393   7.180 131.368  0.00  0.00    +0.000 HD
ENDBRANCH   5   9
BRANCH   1  23
ATOM     22  N   UNL     1      -4.176   4.994 133.152  0.00  0.00    +0.000 N 
ATOM     23  C   UNL     1      -5.160   5.782 133.723  0.00  0.00    +0.000 C 
ATOM     24  O   UNL     1      -4.959   6.481 134.711  0.00  0.00    +0.000 OA
ATOM     25  H   UNL     1      -4.361   4.547 132.265  0.00  0.00    +0.000 HD
BRANCH  22  26
ATOM     26  C   UNL     1      -2.843   5.003 133.720  0.00  0.00    +0.000 C 
BRANCH  26  27
ATOM     27  C   UNL     1      -1.838   5.937 133.013  0.00  0.00    +0.000 C 
BRANCH  27  28
ATOM     28  N   UNL     1      -2.445   6.811 131.962  0.00  0.00    +0.000 NA
BRANCH  28  30
ATOM     29  C   UNL     1      -2.386   8.600 133.779  0.00  0.00    +0.000 C 
ATOM     30  C   UNL     1      -2.188   8.228 132.312  0.00  0.00    +0.000 C 
ENDBRANCH  28  30
BRANCH  28  31
ATOM     31  C   UNL     1      -1.922   6.431 130.631  0.00  0.00    +0.000 C 
ATOM     32  C   UNL     1      -2.738   5.425 129.833  0.00  0.00    +0.000 C 
ENDBRANCH  28  31
ENDBRANCH  27  28
ENDBRANCH  26  27
ENDBRANCH  22  26
ENDBRANCH   1  23
TORSDOF 7
ENDMDL
MODEL 2
REMARK VINA RESULT:      -7.5      5.293      9.106
REMARK  Name = Sunitinib
REMARK  11 active torsions:
REMARK  status: ('A' for Active; 'I' for Inactive)
REMARK    1  A    between atoms: C_1  and  C_2
REMARK    2  A    between atoms: C_2  and  N_3
REMARK    3  A    between atoms: N_3  and  C_4
REMARK    4  A    between atoms: N_3  and  C_6
REMARK    5  A    between atoms: C_4  and  C_5
REMARK    6  A    between atoms: C_6  and  C_7
REMARK    7  A    between atoms: C_7  and  N_8
REMARK    8  A    between atoms: C_9  and  C_11
REMARK    9  A    between atoms: C_12  and  C_13
REMARK   10  A    between atoms: C_15  and  C_16
REMARK   11  A    between atoms: C_28  and  C_29
REMARK                            x       y       z     vdW  Elec       q    Type
REMARK                         _______ _______ _______ _____ _____    ______ ____
ROOT
ATOM      1  C   UNL     1      -9.408   4.290 132.112  0.00  0.00    +0.000 A 
ATOM      2  C   UNL     1      -8.843   3.785 133.275  0.00  0.00    +0.000 A 
ATOM      3  C   UNL     1      -8.662   4.339 134.637  0.00  0.00    +0.000 C 
ATOM      4  N   UNL     1      -8.463   2.493 133.032  0.00  0.00    +0.000 N 
ATOM      5  C   UNL     1      -8.769   2.128 131.753  0.00  0.00    +0.000 A 
ATOM      6  C   UNL     1      -9.367   3.221 131.143  0.00  0.00    +0.000 A 
ATOM      7  C   UNL     1      -9.864   3.294 129.737  0.00  0.00    +0.000 C 
ATOM      8  H   UNL     1      -8.034   1.887 133.725  0.00  0.00    +0.000 HD
ENDROOT
BRANCH   5   9
ATOM      9  C   UNL     1      -8.479   0.834 131.263  0.00  0.00    +0.000 C 
ATOM     10  C   UNL     1      -7.400   0.069 131.474  0.00  0.00    +0.000 C 
ATOM     11  C   UNL     1      -6.141   0.262 132.278  0.00  0.00    +0.000 C 
ATOM     12  O   UNL     1      -5.826   1.220 132.947  0.00  0.00    +0.000 OA
ATOM     13  N   UNL     1      -5.406  -0.907 132.086  0.00  0.00    +0.000 N 
ATOM     14  C   UNL     1      -6.075  -1.802 131.249  0.00  0.00    +0.000 A 
ATOM     15  C   UNL     1      -7.296  -1.251 130.851  0.00  0.00    +0.000 A 
ATOM     16  C   UNL     1      -8.163  -1.925 130.011  0.00  0.00    +0.000 A 
ATOM     17  C   UNL     1      -7.787  -3.181 129.572  0.00  0.00    +0.000 A 
ATOM     18  F   UNL     1      -8.613  -3.850 128.759  0.00  0.00    +0.000 F 
ATOM     19  C   UNL     1      -6.570  -3.751 129.964  0.00  0.00    +0.000 A 
ATOM     20  C   UNL     1      -5.690  -3.058 130.815  0.00  0.00    +0.000 A 
ATOM     21  H   UNL     1      -4.505  -1.035 132.526  0.00  0.00    +0.000 HD
ENDBRANCH   5   9
BRANCH   1  23
ATOM     22  N   UNL     1     -11.378   5.644 131.834  0.00  0.00    +0.000 N 
ATOM     23  C   UNL     1      -9.997   5.615 131.924  0.00  0.00    +0.000 C 
ATOM     24  O   UNL     1      -9.309   6.630 131.888  0.00  0.00    +0.000 OA
ATOM     25  H   UNL     1     -11.896   4.793 132.004  0.00  0.00    +0.000 HD
BRANCH  22  26
ATOM     26  C   UNL     1     -12.053   6.920 131.715  0.00  0.00    +0.000 C 
BRANCH  26  27
ATOM     27  C   UNL     1     -12.794   7.145 130.380  0.00  0.00    +0.000 C 
BRANCH  27  28
ATOM     28  N   UNL     1     -12.457   8.433 129.698  0.00  0.00    +0.000 NA
BRANCH  28  30
ATOM     29  C   UNL     1     -13.747   7.137 127.921  0.00  0.00    +0.000 C 
ATOM     30  C   UNL     1     -12.926   8.369 128.295  0.00  0.00    +0.000 C 
ENDBRANCH  28  30
BRANCH  28  31
ATOM     31  C   UNL     1     -13.031   9.566 130.457  0.00  0.00    +0.000 C 
ATOM     32  C   UNL     1     -13.520  10.758 129.649  0.00  0.00    +0.000 C 
ENDBRANCH  28  31
ENDBRANCH  27  28
ENDBRANCH  26  27
ENDBRANCH  22  26
ENDBRANCH   1  23
TORSDOF 7
ENDMDL
MODEL 3
REMARK VINA RESULT:      -7.5      6.471      8.979
REMARK  Name = Sunitinib
REMARK  11 active torsions:
REMARK  status: ('A' for Active; 'I' for Inactive)
REMARK    1  A    between atoms: C_1  and  C_2
REMARK    2  A    between atoms: C_2  and  N_3
REMARK    3  A    between atoms: N_3  and  C_4
REMARK    4  A    between atoms: N_3  and  C_6
REMARK    5  A    between atoms: C_4  and  C_5
REMARK    6  A    between atoms: C_6  and  C_7
REMARK    7  A    between atoms: C_7  and  N_8
REMARK    8  A    between atoms: C_9  and  C_11
REMARK    9  A    between atoms: C_12  and  C_13
REMARK   10  A    between atoms: C_15  and  C_16
REMARK   11  A    between atoms: C_28  and  C_29
REMARK                            x       y       z     vdW  Elec       q    Type
REMARK                         _______ _______ _______ _____ _____    ______ ____
ROOT
ATOM      1  C   UNL     1      -8.395   3.953 129.238  0.00  0.00    +0.000 A 
ATOM      2  C   UNL     1      -9.032   2.879 129.845  0.00  0.00    +0.000 A 
ATOM      3  C   UNL     1      -9.980   2.771 130.978  0.00  0.00    +0.000 C 
ATOM      4  N   UNL     1      -8.704   1.748 129.149  0.00  0.00    +0.000 N 
ATOM      5  C   UNL     1      -7.883   2.042 128.099  0.00  0.00    +0.000 A 
ATOM      6  C   UNL     1      -7.669   3.413 128.115  0.00  0.00    +0.000 A 
ATOM      7  C   UNL     1      -6.828   4.193 127.159  0.00  0.00    +0.000 C 
ATOM      8  H   UNL     1      -9.050   0.820 129.376  0.00  0.00    +0.000 HD
ENDROOT
BRANCH   5   9
ATOM      9  C   UNL     1      -7.410   1.038 127.225  0.00  0.00    +0.000 C 
ATOM     10  C   UNL     1      -7.704   0.827 125.936  0.00  0.00    +0.000 C 
ATOM     11  C   UNL     1      -8.598   1.539 124.953  0.00  0.00    +0.000 C 
ATOM     12  O   UNL     1      -9.281   2.519 125.145  0.00  0.00    +0.000 OA
ATOM     13  N   UNL     1      -8.472   0.822 123.764  0.00  0.00    +0.000 N 
ATOM     14  C   UNL     1      -7.597  -0.258 123.906  0.00  0.00    +0.000 A 
ATOM     15  C   UNL     1      -7.104  -0.295 125.213  0.00  0.00    +0.000 A 
ATOM     16  C   UNL     1      -6.218  -1.270 125.632  0.00  0.00    +0.000 A 
ATOM     17  C   UNL     1      -5.822  -2.219 124.709  0.00  0.00    +0.000 A 
ATOM     18  F   UNL     1      -4.963  -3.171 125.096  0.00  0.00    +0.000 F 
ATOM     19  C   UNL     1      -6.301  -2.195 123.395  0.00  0.00    +0.000 A 
ATOM     20  C   UNL     1      -7.207  -1.204 122.975  0.00  0.00    +0.000 A 
ATOM     21  H   UNL     1      -8.976   1.097 122.933  0.00  0.00    +0.000 HD
ENDBRANCH   5   9
BRANCH   1  23
ATOM     22  N   UNL     1      -9.685   5.985 129.266  0.00  0.00    +0.000 N 
ATOM     23  C   UNL     1      -8.499   5.363 129.614  0.00  0.00    +0.000 C 
ATOM     24  O   UNL     1      -7.606   5.936 130.229  0.00  0.00    +0.000 OA
ATOM     25  H   UNL     1     -10.435   5.427 128.881  0.00  0.00    +0.000 HD
BRANCH  22  26
ATOM     26  C   UNL     1      -9.904   7.362 129.657  0.00  0.00    +0.000 C 
BRANCH  26  27
ATOM     27  C   UNL     1     -10.978   8.111 128.840  0.00  0.00    +0.000 C 
BRANCH  27  28
ATOM     28  N   UNL     1     -12.261   8.341 129.573  0.00  0.00    +0.000 NA
BRANCH  28  30
ATOM     29  C   UNL     1     -13.361  10.552 130.208  0.00  0.00    +0.000 C 
ATOM     30  C   UNL     1     -12.854   9.618 129.112  0.00  0.00    +0.000 C 
ENDBRANCH  28  30
BRANCH  28  31
ATOM     31  C   UNL     1     -13.158   7.178 129.391  0.00  0.00    +0.000 C 
ATOM     32  C   UNL     1     -13.771   6.992 128.011  0.00  0.00    +0.000 C 
ENDBRANCH  28  31
ENDBRANCH  27  28
ENDBRANCH  26  27
ENDBRANCH  22  26
ENDBRANCH   1  23
TORSDOF 7
ENDMDL
MODEL 4
REMARK VINA RESULT:      -7.4      8.411      9.468
REMARK  Name = Sunitinib
REMARK  11 active torsions:
REMARK  status: ('A' for Active; 'I' for Inactive)
REMARK    1  A    between atoms: C_1  and  C_2
REMARK    2  A    between atoms: C_2  and  N_3
REMARK    3  A    between atoms: N_3  and  C_4
REMARK    4  A    between atoms: N_3  and  C_6
REMARK    5  A    between atoms: C_4  and  C_5
REMARK    6  A    between atoms: C_6  and  C_7
REMARK    7  A    between atoms: C_7  and  N_8
REMARK    8  A    between atoms: C_9  and  C_11
REMARK    9  A    between atoms: C_12  and  C_13
REMARK   10  A    between atoms: C_15  and  C_16
REMARK   11  A    between atoms: C_28  and  C_29
REMARK                            x       y       z     vdW  Elec       q    Type
REMARK                         _______ _______ _______ _____ _____    ______ ____
ROOT
ATOM      1  C   UNL     1      -6.971  -2.179 131.386  0.00  0.00    +0.000 A 
ATOM      2  C   UNL     1      -6.508  -3.465 131.143  0.00  0.00    +0.000 A 
ATOM      3  C   UNL     1      -5.901  -4.505 132.006  0.00  0.00    +0.000 C 
ATOM      4  N   UNL     1      -6.764  -3.762 129.831  0.00  0.00    +0.000 N 
ATOM      5  C   UNL     1      -7.388  -2.721 129.208  0.00  0.00    +0.000 A 
ATOM      6  C   UNL     1      -7.542  -1.711 130.146  0.00  0.00    +0.000 A 
ATOM      7  C   UNL     1      -8.167  -0.374 129.920  0.00  0.00    +0.000 C 
ATOM      8  H   UNL     1      -6.538  -4.652 129.396  0.00  0.00    +0.000 HD
ENDROOT
BRANCH   5   9
ATOM      9  C   UNL     1      -7.762  -2.790 127.847  0.00  0.00    +0.000 C 
ATOM     10  C   UNL     1      -7.195  -2.210 126.781  0.00  0.00    +0.000 C 
ATOM     11  C   UNL     1      -5.996  -1.314 126.612  0.00  0.00    +0.000 C 
ATOM     12  O   UNL     1      -5.246  -0.905 127.469  0.00  0.00    +0.000 OA
ATOM     13  N   UNL     1      -5.932  -1.048 125.244  0.00  0.00    +0.000 N 
ATOM     14  C   UNL     1      -6.964  -1.684 124.550  0.00  0.00    +0.000 A 
ATOM     15  C   UNL     1      -7.759  -2.405 125.445  0.00  0.00    +0.000 A 
ATOM     16  C   UNL     1      -8.860  -3.129 125.025  0.00  0.00    +0.000 A 
ATOM     17  C   UNL     1      -9.155  -3.125 123.675  0.00  0.00    +0.000 A 
ATOM     18  F   UNL     1     -10.216  -3.821 123.249  0.00  0.00    +0.000 F 
ATOM     19  C   UNL     1      -8.367  -2.414 122.763  0.00  0.00    +0.000 A 
ATOM     20  C   UNL     1      -7.251  -1.675 123.196  0.00  0.00    +0.000 A 
ATOM     21  H   UNL     1      -5.205  -0.462 124.860  0.00  0.00    +0.000 HD
ENDBRANCH   5   9
BRANCH   1  23
ATOM     22  N   UNL     1      -5.961  -0.509 132.794  0.00  0.00    +0.000 N 
ATOM     23  C   UNL     1      -6.953  -1.466 132.662  0.00  0.00    +0.000 C 
ATOM     24  O   UNL     1      -7.787  -1.679 133.536  0.00  0.00    +0.000 OA
ATOM     25  H   UNL     1      -5.389  -0.285 131.992  0.00  0.00    +0.000 HD
BRANCH  22  26
ATOM     26  C   UNL     1      -5.908   0.295 133.998  0.00  0.00    +0.000 C 
BRANCH  26  27
ATOM     27  C   UNL     1      -6.342   1.766 133.821  0.00  0.00    +0.000 C 
BRANCH  27  28
ATOM     28  N   UNL     1      -7.188   2.016 132.613  0.00  0.00    +0.000 NA
BRANCH  28  30
ATOM     29  C   UNL     1      -9.716   1.894 132.294  0.00  0.00    +0.000 C 
ATOM     30  C   UNL     1      -8.526   2.477 133.053  0.00  0.00    +0.000 C 
ENDBRANCH  28  30
BRANCH  28  31
ATOM     31  C   UNL     1      -6.506   2.971 131.712  0.00  0.00    +0.000 C 
ATOM     32  C   UNL     1      -5.627   2.380 130.620  0.00  0.00    +0.000 C 
ENDBRANCH  28  31
ENDBRANCH  27  28
ENDBRANCH  26  27
ENDBRANCH  22  26
ENDBRANCH   1  23
TORSDOF 7
ENDMDL
MODEL 5
REMARK VINA RESULT:      -7.4      6.518      9.755
REMARK  Name = Sunitinib
REMARK  11 active torsions:
REMARK  status: ('A' for Active; 'I' for Inactive)
REMARK    1  A    between atoms: C_1  and  C_2
REMARK    2  A    between atoms: C_2  and  N_3
REMARK    3  A    between atoms: N_3  and  C_4
REMARK    4  A    between atoms: N_3  and  C_6
REMARK    5  A    between atoms: C_4  and  C_5
REMARK    6  A    between atoms: C_6  and  C_7
REMARK    7  A    between atoms: C_7  and  N_8
REMARK    8  A    between atoms: C_9  and  C_11
REMARK    9  A    between atoms: C_12  and  C_13
REMARK   10  A    between atoms: C_15  and  C_16
REMARK   11  A    between atoms: C_28  and  C_29
REMARK                            x       y       z     vdW  Elec       q    Type
REMARK                         _______ _______ _______ _____ _____    ______ ____
ROOT
ATOM      1  C   UNL     1      -9.159   3.014 130.155  0.00  0.00    +0.000 A 
ATOM      2  C   UNL     1      -8.198   2.880 129.162  0.00  0.00    +0.000 A 
ATOM      3  C   UNL     1      -7.789   3.737 128.025  0.00  0.00    +0.000 C 
ATOM      4  N   UNL     1      -7.503   1.726 129.403  0.00  0.00    +0.000 N 
ATOM      5  C   UNL     1      -7.966   1.103 130.525  0.00  0.00    +0.000 A 
ATOM      6  C   UNL     1      -9.000   1.878 131.031  0.00  0.00    +0.000 A 
ATOM      7  C   UNL     1      -9.816   1.590 132.248  0.00  0.00    +0.000 C 
ATOM      8  H   UNL     1      -6.731   1.398 128.830  0.00  0.00    +0.000 HD
ENDROOT
BRANCH   5   9
ATOM      9  C   UNL     1      -7.403  -0.109 130.985  0.00  0.00    +0.000 C 
ATOM     10  C   UNL     1      -7.163  -1.242 130.313  0.00  0.00    +0.000 C 
ATOM     11  C   UNL     1      -7.374  -1.654 128.879  0.00  0.00    +0.000 C 
ATOM     12  O   UNL     1      -7.838  -0.994 127.976  0.00  0.00    +0.000 OA
ATOM     13  N   UNL     1      -6.920  -2.970 128.809  0.00  0.00    +0.000 N 
ATOM     14  C   UNL     1      -6.450  -3.417 130.047  0.00  0.00    +0.000 A 
ATOM     15  C   UNL     1      -6.579  -2.398 130.995  0.00  0.00    +0.000 A 
ATOM     16  C   UNL     1      -6.194  -2.571 132.311  0.00  0.00    +0.000 A 
ATOM     17  C   UNL     1      -5.665  -3.796 132.670  0.00  0.00    +0.000 A 
ATOM     18  F   UNL     1      -5.285  -3.983 133.941  0.00  0.00    +0.000 F 
ATOM     19  C   UNL     1      -5.525  -4.827 131.735  0.00  0.00    +0.000 A 
ATOM     20  C   UNL     1      -5.923  -4.647 130.397  0.00  0.00    +0.000 A 
ATOM     21  H   UNL     1      -6.949  -3.487 127.942  0.00  0.00    +0.000 HD
ENDBRANCH   5   9
BRANCH   1  23
ATOM     22  N   UNL     1      -9.556   5.285 130.847  0.00  0.00    +0.000 N 
ATOM     23  C   UNL     1     -10.098   4.122 130.326  0.00  0.00    +0.000 C 
ATOM     24  O   UNL     1     -11.275   4.032 129.993  0.00  0.00    +0.000 OA
ATOM     25  H   UNL     1      -8.555   5.342 130.977  0.00  0.00    +0.000 HD
BRANCH  22  26
ATOM     26  C   UNL     1     -10.395   6.457 130.988  0.00  0.00    +0.000 C 
BRANCH  26  27
ATOM     27  C   UNL     1     -10.235   7.513 129.874  0.00  0.00    +0.000 C 
BRANCH  27  28
ATOM     28  N   UNL     1     -11.250   7.411 128.779  0.00  0.00    +0.000 NA
BRANCH  28  30
ATOM     29  C   UNL     1     -12.854   9.299 129.386  0.00  0.00    +0.000 C 
ATOM     30  C   UNL     1     -12.575   7.799 129.317  0.00  0.00    +0.000 C 
ENDBRANCH  28  30
BRANCH  28  31
ATOM     31  C   UNL     1     -10.824   8.229 127.623  0.00  0.00    +0.000 C 
ATOM     32  C   UNL     1     -11.054   7.639 126.240  0.00  0.00    +0.000 C 
ENDBRANCH  28  31
ENDBRANCH  27  28
ENDBRANCH  26  27
ENDBRANCH  22  26
ENDBRANCH   1  23
TORSDOF 7
ENDMDL
MODEL 6
REMARK VINA RESULT:      -7.3      6.486      7.598
REMARK  Name = Sunitinib
REMARK  11 active torsions:
REMARK  status: ('A' for Active; 'I' for Inactive)
REMARK    1  A    between atoms: C_1  and  C_2
REMARK    2  A    between atoms: C_2  and  N_3
REMARK    3  A    between atoms: N_3  and  C_4
REMARK    4  A    between atoms: N_3  and  C_6
REMARK    5  A    between atoms: C_4  and  C_5
REMARK    6  A    between atoms: C_6  and  C_7
REMARK    7  A    between atoms: C_7  and  N_8
REMARK    8  A    between atoms: C_9  and  C_11
REMARK    9  A    between atoms: C_12  and  C_13
REMARK   10  A    between atoms: C_15  and  C_16
REMARK   11  A    between atoms: C_28  and  C_29
REMARK                            x       y       z     vdW  Elec       q    Type
REMARK                         _______ _______ _______ _____ _____    ______ ____
ROOT
ATOM      1  C   UNL     1      -7.520   0.669 129.497  0.00  0.00    +0.000 A 
ATOM      2  C   UNL     1      -8.087   0.451 130.745  0.00  0.00    +0.000 A 
ATOM      3  C   UNL     1      -7.829  -0.537 131.818  0.00  0.00    +0.000 C 
ATOM      4  N   UNL     1      -9.018   1.431 130.961  0.00  0.00    +0.000 N 
ATOM      5  C   UNL     1      -9.073   2.292 129.903  0.00  0.00    +0.000 A 
ATOM      6  C   UNL     1      -8.148   1.855 128.967  0.00  0.00    +0.000 A 
ATOM      7  C   UNL     1      -7.858   2.481 127.642  0.00  0.00    +0.000 C 
ATOM      8  H   UNL     1      -9.571   1.512 131.809  0.00  0.00    +0.000 HD
ENDROOT
BRANCH   5   9
ATOM      9  C   UNL     1      -9.957   3.395 129.892  0.00  0.00    +0.000 C 
ATOM     10  C   UNL     1     -10.209   4.291 130.856  0.00  0.00    +0.000 C 
ATOM     11  C   UNL     1      -9.677   4.478 132.252  0.00  0.00    +0.000 C 
ATOM     12  O   UNL     1      -8.851   3.808 132.830  0.00  0.00    +0.000 OA
ATOM     13  N   UNL     1     -10.344   5.598 132.747  0.00  0.00    +0.000 N 
ATOM     14  C   UNL     1     -11.232   6.123 131.805  0.00  0.00    +0.000 A 
ATOM     15  C   UNL     1     -11.185   5.359 130.636  0.00  0.00    +0.000 A 
ATOM     16  C   UNL     1     -11.970   5.654 129.537  0.00  0.00    +0.000 A 
ATOM     17  C   UNL     1     -12.814   6.745 129.625  0.00  0.00    +0.000 A 
ATOM     18  F   UNL     1     -13.583   7.047 128.571  0.00  0.00    +0.000 F 
ATOM     19  C   UNL     1     -12.872   7.525 130.785  0.00  0.00    +0.000 A 
ATOM     20  C   UNL     1     -12.074   7.217 131.902  0.00  0.00    +0.000 A 
ATOM     21  H   UNL     1     -10.165   5.944 133.679  0.00  0.00    +0.000 HD
ENDBRANCH   5   9
BRANCH   1  23
ATOM     22  N   UNL     1      -6.844  -0.980 127.879  0.00  0.00    +0.000 N 
ATOM     23  C   UNL     1      -6.446  -0.102 128.873  0.00  0.00    +0.000 C 
ATOM     24  O   UNL     1      -5.270   0.052 129.188  0.00  0.00    +0.000 OA
ATOM     25  H   UNL     1      -7.807  -0.965 127.572  0.00  0.00    +0.000 HD
BRANCH  22  26
ATOM     26  C   UNL     1      -5.841  -1.736 127.159  0.00  0.00    +0.000 C 
BRANCH  26  27
ATOM     27  C   UNL     1      -5.896  -1.596 125.623  0.00  0.00    +0.000 C 
BRANCH  27  28
ATOM     28  N   UNL     1      -6.028  -2.893 124.890  0.00  0.00    +0.000 NA
BRANCH  28  30
ATOM     29  C   UNL     1      -8.433  -3.653 125.271  0.00  0.00    +0.000 C 
ATOM     30  C   UNL     1      -7.404  -3.000 124.351  0.00  0.00    +0.000 C 
ENDBRANCH  28  30
BRANCH  28  31
ATOM     31  C   UNL     1      -4.981  -2.991 123.850  0.00  0.00    +0.000 C 
ATOM     32  C   UNL     1      -4.347  -4.357 123.637  0.00  0.00    +0.000 C 
ENDBRANCH  28  31
ENDBRANCH  27  28
ENDBRANCH  26  27
ENDBRANCH  22  26
ENDBRANCH   1  23
TORSDOF 7
ENDMDL
MODEL 7
REMARK VINA RESULT:      -7.3      7.844     10.467
REMARK  Name = Sunitinib
REMARK  11 active torsions:
REMARK  status: ('A' for Active; 'I' for Inactive)
REMARK    1  A    between atoms: C_1  and  C_2
REMARK    2  A    between atoms: C_2  and  N_3
REMARK    3  A    between atoms: N_3  and  C_4
REMARK    4  A    between atoms: N_3  and  C_6
REMARK    5  A    between atoms: C_4  and  C_5
REMARK    6  A    between atoms: C_6  and  C_7
REMARK    7  A    between atoms: C_7  and  N_8
REMARK    8  A    between atoms: C_9  and  C_11
REMARK    9  A    between atoms: C_12  and  C_13
REMARK   10  A    between atoms: C_15  and  C_16
REMARK   11  A    between atoms: C_28  and  C_29
REMARK                            x       y       z     vdW  Elec       q    Type
REMARK                         _______ _______ _______ _____ _____    ______ ____
ROOT
ATOM      1  C   UNL     1      -6.110  -1.358 129.026  0.00  0.00    +0.000 A 
ATOM      2  C   UNL     1      -4.812  -1.774 129.291  0.00  0.00    +0.000 A 
ATOM      3  C   UNL     1      -4.149  -3.098 129.276  0.00  0.00    +0.000 C 
ATOM      4  N   UNL     1      -4.058  -0.660 129.546  0.00  0.00    +0.000 N 
ATOM      5  C   UNL     1      -4.812   0.473 129.447  0.00  0.00    +0.000 A 
ATOM      6  C   UNL     1      -6.102   0.082 129.118  0.00  0.00    +0.000 A 
ATOM      7  C   UNL     1      -7.278   0.979 128.912  0.00  0.00    +0.000 C 
ATOM      8  H   UNL     1      -3.064  -0.683 129.756  0.00  0.00    +0.000 HD
ENDROOT
BRANCH   5   9
ATOM      9  C   UNL     1      -4.255   1.754 129.662  0.00  0.00    +0.000 C 
ATOM     10  C   UNL     1      -3.884   2.679 128.767  0.00  0.00    +0.000 C 
ATOM     11  C   UNL     1      -3.918   2.728 127.262  0.00  0.00    +0.000 C 
ATOM     12  O   UNL     1      -4.318   1.878 126.499  0.00  0.00    +0.000 OA
ATOM     13  N   UNL     1      -3.384   3.972 126.928  0.00  0.00    +0.000 N 
ATOM     14  C   UNL     1      -3.023   4.697 128.066  0.00  0.00    +0.000 A 
ATOM     15  C   UNL     1      -3.309   3.949 129.211  0.00  0.00    +0.000 A 
ATOM     16  C   UNL     1      -3.046   4.428 130.481  0.00  0.00    +0.000 A 
ATOM     17  C   UNL     1      -2.488   5.687 130.591  0.00  0.00    +0.000 A 
ATOM     18  F   UNL     1      -2.226   6.169 131.812  0.00  0.00    +0.000 F 
ATOM     19  C   UNL     1      -2.199   6.453 129.456  0.00  0.00    +0.000 A 
ATOM     20  C   UNL     1      -2.464   5.959 128.165  0.00  0.00    +0.000 A 
ATOM     21  H   UNL     1      -3.296   4.260 125.963  0.00  0.00    +0.000 HD
ENDBRANCH   5   9
BRANCH   1  23
ATOM     22  N   UNL     1      -7.473  -2.324 127.294  0.00  0.00    +0.000 N 
ATOM     23  C   UNL     1      -7.244  -2.202 128.654  0.00  0.00    +0.000 C 
ATOM     24  O   UNL     1      -7.919  -2.788 129.494  0.00  0.00    +0.000 OA
ATOM     25  H   UNL     1      -6.805  -1.926 126.649  0.00  0.00    +0.000 HD
BRANCH  22  26
ATOM     26  C   UNL     1      -8.534  -3.194 126.830  0.00  0.00    +0.000 C 
BRANCH  26  27
ATOM     27  C   UNL     1      -8.338  -3.760 125.407  0.00  0.00    +0.000 C 
BRANCH  27  28
ATOM     28  N   UNL     1      -7.434  -2.943 124.539  0.00  0.00    +0.000 NA
BRANCH  28  30
ATOM     29  C   UNL     1      -5.031  -2.976 123.686  0.00  0.00    +0.000 C 
ATOM     30  C   UNL     1      -6.243  -3.754 124.192  0.00  0.00    +0.000 C 
ENDBRANCH  28  30
BRANCH  28  31
ATOM     31  C   UNL     1      -8.179  -2.459 123.356  0.00  0.00    +0.000 C 
ATOM     32  C   UNL     1      -9.564  -3.043 123.128  0.00  0.00    +0.000 C 
ENDBRANCH  28  31
ENDBRANCH  27  28
ENDBRANCH  26  27
ENDBRANCH  22  26
ENDBRANCH   1  23
TORSDOF 7
ENDMDL
MODEL 8
REMARK VINA RESULT:      -7.3      2.234      3.049
REMARK  Name = Sunitinib
REMARK  11 active torsions:
REMARK  status: ('A' for Active; 'I' for Inactive)
REMARK    1  A    between atoms: C_1  and  C_2
REMARK    2  A    between atoms: C_2  and  N_3
REMARK    3  A    between atoms: N_3  and  C_4
REMARK    4  A    between atoms: N_3  and  C_6
REMARK    5  A    between atoms: C_4  and  C_5
REMARK    6  A    between atoms: C_6  and  C_7
REMARK    7  A    between atoms: C_7  and  N_8
REMARK    8  A    between atoms: C_9  and  C_11
REMARK    9  A    between atoms: C_12  and  C_13
REMARK   10  A    between atoms: C_15  and  C_16
REMARK   11  A    between atoms: C_28  and  C_29
REMARK                            x       y       z     vdW  Elec       q    Type
REMARK                         _______ _______ _______ _____ _____    ______ ____
ROOT
ATOM      1  C   UNL     1      -4.350   5.598 131.804  0.00  0.00    +0.000 A 
ATOM      2  C   UNL     1      -5.152   4.594 132.329  0.00  0.00    +0.000 A 
ATOM      3  C   UNL     1      -4.873   3.413 133.179  0.00  0.00    +0.000 C 
ATOM      4  N   UNL     1      -6.449   4.871 131.989  0.00  0.00    +0.000 N 
ATOM      5  C   UNL     1      -6.527   6.028 131.270  0.00  0.00    +0.000 A 
ATOM      6  C   UNL     1      -5.237   6.519 131.135  0.00  0.00    +0.000 A 
ATOM      7  C   UNL     1      -4.828   7.763 130.417  0.00  0.00    +0.000 C 
ATOM      8  H   UNL     1      -7.242   4.299 132.263  0.00  0.00    +0.000 HD
ENDROOT
BRANCH   5   9
ATOM      9  C   UNL     1      -7.765   6.530 130.808  0.00  0.00    +0.000 C 
ATOM     10  C   UNL     1      -8.984   6.415 131.352  0.00  0.00    +0.000 C 
ATOM     11  C   UNL     1      -9.494   5.753 132.605  0.00  0.00    +0.000 C 
ATOM     12  O   UNL     1      -8.859   5.147 133.437  0.00  0.00    +0.000 OA
ATOM     13  N   UNL     1     -10.869   5.988 132.604  0.00  0.00    +0.000 N 
ATOM     14  C   UNL     1     -11.263   6.723 131.484  0.00  0.00    +0.000 A 
ATOM     15  C   UNL     1     -10.148   7.007 130.691  0.00  0.00    +0.000 A 
ATOM     16  C   UNL     1     -10.251   7.722 129.512  0.00  0.00    +0.000 A 
ATOM     17  C   UNL     1     -11.506   8.160 129.135  0.00  0.00    +0.000 A 
ATOM     18  F   UNL     1     -11.628   8.855 127.997  0.00  0.00    +0.000 F 
ATOM     19  C   UNL     1     -12.634   7.890 129.918  0.00  0.00    +0.000 A 
ATOM     20  C   UNL     1     -12.523   7.157 131.114  0.00  0.00    +0.000 A 
ATOM     21  H   UNL     1     -11.457   5.645 133.350  0.00  0.00    +0.000 HD
ENDBRANCH   5   9
BRANCH   1  23
ATOM     22  N   UNL     1      -2.485   6.306 133.151  0.00  0.00    +0.000 N 
ATOM     23  C   UNL     1      -2.903   5.738 131.959  0.00  0.00    +0.000 C 
ATOM     24  O   UNL     1      -2.117   5.342 131.104  0.00  0.00    +0.000 OA
ATOM     25  H   UNL     1      -3.170   6.489 133.871  0.00  0.00    +0.000 HD
BRANCH  22  26
ATOM     26  C   UNL     1      -1.067   6.422 133.422  0.00  0.00    +0.000 C 
BRANCH  26  27
ATOM     27  C   UNL     1      -0.448   7.795 133.083  0.00  0.00    +0.000 C 
BRANCH  27  28
ATOM     28  N   UNL     1       0.430   8.356 134.156  0.00  0.00    +0.000 NA
BRANCH  28  30
ATOM     29  C   UNL     1      -0.732  10.420 133.210  0.00  0.00    +0.000 C 
ATOM     30  C   UNL     1       0.154   9.805 134.291  0.00  0.00    +0.000 C 
ENDBRANCH  28  30
BRANCH  28  31
ATOM     31  C   UNL     1       0.231   7.600 135.412  0.00  0.00    +0.000 C 
ATOM     32  C   UNL     1       1.483   7.134 136.140  0.00  0.00    +0.000 C 
ENDBRANCH  28  31
ENDBRANCH  27  28
ENDBRANCH  26  27
ENDBRANCH  22  26
ENDBRANCH   1  23
TORSDOF 7
ENDMDL
MODEL 9
REMARK VINA RESULT:      -7.3      6.497      9.136
REMARK  Name = Sunitinib
REMARK  11 active torsions:
REMARK  status: ('A' for Active; 'I' for Inactive)
REMARK    1  A    between atoms: C_1  and  C_2
REMARK    2  A    between atoms: C_2  and  N_3
REMARK    3  A    between atoms: N_3  and  C_4
REMARK    4  A    between atoms: N_3  and  C_6
REMARK    5  A    between atoms: C_4  and  C_5
REMARK    6  A    between atoms: C_6  and  C_7
REMARK    7  A    between atoms: C_7  and  N_8
REMARK    8  A    between atoms: C_9  and  C_11
REMARK    9  A    between atoms: C_12  and  C_13
REMARK   10  A    between atoms: C_15  and  C_16
REMARK   11  A    between atoms: C_28  and  C_29
REMARK                            x       y       z     vdW  Elec       q    Type
REMARK                         _______ _______ _______ _____ _____    ______ ____
ROOT
ATOM      1  C   UNL     1      -8.396   3.501 129.453  0.00  0.00    +0.000 A 
ATOM      2  C   UNL     1      -8.621   2.490 130.377  0.00  0.00    +0.000 A 
ATOM      3  C   UNL     1      -9.005   2.491 131.808  0.00  0.00    +0.000 C 
ATOM      4  N   UNL     1      -8.501   1.292 129.727  0.00  0.00    +0.000 N 
ATOM      5  C   UNL     1      -8.216   1.480 128.406  0.00  0.00    +0.000 A 
ATOM      6  C   UNL     1      -8.146   2.849 128.190  0.00  0.00    +0.000 A 
ATOM      7  C   UNL     1      -7.851   3.532 126.895  0.00  0.00    +0.000 C 
ATOM      8  H   UNL     1      -8.633   0.388 130.172  0.00  0.00    +0.000 HD
ENDROOT
BRANCH   5   9
ATOM      9  C   UNL     1      -8.049   0.390 127.521  0.00  0.00    +0.000 C 
ATOM     10  C   UNL     1      -6.954  -0.005 126.859  0.00  0.00    +0.000 C 
ATOM     11  C   UNL     1      -5.541   0.514 126.801  0.00  0.00    +0.000 C 
ATOM     12  O   UNL     1      -5.074   1.465 127.386  0.00  0.00    +0.000 OA
ATOM     13  N   UNL     1      -4.877  -0.340 125.921  0.00  0.00    +0.000 N 
ATOM     14  C   UNL     1      -5.729  -1.332 125.429  0.00  0.00    +0.000 A 
ATOM     15  C   UNL     1      -7.006  -1.168 125.972  0.00  0.00    +0.000 A 
ATOM     16  C   UNL     1      -8.051  -2.014 125.650  0.00  0.00    +0.000 A 
ATOM     17  C   UNL     1      -7.795  -3.044 124.766  0.00  0.00    +0.000 A 
ATOM     18  F   UNL     1      -8.795  -3.874 124.441  0.00  0.00    +0.000 F 
ATOM     19  C   UNL     1      -6.522  -3.227 124.214  0.00  0.00    +0.000 A 
ATOM     20  C   UNL     1      -5.463  -2.360 124.542  0.00  0.00    +0.000 A 
ATOM     21  H   UNL     1      -3.899  -0.210 125.706  0.00  0.00    +0.000 HD
ENDBRANCH   5   9
BRANCH   1  23
ATOM     22  N   UNL     1      -9.746   5.480 129.684  0.00  0.00    +0.000 N 
ATOM     23  C   UNL     1      -8.471   4.942 129.690  0.00  0.00    +0.000 C 
ATOM     24  O   UNL     1      -7.470   5.614 129.917  0.00  0.00    +0.000 OA
ATOM     25  H   UNL     1     -10.539   4.856 129.626  0.00  0.00    +0.000 HD
BRANCH  22  26
ATOM     26  C   UNL     1      -9.923   6.887 129.978  0.00  0.00    +0.000 C 
BRANCH  26  27
ATOM     27  C   UNL     1     -11.382   7.386 129.929  0.00  0.00    +0.000 C 
BRANCH  27  28
ATOM     28  N   UNL     1     -11.630   8.467 128.925  0.00  0.00    +0.000 NA
BRANCH  28  30
ATOM     29  C   UNL     1     -10.933   7.813 126.561  0.00  0.00    +0.000 C 
ATOM     30  C   UNL     1     -10.555   8.429 127.906  0.00  0.00    +0.000 C 
ENDBRANCH  28  30
BRANCH  28  31
ATOM     31  C   UNL     1     -12.987   8.319 128.353  0.00  0.00    +0.000 C 
ATOM     32  C   UNL     1     -13.670   6.974 128.545  0.00  0.00    +0.000 C 
ENDBRANCH  28  31
ENDBRANCH  27  28
ENDBRANCH  26  27
ENDBRANCH  22  26
ENDBRANCH   1  23
TORSDOF 7
ENDMDL
