MODEL 1
REMARK VINA RESULT:      -7.1      0.000      0.000
REMARK  Name = Suprofen
REMARK  6 active torsions:
REMARK  status: ('A' for Active; 'I' for Inactive)
REMARK    1  A    between atoms: C_1  and  C_2
REMARK    2  A    between atoms: C_2  and  C_3
REMARK    3  A    between atoms: C_2  and  C_6
REMARK    4  A    between atoms: C_3  and  O_4
REMARK    5  A    between atoms: C_9  and  C_12
REMARK    6  A    between atoms: C_12  and  C_14
REMARK                            x       y       z     vdW  Elec       q    Type
REMARK                         _______ _______ _______ _____ _____    ______ ____
ROOT
ATOM      1  C   UNL     1     -11.771   7.907 129.705  0.00  0.00    +0.000 A 
ATOM      2  C   UNL     1     -10.392   7.715 129.521  0.00  0.00    +0.000 A 
ATOM      3  C   UNL     1      -9.665   6.897 130.395  0.00  0.00    +0.000 A 
ATOM      4  C   UNL     1     -10.291   6.302 131.499  0.00  0.00    +0.000 A 
ATOM      5  C   UNL     1     -11.662   6.495 131.679  0.00  0.00    +0.000 A 
ATOM      6  C   UNL     1     -12.387   7.281 130.796  0.00  0.00    +0.000 A 
ENDROOT
BRANCH   1   8
ATOM      7  C   UNL     1     -13.660   7.944 128.002  0.00  0.00    +0.000 C 
ATOM      8  C   UNL     1     -12.574   8.756 128.727  0.00  0.00    +0.000 C 
BRANCH   8   9
ATOM      9  C   UNL     1     -13.218  10.010 129.312  0.00  0.00    +0.000 C 
ATOM     10  O   UNL     1     -13.142  10.288 130.506  0.00  0.00    +0.000 OA
BRANCH   9  11
ATOM     11  O   UNL     1     -13.883  10.823 128.464  0.00  0.00    +0.000 OA
ATOM     12  H   UNL     1     -14.711  10.471 128.087  0.00  0.00    +0.000 HD
ENDBRANCH   9  11
ENDBRANCH   8   9
ENDBRANCH   1   8
BRANCH   4  13
ATOM     13  C   UNL     1      -9.472   5.554 132.507  0.00  0.00    +0.000 C 
ATOM     14  O   UNL     1      -9.024   6.180 133.469  0.00  0.00    +0.000 OA
BRANCH  13  15
ATOM     15  C   UNL     1      -9.277   4.125 132.324  0.00  0.00    +0.000 A 
ATOM     16  C   UNL     1      -9.766   3.312 131.321  0.00  0.00    +0.000 A 
ATOM     17  C   UNL     1      -9.408   1.947 131.503  0.00  0.00    +0.000 A 
ATOM     18  C   UNL     1      -8.642   1.763 132.633  0.00  0.00    +0.000 A 
ATOM     19  S   UNL     1      -8.359   3.236 133.462  0.00  0.00    +0.000 S 
ENDBRANCH  13  15
ENDBRANCH   4  13
TORSDOF 5
ENDMDL
MODEL 2
REMARK VINA RESULT:      -7.0      9.613     10.285
REMARK  Name = Suprofen
REMARK  6 active torsions:
REMARK  status: ('A' for Active; 'I' for Inactive)
REMARK    1  A    between atoms: C_1  and  C_2
REMARK    2  A    between atoms: C_2  and  C_3
REMARK    3  A    between atoms: C_2  and  C_6
REMARK    4  A    between atoms: C_3  and  O_4
REMARK    5  A    between atoms: C_9  and  C_12
REMARK    6  A    between atoms: C_12  and  C_14
REMARK                            x       y       z     vdW  Elec       q    Type
REMARK                         _______ _______ _______ _____ _____    ______ ____
ROOT
ATOM      1  C   UNL     1      -6.814   3.946 120.747  0.00  0.00    +0.000 A 
ATOM      2  C   UNL     1      -5.966   3.841 121.862  0.00  0.00    +0.000 A 
ATOM      3  C   UNL     1      -6.456   3.367 123.085  0.00  0.00    +0.000 A 
ATOM      4  C   UNL     1      -7.812   3.043 123.232  0.00  0.00    +0.000 A 
ATOM      5  C   UNL     1      -8.652   3.148 122.122  0.00  0.00    +0.000 A 
ATOM      6  C   UNL     1      -8.160   3.589 120.903  0.00  0.00    +0.000 A 
ENDROOT
BRANCH   1   8
ATOM      7  C   UNL     1      -7.373   4.510 118.331  0.00  0.00    +0.000 C 
ATOM      8  C   UNL     1      -6.274   4.415 119.402  0.00  0.00    +0.000 C 
BRANCH   8   9
ATOM      9  C   UNL     1      -5.500   5.730 119.420  0.00  0.00    +0.000 C 
ATOM     10  O   UNL     1      -4.764   6.043 120.352  0.00  0.00    +0.000 OA
BRANCH   9  11
ATOM     11  O   UNL     1      -5.647   6.554 118.361  0.00  0.00    +0.000 OA
ATOM     12  H   UNL     1      -5.270   6.245 117.516  0.00  0.00    +0.000 HD
ENDBRANCH   9  11
ENDBRANCH   8   9
ENDBRANCH   1   8
BRANCH   4  13
ATOM     13  C   UNL     1      -8.350   2.681 124.583  0.00  0.00    +0.000 C 
ATOM     14  O   UNL     1      -8.698   3.594 125.333  0.00  0.00    +0.000 OA
BRANCH  13  15
ATOM     15  C   UNL     1      -8.472   1.275 124.930  0.00  0.00    +0.000 A 
ATOM     16  C   UNL     1      -9.477   0.648 125.641  0.00  0.00    +0.000 A 
ATOM     17  C   UNL     1      -9.227  -0.740 125.832  0.00  0.00    +0.000 A 
ATOM     18  C   UNL     1      -8.045  -1.133 125.245  0.00  0.00    +0.000 A 
ATOM     19  S   UNL     1      -7.249   0.171 124.468  0.00  0.00    +0.000 S 
ENDBRANCH  13  15
ENDBRANCH   4  13
TORSDOF 5
ENDMDL
MODEL 3
REMARK VINA RESULT:      -6.8      1.884      2.452
REMARK  Name = Suprofen
REMARK  6 active torsions:
REMARK  status: ('A' for Active; 'I' for Inactive)
REMARK    1  A    between atoms: C_1  and  C_2
REMARK    2  A    between atoms: C_2  and  C_3
REMARK    3  A    between atoms: C_2  and  C_6
REMARK    4  A    between atoms: C_3  and  O_4
REMARK    5  A    between atoms: C_9  and  C_12
REMARK    6  A    between atoms: C_12  and  C_14
REMARK                            x       y       z     vdW  Elec       q    Type
REMARK                         _______ _______ _______ _____ _____    ______ ____
ROOT
ATOM      1  C   UNL     1     -11.466   7.171 129.629  0.00  0.00    +0.000 A 
ATOM      2  C   UNL     1     -12.063   6.607 130.769  0.00  0.00    +0.000 A 
ATOM      3  C   UNL     1     -11.278   6.193 131.851  0.00  0.00    +0.000 A 
ATOM      4  C   UNL     1      -9.880   6.282 131.792  0.00  0.00    +0.000 A 
ATOM      5  C   UNL     1      -9.289   6.843 130.657  0.00  0.00    +0.000 A 
ATOM      6  C   UNL     1     -10.070   7.280 129.598  0.00  0.00    +0.000 A 
ENDROOT
BRANCH   1   8
ATOM      7  C   UNL     1     -12.797   9.116 128.672  0.00  0.00    +0.000 C 
ATOM      8  C   UNL     1     -12.322   7.668 128.470  0.00  0.00    +0.000 C 
BRANCH   8   9
ATOM      9  C   UNL     1     -11.692   7.555 127.084  0.00  0.00    +0.000 C 
ATOM     10  O   UNL     1     -10.853   8.356 126.680  0.00  0.00    +0.000 OA
BRANCH   9  11
ATOM     11  O   UNL     1     -12.087   6.528 126.301  0.00  0.00    +0.000 OA
ATOM     12  H   UNL     1     -12.462   5.753 126.761  0.00  0.00    +0.000 HD
ENDBRANCH   9  11
ENDBRANCH   8   9
ENDBRANCH   1   8
BRANCH   4  13
ATOM     13  C   UNL     1      -9.047   5.699 132.893  0.00  0.00    +0.000 C 
ATOM     14  O   UNL     1      -8.830   6.393 133.887  0.00  0.00    +0.000 OA
BRANCH  13  15
ATOM     15  C   UNL     1      -8.568   4.333 132.754  0.00  0.00    +0.000 A 
ATOM     16  C   UNL     1      -9.133   3.169 133.238  0.00  0.00    +0.000 A 
ATOM     17  C   UNL     1      -8.345   2.020 132.949  0.00  0.00    +0.000 A 
ATOM     18  C   UNL     1      -7.210   2.340 132.238  0.00  0.00    +0.000 A 
ATOM     19  S   UNL     1      -7.104   4.022 131.923  0.00  0.00    +0.000 S 
ENDBRANCH  13  15
ENDBRANCH   4  13
TORSDOF 5
ENDMDL
MODEL 4
REMARK VINA RESULT:      -6.5      9.502     10.211
REMARK  Name = Suprofen
REMARK  6 active torsions:
REMARK  status: ('A' for Active; 'I' for Inactive)
REMARK    1  A    between atoms: C_1  and  C_2
REMARK    2  A    between atoms: C_2  and  C_3
REMARK    3  A    between atoms: C_2  and  C_6
REMARK    4  A    between atoms: C_3  and  O_4
REMARK    5  A    between atoms: C_9  and  C_12
REMARK    6  A    between atoms: C_12  and  C_14
REMARK                            x       y       z     vdW  Elec       q    Type
REMARK                         _______ _______ _______ _____ _____    ______ ____
ROOT
ATOM      1  C   UNL     1      -6.113   3.994 121.428  0.00  0.00    +0.000 A 
ATOM      2  C   UNL     1      -7.121   3.279 122.096  0.00  0.00    +0.000 A 
ATOM      3  C   UNL     1      -7.056   3.087 123.481  0.00  0.00    +0.000 A 
ATOM      4  C   UNL     1      -5.957   3.556 124.215  0.00  0.00    +0.000 A 
ATOM      5  C   UNL     1      -4.957   4.266 123.547  0.00  0.00    +0.000 A 
ATOM      6  C   UNL     1      -5.037   4.482 122.180  0.00  0.00    +0.000 A 
ENDROOT
BRANCH   1   8
ATOM      7  C   UNL     1      -7.657   4.241 119.422  0.00  0.00    +0.000 C 
ATOM      8  C   UNL     1      -6.205   4.248 119.928  0.00  0.00    +0.000 C 
BRANCH   8   9
ATOM      9  C   UNL     1      -5.524   5.518 119.427  0.00  0.00    +0.000 C 
ATOM     10  O   UNL     1      -4.836   6.225 120.160  0.00  0.00    +0.000 OA
BRANCH   9  11
ATOM     11  O   UNL     1      -5.699   5.849 118.130  0.00  0.00    +0.000 OA
ATOM     12  H   UNL     1      -5.458   6.761 117.880  0.00  0.00    +0.000 HD
ENDBRANCH   9  11
ENDBRANCH   8   9
ENDBRANCH   1   8
BRANCH   4  13
ATOM     13  C   UNL     1      -5.829   3.213 125.668  0.00  0.00    +0.000 C 
ATOM     14  O   UNL     1      -6.639   2.421 126.151  0.00  0.00    +0.000 OA
BRANCH  13  15
ATOM     15  C   UNL     1      -4.738   3.799 126.428  0.00  0.00    +0.000 A 
ATOM     16  C   UNL     1      -4.667   5.052 127.006  0.00  0.00    +0.000 A 
ATOM     17  C   UNL     1      -3.411   5.295 127.629  0.00  0.00    +0.000 A 
ATOM     18  C   UNL     1      -2.566   4.213 127.521  0.00  0.00    +0.000 A 
ATOM     19  S   UNL     1      -3.295   2.913 126.674  0.00  0.00    +0.000 S 
ENDBRANCH  13  15
ENDBRANCH   4  13
TORSDOF 5
ENDMDL
MODEL 5
REMARK VINA RESULT:      -6.4      9.879     11.149
REMARK  Name = Suprofen
REMARK  6 active torsions:
REMARK  status: ('A' for Active; 'I' for Inactive)
REMARK    1  A    between atoms: C_1  and  C_2
REMARK    2  A    between atoms: C_2  and  C_3
REMARK    3  A    between atoms: C_2  and  C_6
REMARK    4  A    between atoms: C_3  and  O_4
REMARK    5  A    between atoms: C_9  and  C_12
REMARK    6  A    between atoms: C_12  and  C_14
REMARK                            x       y       z     vdW  Elec       q    Type
REMARK                         _______ _______ _______ _____ _____    ______ ____
ROOT
ATOM      1  C   UNL     1      -7.884  -3.002 125.771  0.00  0.00    +0.000 A 
ATOM      2  C   UNL     1      -8.742  -3.676 126.656  0.00  0.00    +0.000 A 
ATOM      3  C   UNL     1      -8.696  -3.412 128.030  0.00  0.00    +0.000 A 
ATOM      4  C   UNL     1      -7.756  -2.512 128.552  0.00  0.00    +0.000 A 
ATOM      5  C   UNL     1      -6.904  -1.843 127.669  0.00  0.00    +0.000 A 
ATOM      6  C   UNL     1      -6.971  -2.084 126.305  0.00  0.00    +0.000 A 
ENDROOT
BRANCH   1   8
ATOM      7  C   UNL     1      -9.416  -3.347 123.771  0.00  0.00    +0.000 C 
ATOM      8  C   UNL     1      -7.965  -3.251 124.270  0.00  0.00    +0.000 C 
BRANCH   8   9
ATOM      9  C   UNL     1      -7.215  -2.254 123.391  0.00  0.00    +0.000 C 
ATOM     10  O   UNL     1      -7.739  -1.222 122.980  0.00  0.00    +0.000 OA
BRANCH   9  11
ATOM     11  O   UNL     1      -5.935  -2.542 123.074  0.00  0.00    +0.000 OA
ATOM     12  H   UNL     1      -5.436  -1.842 122.612  0.00  0.00    +0.000 HD
ENDBRANCH   9  11
ENDBRANCH   8   9
ENDBRANCH   1   8
BRANCH   4  13
ATOM     13  C   UNL     1      -7.618  -2.352 130.035  0.00  0.00    +0.000 C 
ATOM     14  O   UNL     1      -8.234  -1.435 130.580  0.00  0.00    +0.000 OA
BRANCH  13  15
ATOM     15  C   UNL     1      -6.797  -3.305 130.765  0.00  0.00    +0.000 A 
ATOM     16  C   UNL     1      -6.039  -4.346 130.267  0.00  0.00    +0.000 A 
ATOM     17  C   UNL     1      -5.409  -5.102 131.295  0.00  0.00    +0.000 A 
ATOM     18  C   UNL     1      -5.692  -4.603 132.547  0.00  0.00    +0.000 A 
ATOM     19  S   UNL     1      -6.713  -3.227 132.473  0.00  0.00    +0.000 S 
ENDBRANCH  13  15
ENDBRANCH   4  13
TORSDOF 5
ENDMDL
MODEL 6
REMARK VINA RESULT:      -6.4      9.434     10.299
REMARK  Name = Suprofen
REMARK  6 active torsions:
REMARK  status: ('A' for Active; 'I' for Inactive)
REMARK    1  A    between atoms: C_1  and  C_2
REMARK    2  A    between atoms: C_2  and  C_3
REMARK    3  A    between atoms: C_2  and  C_6
REMARK    4  A    between atoms: C_3  and  O_4
REMARK    5  A    between atoms: C_9  and  C_12
REMARK    6  A    between atoms: C_12  and  C_14
REMARK                            x       y       z     vdW  Elec       q    Type
REMARK                         _______ _______ _______ _____ _____    ______ ____
ROOT
ATOM      1  C   UNL     1      -6.775   3.216 121.512  0.00  0.00    +0.000 A 
ATOM      2  C   UNL     1      -8.160   3.441 121.442  0.00  0.00    +0.000 A 
ATOM      3  C   UNL     1      -9.032   2.780 122.315  0.00  0.00    +0.000 A 
ATOM      4  C   UNL     1      -8.544   1.841 123.234  0.00  0.00    +0.000 A 
ATOM      5  C   UNL     1      -7.166   1.619 123.301  0.00  0.00    +0.000 A 
ATOM      6  C   UNL     1      -6.300   2.297 122.457  0.00  0.00    +0.000 A 
ENDROOT
BRANCH   1   8
ATOM      7  C   UNL     1      -6.536   4.597 119.390  0.00  0.00    +0.000 C 
ATOM      8  C   UNL     1      -5.818   3.971 120.597  0.00  0.00    +0.000 C 
BRANCH   8   9
ATOM      9  C   UNL     1      -4.970   5.048 121.267  0.00  0.00    +0.000 C 
ATOM     10  O   UNL     1      -4.636   4.977 122.448  0.00  0.00    +0.000 OA
BRANCH   9  11
ATOM     11  O   UNL     1      -4.586   6.099 120.513  0.00  0.00    +0.000 OA
ATOM     12  H   UNL     1      -4.815   6.984 120.856  0.00  0.00    +0.000 HD
ENDBRANCH   9  11
ENDBRANCH   8   9
ENDBRANCH   1   8
BRANCH   4  13
ATOM     13  C   UNL     1      -9.501   1.033 124.056  0.00  0.00    +0.000 C 
ATOM     14  O   UNL     1     -10.706   1.260 123.934  0.00  0.00    +0.000 OA
BRANCH  13  15
ATOM     15  C   UNL     1      -8.970  -0.002 124.928  0.00  0.00    +0.000 A 
ATOM     16  C   UNL     1      -8.592   0.100 126.253  0.00  0.00    +0.000 A 
ATOM     17  C   UNL     1      -8.065  -1.119 126.764  0.00  0.00    +0.000 A 
ATOM     18  C   UNL     1      -8.072  -2.119 125.818  0.00  0.00    +0.000 A 
ATOM     19  S   UNL     1      -8.717  -1.582 124.322  0.00  0.00    +0.000 S 
ENDBRANCH  13  15
ENDBRANCH   4  13
TORSDOF 5
ENDMDL
MODEL 7
REMARK VINA RESULT:      -6.3      9.435     10.124
REMARK  Name = Suprofen
REMARK  6 active torsions:
REMARK  status: ('A' for Active; 'I' for Inactive)
REMARK    1  A    between atoms: C_1  and  C_2
REMARK    2  A    between atoms: C_2  and  C_3
REMARK    3  A    between atoms: C_2  and  C_6
REMARK    4  A    between atoms: C_3  and  O_4
REMARK    5  A    between atoms: C_9  and  C_12
REMARK    6  A    between atoms: C_12  and  C_14
REMARK                            x       y       z     vdW  Elec       q    Type
REMARK                         _______ _______ _______ _____ _____    ______ ____
ROOT
ATOM      1  C   UNL     1      -6.739   3.885 120.740  0.00  0.00    +0.000 A 
ATOM      2  C   UNL     1      -8.112   3.649 120.924  0.00  0.00    +0.000 A 
ATOM      3  C   UNL     1      -8.599   3.222 122.165  0.00  0.00    +0.000 A 
ATOM      4  C   UNL     1      -7.720   2.968 123.227  0.00  0.00    +0.000 A 
ATOM      5  C   UNL     1      -6.356   3.203 123.041  0.00  0.00    +0.000 A 
ATOM      6  C   UNL     1      -5.878   3.656 121.820  0.00  0.00    +0.000 A 
ENDROOT
BRANCH   1   8
ATOM      7  C   UNL     1      -7.317   4.500 118.341  0.00  0.00    +0.000 C 
ATOM      8  C   UNL     1      -6.212   4.397 119.405  0.00  0.00    +0.000 C 
BRANCH   8   9
ATOM      9  C   UNL     1      -5.462   5.725 119.454  0.00  0.00    +0.000 C 
ATOM     10  O   UNL     1      -4.749   6.039 120.404  0.00  0.00    +0.000 OA
BRANCH   9  11
ATOM     11  O   UNL     1      -5.604   6.560 118.403  0.00  0.00    +0.000 OA
ATOM     12  H   UNL     1      -5.255   6.242 117.548  0.00  0.00    +0.000 HD
ENDBRANCH   9  11
ENDBRANCH   8   9
ENDBRANCH   1   8
BRANCH   4  13
ATOM     13  C   UNL     1      -8.238   2.370 124.499  0.00  0.00    +0.000 C 
ATOM     14  O   UNL     1      -9.137   1.531 124.422  0.00  0.00    +0.000 OA
BRANCH  13  15
ATOM     15  C   UNL     1      -7.635   2.777 125.757  0.00  0.00    +0.000 A 
ATOM     16  C   UNL     1      -7.715   3.999 126.395  0.00  0.00    +0.000 A 
ATOM     17  C   UNL     1      -6.944   4.043 127.590  0.00  0.00    +0.000 A 
ATOM     18  C   UNL     1      -6.311   2.845 127.837  0.00  0.00    +0.000 A 
ATOM     19  S   UNL     1      -6.653   1.678 126.629  0.00  0.00    +0.000 S 
ENDBRANCH  13  15
ENDBRANCH   4  13
TORSDOF 5
ENDMDL
MODEL 8
REMARK VINA RESULT:      -6.3      3.281      6.628
REMARK  Name = Suprofen
REMARK  6 active torsions:
REMARK  status: ('A' for Active; 'I' for Inactive)
REMARK    1  A    between atoms: C_1  and  C_2
REMARK    2  A    between atoms: C_2  and  C_3
REMARK    3  A    between atoms: C_2  and  C_6
REMARK    4  A    between atoms: C_3  and  O_4
REMARK    5  A    between atoms: C_9  and  C_12
REMARK    6  A    between atoms: C_12  and  C_14
REMARK                            x       y       z     vdW  Elec       q    Type
REMARK                         _______ _______ _______ _____ _____    ______ ____
ROOT
ATOM      1  C   UNL     1      -7.517   6.520 131.510  0.00  0.00    +0.000 A 
ATOM      2  C   UNL     1      -8.105   7.153 130.402  0.00  0.00    +0.000 A 
ATOM      3  C   UNL     1      -9.495   7.303 130.325  0.00  0.00    +0.000 A 
ATOM      4  C   UNL     1     -10.325   6.775 131.324  0.00  0.00    +0.000 A 
ATOM      5  C   UNL     1      -9.737   6.146 132.423  0.00  0.00    +0.000 A 
ATOM      6  C   UNL     1      -8.358   6.025 132.514  0.00  0.00    +0.000 A 
ENDROOT
BRANCH   1   8
ATOM      7  C   UNL     1      -5.568   5.602 132.862  0.00  0.00    +0.000 C 
ATOM      8  C   UNL     1      -6.001   6.399 131.621  0.00  0.00    +0.000 C 
BRANCH   8   9
ATOM      9  C   UNL     1      -5.292   5.819 130.401  0.00  0.00    +0.000 C 
ATOM     10  O   UNL     1      -5.199   4.608 130.212  0.00  0.00    +0.000 OA
BRANCH   9  11
ATOM     11  O   UNL     1      -4.760   6.689 129.516  0.00  0.00    +0.000 OA
ATOM     12  H   UNL     1      -4.568   6.338 128.626  0.00  0.00    +0.000 HD
ENDBRANCH   9  11
ENDBRANCH   8   9
ENDBRANCH   1   8
BRANCH   4  13
ATOM     13  C   UNL     1     -11.813   6.810 131.153  0.00  0.00    +0.000 C 
ATOM     14  O   UNL     1     -12.509   6.275 132.017  0.00  0.00    +0.000 OA
BRANCH  13  15
ATOM     15  C   UNL     1     -12.366   7.503 130.001  0.00  0.00    +0.000 A 
ATOM     16  C   UNL     1     -12.596   8.856 129.839  0.00  0.00    +0.000 A 
ATOM     17  C   UNL     1     -13.201   9.160 128.588  0.00  0.00    +0.000 A 
ATOM     18  C   UNL     1     -13.400   8.030 127.825  0.00  0.00    +0.000 A 
ATOM     19  S   UNL     1     -12.853   6.614 128.622  0.00  0.00    +0.000 S 
ENDBRANCH  13  15
ENDBRANCH   4  13
TORSDOF 5
ENDMDL
MODEL 9
REMARK VINA RESULT:      -6.3      2.808      3.381
REMARK  Name = Suprofen
REMARK  6 active torsions:
REMARK  status: ('A' for Active; 'I' for Inactive)
REMARK    1  A    between atoms: C_1  and  C_2
REMARK    2  A    between atoms: C_2  and  C_3
REMARK    3  A    between atoms: C_2  and  C_6
REMARK    4  A    between atoms: C_3  and  O_4
REMARK    5  A    between atoms: C_9  and  C_12
REMARK    6  A    between atoms: C_12  and  C_14
REMARK                            x       y       z     vdW  Elec       q    Type
REMARK                         _______ _______ _______ _____ _____    ______ ____
ROOT
ATOM      1  C   UNL     1     -11.474   7.310 130.516  0.00  0.00    +0.000 A 
ATOM      2  C   UNL     1     -10.268   7.591 129.850  0.00  0.00    +0.000 A 
ATOM      3  C   UNL     1      -9.052   7.116 130.355  0.00  0.00    +0.000 A 
ATOM      4  C   UNL     1      -9.010   6.402 131.561  0.00  0.00    +0.000 A 
ATOM      5  C   UNL     1     -10.210   6.125 132.219  0.00  0.00    +0.000 A 
ATOM      6  C   UNL     1     -11.418   6.570 131.703  0.00  0.00    +0.000 A 
ENDROOT
BRANCH   1   8
ATOM      7  C   UNL     1     -12.844   9.306 129.740  0.00  0.00    +0.000 C 
ATOM      8  C   UNL     1     -12.804   7.783 129.944  0.00  0.00    +0.000 C 
BRANCH   8   9
ATOM      9  C   UNL     1     -13.246   7.110 128.647  0.00  0.00    +0.000 C 
ATOM     10  O   UNL     1     -13.037   5.919 128.425  0.00  0.00    +0.000 OA
BRANCH   9  11
ATOM     11  O   UNL     1     -13.887   7.871 127.736  0.00  0.00    +0.000 OA
ATOM     12  H   UNL     1     -13.851   8.836 127.876  0.00  0.00    +0.000 HD
ENDBRANCH   9  11
ENDBRANCH   8   9
ENDBRANCH   1   8
BRANCH   4  13
ATOM     13  C   UNL     1      -7.689   6.032 132.163  0.00  0.00    +0.000 C 
ATOM     14  O   UNL     1      -7.657   5.746 133.361  0.00  0.00    +0.000 OA
BRANCH  13  15
ATOM     15  C   UNL     1      -6.517   5.991 131.303  0.00  0.00    +0.000 A 
ATOM     16  C   UNL     1      -5.551   6.961 131.120  0.00  0.00    +0.000 A 
ATOM     17  C   UNL     1      -4.578   6.584 130.153  0.00  0.00    +0.000 A 
ATOM     18  C   UNL     1      -4.823   5.331 129.638  0.00  0.00    +0.000 A 
ATOM     19  S   UNL     1      -6.221   4.617 130.327  0.00  0.00    +0.000 S 
ENDBRANCH  13  15
ENDBRANCH   4  13
TORSDOF 5
ENDMDL
