MODEL 1
REMARK VINA RESULT:      -9.2      0.000      0.000
REMARK  Name = Suvorexant
REMARK  4 active torsions:
REMARK  status: ('A' for Active; 'I' for Inactive)
REMARK    1  A    between atoms: C_2  and  C_3
REMARK    2  A    between atoms: C_10  and  C_12
REMARK    3  A    between atoms: C_13  and  N_19
REMARK    4  A    between atoms: C_16  and  C_17
REMARK                            x       y       z     vdW  Elec       q    Type
REMARK                         _______ _______ _______ _____ _____    ______ ____
ROOT
ATOM      1  C   UNL     1      -7.211   2.762 131.088  0.00  0.00    +0.000 C 
ATOM      2  C   UNL     1      -7.109   2.321 132.562  0.00  0.00    +0.000 C 
ATOM      3  C   UNL     1      -7.258   4.297 130.966  0.00  0.00    +0.000 C 
ATOM      4  C   UNL     1      -8.523   4.938 131.519  0.00  0.00    +0.000 C 
ATOM      5  N   UNL     1      -9.591   4.774 130.559  0.00  0.00    +0.000 N 
ATOM      6  C   UNL     1     -10.433   3.552 130.745  0.00  0.00    +0.000 C 
ATOM      7  C   UNL     1      -9.657   2.237 131.031  0.00  0.00    +0.000 C 
ATOM      8  N   UNL     1      -8.339   2.070 130.420  0.00  0.00    +0.000 N 
ATOM      9  C   UNL     1      -8.304   1.628 129.095  0.00  0.00    +0.000 C 
ATOM     10  O   UNL     1      -9.248   1.933 128.314  0.00  0.00    +0.000 OA
ATOM     11  C   UNL     1      -9.978   5.769 129.684  0.00  0.00    +0.000 A 
ATOM     12  N   UNL     1      -9.426   6.866 129.135  0.00  0.00    +0.000 NA
ATOM     13  C   UNL     1     -10.497   7.508 128.416  0.00  0.00    +0.000 A 
ATOM     14  C   UNL     1     -11.532   6.575 128.401  0.00  0.00    +0.000 A 
ATOM     15  O   UNL     1     -11.299   5.677 129.383  0.00  0.00    +0.000 OA
ATOM     16  C   UNL     1     -12.785   6.961 127.980  0.00  0.00    +0.000 A 
ATOM     17  C   UNL     1     -13.087   7.718 129.078  0.00  0.00    +0.000 A 
ATOM     18  C   UNL     1     -12.441   8.922 128.973  0.00  0.00    +0.000 A 
ATOM     19 CL   UNL     1     -13.737  10.076 128.703  0.00  0.00    +0.000 Cl
ATOM     20  C   UNL     1     -11.083   8.865 128.377  0.00  0.00    +0.000 A 
ENDROOT
BRANCH   9  21
ATOM     21  C   UNL     1      -7.317   0.557 128.690  0.00  0.00    +0.000 A 
ATOM     22  C   UNL     1      -6.277   0.740 127.754  0.00  0.00    +0.000 A 
ATOM     23  C   UNL     1      -5.517  -0.361 127.293  0.00  0.00    +0.000 A 
ATOM     24  C   UNL     1      -5.759  -1.651 127.779  0.00  0.00    +0.000 A 
ATOM     25  C   UNL     1      -6.792  -1.865 128.683  0.00  0.00    +0.000 A 
ATOM     26  C   UNL     1      -7.106  -3.227 129.233  0.00  0.00    +0.000 C 
ATOM     27  C   UNL     1      -7.570  -0.773 129.089  0.00  0.00    +0.000 A 
BRANCH  22  28
ATOM     28  N   UNL     1      -5.993   2.010 127.200  0.00  0.00    +0.000 N 
ATOM     29  N   UNL     1      -5.190   2.907 127.836  0.00  0.00    +0.000 NA
ATOM     30  C   UNL     1      -5.229   3.945 126.997  0.00  0.00    +0.000 A 
ATOM     31  C   UNL     1      -5.905   3.589 125.827  0.00  0.00    +0.000 A 
ATOM     32  N   UNL     1      -6.288   2.310 125.897  0.00  0.00    +0.000 NA
ENDBRANCH  22  28
ENDBRANCH   9  21
TORSDOF 2
ENDMDL
MODEL 2
REMARK VINA RESULT:      -9.1      1.795      2.220
REMARK  Name = Suvorexant
REMARK  4 active torsions:
REMARK  status: ('A' for Active; 'I' for Inactive)
REMARK    1  A    between atoms: C_2  and  C_3
REMARK    2  A    between atoms: C_10  and  C_12
REMARK    3  A    between atoms: C_13  and  N_19
REMARK    4  A    between atoms: C_16  and  C_17
REMARK                            x       y       z     vdW  Elec       q    Type
REMARK                         _______ _______ _______ _____ _____    ______ ____
ROOT
ATOM      1  C   UNL     1      -6.591   3.561 131.247  0.00  0.00    +0.000 C 
ATOM      2  C   UNL     1      -5.598   3.909 132.375  0.00  0.00    +0.000 C 
ATOM      3  C   UNL     1      -6.792   4.753 130.293  0.00  0.00    +0.000 C 
ATOM      4  C   UNL     1      -7.506   5.946 130.912  0.00  0.00    +0.000 C 
ATOM      5  N   UNL     1      -8.925   5.673 130.958  0.00  0.00    +0.000 N 
ATOM      6  C   UNL     1      -9.412   5.046 132.226  0.00  0.00    +0.000 C 
ATOM      7  C   UNL     1      -8.544   3.883 132.779  0.00  0.00    +0.000 C 
ATOM      8  N   UNL     1      -7.851   3.026 131.817  0.00  0.00    +0.000 N 
ATOM      9  C   UNL     1      -8.593   1.998 131.232  0.00  0.00    +0.000 C 
ATOM     10  O   UNL     1      -9.833   2.152 131.050  0.00  0.00    +0.000 OA
ATOM     11  C   UNL     1      -9.817   6.161 130.026  0.00  0.00    +0.000 A 
ATOM     12  N   UNL     1      -9.773   6.598 128.754  0.00  0.00    +0.000 NA
ATOM     13  C   UNL     1     -11.096   7.095 128.478  0.00  0.00    +0.000 A 
ATOM     14  C   UNL     1     -11.875   6.663 129.550  0.00  0.00    +0.000 A 
ATOM     15  O   UNL     1     -11.046   6.355 130.571  0.00  0.00    +0.000 OA
ATOM     16  C   UNL     1     -13.150   7.160 129.704  0.00  0.00    +0.000 A 
ATOM     17  C   UNL     1     -12.776   8.415 130.100  0.00  0.00    +0.000 A 
ATOM     18  C   UNL     1     -12.395   9.130 128.994  0.00  0.00    +0.000 A 
ATOM     19 CL   UNL     1     -13.658  10.336 128.813  0.00  0.00    +0.000 Cl
ATOM     20  C   UNL     1     -11.667   8.356 127.957  0.00  0.00    +0.000 A 
ENDROOT
BRANCH   9  21
ATOM     21  C   UNL     1      -7.986   0.618 131.101  0.00  0.00    +0.000 A 
ATOM     22  C   UNL     1      -7.475   0.080 129.902  0.00  0.00    +0.000 A 
ATOM     23  C   UNL     1      -7.098  -1.282 129.823  0.00  0.00    +0.000 A 
ATOM     24  C   UNL     1      -7.194  -2.116 130.943  0.00  0.00    +0.000 A 
ATOM     25  C   UNL     1      -7.716  -1.620 132.131  0.00  0.00    +0.000 A 
ATOM     26  C   UNL     1      -7.853  -2.468 133.363  0.00  0.00    +0.000 C 
ATOM     27  C   UNL     1      -8.136  -0.283 132.176  0.00  0.00    +0.000 A 
BRANCH  22  28
ATOM     28  N   UNL     1      -7.374   0.857 128.725  0.00  0.00    +0.000 N 
ATOM     29  N   UNL     1      -6.199   1.429 128.341  0.00  0.00    +0.000 NA
ATOM     30  C   UNL     1      -6.564   2.076 127.231  0.00  0.00    +0.000 A 
ATOM     31  C   UNL     1      -7.880   1.744 126.896  0.00  0.00    +0.000 A 
ATOM     32  N   UNL     1      -8.364   0.864 127.779  0.00  0.00    +0.000 NA
ENDBRANCH  22  28
ENDBRANCH   9  21
TORSDOF 2
ENDMDL
MODEL 3
REMARK VINA RESULT:      -8.4      5.493      7.409
REMARK  Name = Suvorexant
REMARK  4 active torsions:
REMARK  status: ('A' for Active; 'I' for Inactive)
REMARK    1  A    between atoms: C_2  and  C_3
REMARK    2  A    between atoms: C_10  and  C_12
REMARK    3  A    between atoms: C_13  and  N_19
REMARK    4  A    between atoms: C_16  and  C_17
REMARK                            x       y       z     vdW  Elec       q    Type
REMARK                         _______ _______ _______ _____ _____    ______ ____
ROOT
ATOM      1  C   UNL     1      -7.199  -2.686 127.877  0.00  0.00    +0.000 C 
ATOM      2  C   UNL     1      -8.613  -3.296 127.964  0.00  0.00    +0.000 C 
ATOM      3  C   UNL     1      -6.416  -2.901 129.187  0.00  0.00    +0.000 C 
ATOM      4  C   UNL     1      -6.960  -2.133 130.383  0.00  0.00    +0.000 C 
ATOM      5  N   UNL     1      -6.534  -0.755 130.290  0.00  0.00    +0.000 N 
ATOM      6  C   UNL     1      -7.488   0.161 129.590  0.00  0.00    +0.000 C 
ATOM      7  C   UNL     1      -8.098  -0.384 128.271  0.00  0.00    +0.000 C 
ATOM      8  N   UNL     1      -7.275  -1.269 127.447  0.00  0.00    +0.000 N 
ATOM      9  C   UNL     1      -6.348  -0.665 126.595  0.00  0.00    +0.000 C 
ATOM     10  O   UNL     1      -5.824   0.435 126.927  0.00  0.00    +0.000 OA
ATOM     11  C   UNL     1      -5.458  -0.250 130.991  0.00  0.00    +0.000 A 
ATOM     12  N   UNL     1      -4.339  -0.733 131.561  0.00  0.00    +0.000 NA
ATOM     13  C   UNL     1      -3.753   0.387 132.251  0.00  0.00    +0.000 A 
ATOM     14  C   UNL     1      -4.462   1.500 131.804  0.00  0.00    +0.000 A 
ATOM     15  O   UNL     1      -5.629   1.067 131.278  0.00  0.00    +0.000 OA
ATOM     16  C   UNL     1      -4.296   2.710 132.439  0.00  0.00    +0.000 A 
ATOM     17  C   UNL     1      -4.967   2.374 133.582  0.00  0.00    +0.000 A 
ATOM     18  C   UNL     1      -4.147   1.602 134.363  0.00  0.00    +0.000 A 
ATOM     19 CL   UNL     1      -3.773   2.634 135.734  0.00  0.00    +0.000 Cl
ATOM     20  C   UNL     1      -3.276   0.653 133.626  0.00  0.00    +0.000 A 
ENDROOT
BRANCH   9  21
ATOM     21  C   UNL     1      -6.204  -1.161 125.174  0.00  0.00    +0.000 A 
ATOM     22  C   UNL     1      -7.035  -0.773 124.102  0.00  0.00    +0.000 A 
ATOM     23  C   UNL     1      -6.951  -1.423 122.849  0.00  0.00    +0.000 A 
ATOM     24  C   UNL     1      -6.019  -2.445 122.635  0.00  0.00    +0.000 A 
ATOM     25  C   UNL     1      -5.203  -2.866 123.678  0.00  0.00    +0.000 A 
ATOM     26  C   UNL     1      -4.191  -3.963 123.512  0.00  0.00    +0.000 C 
ATOM     27  C   UNL     1      -5.337  -2.247 124.928  0.00  0.00    +0.000 A 
BRANCH  22  28
ATOM     28  N   UNL     1      -8.017   0.233 124.253  0.00  0.00    +0.000 N 
ATOM     29  N   UNL     1      -7.777   1.529 123.909  0.00  0.00    +0.000 NA
ATOM     30  C   UNL     1      -8.929   2.115 124.243  0.00  0.00    +0.000 A 
ATOM     31  C   UNL     1      -9.867   1.148 124.615  0.00  0.00    +0.000 A 
ATOM     32  N   UNL     1      -9.328  -0.071 124.502  0.00  0.00    +0.000 NA
ENDBRANCH  22  28
ENDBRANCH   9  21
TORSDOF 2
ENDMDL
MODEL 4
REMARK VINA RESULT:      -8.4      2.904      4.351
REMARK  Name = Suvorexant
REMARK  4 active torsions:
REMARK  status: ('A' for Active; 'I' for Inactive)
REMARK    1  A    between atoms: C_2  and  C_3
REMARK    2  A    between atoms: C_10  and  C_12
REMARK    3  A    between atoms: C_13  and  N_19
REMARK    4  A    between atoms: C_16  and  C_17
REMARK                            x       y       z     vdW  Elec       q    Type
REMARK                         _______ _______ _______ _____ _____    ______ ____
ROOT
ATOM      1  C   UNL     1      -8.345   1.215 132.155  0.00  0.00    +0.000 C 
ATOM      2  C   UNL     1      -8.776  -0.220 131.789  0.00  0.00    +0.000 C 
ATOM      3  C   UNL     1      -9.565   2.098 132.482  0.00  0.00    +0.000 C 
ATOM      4  C   UNL     1     -10.471   2.391 131.295  0.00  0.00    +0.000 C 
ATOM      5  N   UNL     1      -9.868   3.428 130.487  0.00  0.00    +0.000 N 
ATOM      6  C   UNL     1      -8.994   2.941 129.375  0.00  0.00    +0.000 C 
ATOM      7  C   UNL     1      -8.009   1.798 129.744  0.00  0.00    +0.000 C 
ATOM      8  N   UNL     1      -7.464   1.772 131.101  0.00  0.00    +0.000 N 
ATOM      9  C   UNL     1      -6.369   2.599 131.361  0.00  0.00    +0.000 C 
ATOM     10  O   UNL     1      -6.248   3.687 130.732  0.00  0.00    +0.000 OA
ATOM     11  C   UNL     1     -10.243   4.753 130.560  0.00  0.00    +0.000 A 
ATOM     12  N   UNL     1     -10.830   5.563 131.460  0.00  0.00    +0.000 NA
ATOM     13  C   UNL     1     -11.032   6.812 130.770  0.00  0.00    +0.000 A 
ATOM     14  C   UNL     1     -10.301   6.695 129.589  0.00  0.00    +0.000 A 
ATOM     15  O   UNL     1     -10.074   5.382 129.367  0.00  0.00    +0.000 OA
ATOM     16  C   UNL     1     -10.461   7.636 128.597  0.00  0.00    +0.000 A 
ATOM     17  C   UNL     1     -11.710   7.236 128.210  0.00  0.00    +0.000 A 
ATOM     18  C   UNL     1     -12.624   7.712 129.114  0.00  0.00    +0.000 A 
ATOM     19 CL   UNL     1     -13.512   8.932 128.214  0.00  0.00    +0.000 Cl
ATOM     20  C   UNL     1     -12.177   7.716 130.529  0.00  0.00    +0.000 A 
ENDROOT
BRANCH   9  21
ATOM     21  C   UNL     1      -5.198   2.063 132.154  0.00  0.00    +0.000 A 
ATOM     22  C   UNL     1      -4.355   2.849 132.967  0.00  0.00    +0.000 A 
ATOM     23  C   UNL     1      -3.174   2.304 133.525  0.00  0.00    +0.000 A 
ATOM     24  C   UNL     1      -2.833   0.965 133.308  0.00  0.00    +0.000 A 
ATOM     25  C   UNL     1      -3.631   0.173 132.492  0.00  0.00    +0.000 A 
ATOM     26  C   UNL     1      -3.312  -1.269 132.213  0.00  0.00    +0.000 C 
ATOM     27  C   UNL     1      -4.768   0.742 131.904  0.00  0.00    +0.000 A 
BRANCH  22  28
ATOM     28  N   UNL     1      -4.623   4.216 133.209  0.00  0.00    +0.000 N 
ATOM     29  N   UNL     1      -5.443   4.621 134.218  0.00  0.00    +0.000 NA
ATOM     30  C   UNL     1      -5.436   5.946 134.058  0.00  0.00    +0.000 A 
ATOM     31  C   UNL     1      -4.500   6.304 133.082  0.00  0.00    +0.000 A 
ATOM     32  N   UNL     1      -3.884   5.210 132.624  0.00  0.00    +0.000 NA
ENDBRANCH  22  28
ENDBRANCH   9  21
TORSDOF 2
ENDMDL
MODEL 5
REMARK VINA RESULT:      -8.2      6.625      8.311
REMARK  Name = Suvorexant
REMARK  4 active torsions:
REMARK  status: ('A' for Active; 'I' for Inactive)
REMARK    1  A    between atoms: C_2  and  C_3
REMARK    2  A    between atoms: C_10  and  C_12
REMARK    3  A    between atoms: C_13  and  N_19
REMARK    4  A    between atoms: C_16  and  C_17
REMARK                            x       y       z     vdW  Elec       q    Type
REMARK                         _______ _______ _______ _____ _____    ______ ____
ROOT
ATOM      1  C   UNL     1      -2.437   4.309 131.972  0.00  0.00    +0.000 C 
ATOM      2  C   UNL     1      -2.857   3.195 132.952  0.00  0.00    +0.000 C 
ATOM      3  C   UNL     1      -1.281   5.150 132.545  0.00  0.00    +0.000 C 
ATOM      4  C   UNL     1      -1.650   5.993 133.757  0.00  0.00    +0.000 C 
ATOM      5  N   UNL     1      -2.360   7.172 133.311  0.00  0.00    +0.000 N 
ATOM      6  C   UNL     1      -3.849   7.040 133.266  0.00  0.00    +0.000 C 
ATOM      7  C   UNL     1      -4.390   5.724 132.642  0.00  0.00    +0.000 C 
ATOM      8  N   UNL     1      -3.618   5.107 131.564  0.00  0.00    +0.000 N 
ATOM      9  C   UNL     1      -3.802   5.619 130.277  0.00  0.00    +0.000 C 
ATOM     10  O   UNL     1      -4.091   6.839 130.130  0.00  0.00    +0.000 OA
ATOM     11  C   UNL     1      -1.757   8.404 133.167  0.00  0.00    +0.000 A 
ATOM     12  N   UNL     1      -0.512   8.875 132.973  0.00  0.00    +0.000 NA
ATOM     13  C   UNL     1      -0.630  10.308 133.068  0.00  0.00    +0.000 A 
ATOM     14  C   UNL     1      -2.001  10.559 133.057  0.00  0.00    +0.000 A 
ATOM     15  O   UNL     1      -2.637   9.415 133.389  0.00  0.00    +0.000 OA
ATOM     16  C   UNL     1      -2.461  11.822 133.358  0.00  0.00    +0.000 A 
ATOM     17  C   UNL     1      -2.183  11.768 134.695  0.00  0.00    +0.000 A 
ATOM     18  C   UNL     1      -0.840  11.977 134.875  0.00  0.00    +0.000 A 
ATOM     19 CL   UNL     1      -0.755  13.554 135.643  0.00  0.00    +0.000 Cl
ATOM     20  C   UNL     1       0.039  11.377 133.840  0.00  0.00    +0.000 A 
ENDROOT
BRANCH   9  21
ATOM     21  C   UNL     1      -3.953   4.671 129.109  0.00  0.00    +0.000 A 
ATOM     22  C   UNL     1      -5.127   3.948 128.811  0.00  0.00    +0.000 A 
ATOM     23  C   UNL     1      -5.126   2.944 127.815  0.00  0.00    +0.000 A 
ATOM     24  C   UNL     1      -3.968   2.668 127.080  0.00  0.00    +0.000 A 
ATOM     25  C   UNL     1      -2.790   3.346 127.367  0.00  0.00    +0.000 A 
ATOM     26  C   UNL     1      -1.512   3.087 126.620  0.00  0.00    +0.000 C 
ATOM     27  C   UNL     1      -2.795   4.300 128.394  0.00  0.00    +0.000 A 
BRANCH  22  28
ATOM     28  N   UNL     1      -6.327   4.156 129.530  0.00  0.00    +0.000 N 
ATOM     29  N   UNL     1      -7.316   4.966 129.060  0.00  0.00    +0.000 NA
ATOM     30  C   UNL     1      -8.213   4.897 130.046  0.00  0.00    +0.000 A 
ATOM     31  C   UNL     1      -7.821   3.937 130.983  0.00  0.00    +0.000 A 
ATOM     32  N   UNL     1      -6.676   3.368 130.594  0.00  0.00    +0.000 NA
ENDBRANCH  22  28
ENDBRANCH   9  21
TORSDOF 2
ENDMDL
MODEL 6
REMARK VINA RESULT:      -8.2      4.146      5.789
REMARK  Name = Suvorexant
REMARK  4 active torsions:
REMARK  status: ('A' for Active; 'I' for Inactive)
REMARK    1  A    between atoms: C_2  and  C_3
REMARK    2  A    between atoms: C_10  and  C_12
REMARK    3  A    between atoms: C_13  and  N_19
REMARK    4  A    between atoms: C_16  and  C_17
REMARK                            x       y       z     vdW  Elec       q    Type
REMARK                         _______ _______ _______ _____ _____    ______ ____
ROOT
ATOM      1  C   UNL     1      -4.964  -1.865 128.199  0.00  0.00    +0.000 C 
ATOM      2  C   UNL     1      -4.602  -3.288 128.671  0.00  0.00    +0.000 C 
ATOM      3  C   UNL     1      -4.483  -0.804 129.207  0.00  0.00    +0.000 C 
ATOM      4  C   UNL     1      -5.208  -0.828 130.545  0.00  0.00    +0.000 C 
ATOM      5  N   UNL     1      -6.494  -0.183 130.396  0.00  0.00    +0.000 N 
ATOM      6  C   UNL     1      -7.628  -1.097 130.053  0.00  0.00    +0.000 C 
ATOM      7  C   UNL     1      -7.335  -2.148 128.948  0.00  0.00    +0.000 C 
ATOM      8  N   UNL     1      -6.408  -1.780 127.878  0.00  0.00    +0.000 N 
ATOM      9  C   UNL     1      -6.926  -1.030 126.820  0.00  0.00    +0.000 C 
ATOM     10  O   UNL     1      -7.879  -0.229 127.033  0.00  0.00    +0.000 OA
ATOM     11  C   UNL     1      -6.730   1.122 130.772  0.00  0.00    +0.000 A 
ATOM     12  N   UNL     1      -6.004   2.239 130.962  0.00  0.00    +0.000 NA
ATOM     13  C   UNL     1      -6.929   3.204 131.500  0.00  0.00    +0.000 A 
ATOM     14  C   UNL     1      -8.187   2.630 131.335  0.00  0.00    +0.000 A 
ATOM     15  O   UNL     1      -8.020   1.301 131.157  0.00  0.00    +0.000 OA
ATOM     16  C   UNL     1      -9.279   3.202 131.949  0.00  0.00    +0.000 A 
ATOM     17  C   UNL     1      -8.949   2.826 133.222  0.00  0.00    +0.000 A 
ATOM     18  C   UNL     1      -7.971   3.665 133.689  0.00  0.00    +0.000 A 
ATOM     19 CL   UNL     1      -8.778   4.604 134.936  0.00  0.00    +0.000 Cl
ATOM     20  C   UNL     1      -6.965   4.090 132.684  0.00  0.00    +0.000 A 
ENDROOT
BRANCH   9  21
ATOM     21  C   UNL     1      -6.560  -1.391 125.397  0.00  0.00    +0.000 A 
ATOM     22  C   UNL     1      -7.149  -0.819 124.250  0.00  0.00    +0.000 A 
ATOM     23  C   UNL     1      -6.885  -1.345 122.963  0.00  0.00    +0.000 A 
ATOM     24  C   UNL     1      -6.008  -2.423 122.797  0.00  0.00    +0.000 A 
ATOM     25  C   UNL     1      -5.433  -3.022 123.910  0.00  0.00    +0.000 A 
ATOM     26  C   UNL     1      -4.492  -4.188 123.798  0.00  0.00    +0.000 C 
ATOM     27  C   UNL     1      -5.747  -2.524 125.182  0.00  0.00    +0.000 A 
BRANCH  22  28
ATOM     28  N   UNL     1      -8.064   0.255 124.343  0.00  0.00    +0.000 N 
ATOM     29  N   UNL     1      -7.653   1.553 124.312  0.00  0.00    +0.000 NA
ATOM     30  C   UNL     1      -8.808   2.206 124.461  0.00  0.00    +0.000 A 
ATOM     31  C   UNL     1      -9.875   1.305 124.412  0.00  0.00    +0.000 A 
ATOM     32  N   UNL     1      -9.413   0.067 124.209  0.00  0.00    +0.000 NA
ENDBRANCH  22  28
ENDBRANCH   9  21
TORSDOF 2
ENDMDL
MODEL 7
REMARK VINA RESULT:      -8.2      4.258      6.904
REMARK  Name = Suvorexant
REMARK  4 active torsions:
REMARK  status: ('A' for Active; 'I' for Inactive)
REMARK    1  A    between atoms: C_2  and  C_3
REMARK    2  A    between atoms: C_10  and  C_12
REMARK    3  A    between atoms: C_13  and  N_19
REMARK    4  A    between atoms: C_16  and  C_17
REMARK                            x       y       z     vdW  Elec       q    Type
REMARK                         _______ _______ _______ _____ _____    ______ ____
ROOT
ATOM      1  C   UNL     1      -7.758   6.129 131.806  0.00  0.00    +0.000 C 
ATOM      2  C   UNL     1      -8.758   5.974 132.970  0.00  0.00    +0.000 C 
ATOM      3  C   UNL     1      -8.489   6.250 130.455  0.00  0.00    +0.000 C 
ATOM      4  C   UNL     1      -9.214   4.987 130.012  0.00  0.00    +0.000 C 
ATOM      5  N   UNL     1      -8.249   4.057 129.469  0.00  0.00    +0.000 N 
ATOM      6  C   UNL     1      -7.683   3.081 130.452  0.00  0.00    +0.000 C 
ATOM      7  C   UNL     1      -7.260   3.676 131.822  0.00  0.00    +0.000 C 
ATOM      8  N   UNL     1      -6.747   5.046 131.849  0.00  0.00    +0.000 N 
ATOM      9  C   UNL     1      -5.401   5.227 131.521  0.00  0.00    +0.000 C 
ATOM     10  O   UNL     1      -4.849   4.440 130.703  0.00  0.00    +0.000 OA
ATOM     11  C   UNL     1      -8.033   3.899 128.116  0.00  0.00    +0.000 A 
ATOM     12  N   UNL     1      -8.208   4.629 126.999  0.00  0.00    +0.000 NA
ATOM     13  C   UNL     1      -7.883   3.741 125.912  0.00  0.00    +0.000 A 
ATOM     14  C   UNL     1      -7.294   2.632 126.516  0.00  0.00    +0.000 A 
ATOM     15  O   UNL     1      -7.642   2.633 127.821  0.00  0.00    +0.000 OA
ATOM     16  C   UNL     1      -7.066   1.496 125.771  0.00  0.00    +0.000 A 
ATOM     17  C   UNL     1      -8.376   1.115 125.673  0.00  0.00    +0.000 A 
ATOM     18  C   UNL     1      -8.987   1.884 124.717  0.00  0.00    +0.000 A 
ATOM     19 CL   UNL     1      -9.301   0.759 123.406  0.00  0.00    +0.000 Cl
ATOM     20  C   UNL     1      -8.549   3.302 124.667  0.00  0.00    +0.000 A 
ENDROOT
BRANCH   9  21
ATOM     21  C   UNL     1      -4.546   6.153 132.357  0.00  0.00    +0.000 A 
ATOM     22  C   UNL     1      -3.469   6.915 131.859  0.00  0.00    +0.000 A 
ATOM     23  C   UNL     1      -2.605   7.609 132.739  0.00  0.00    +0.000 A 
ATOM     24  C   UNL     1      -2.820   7.581 134.122  0.00  0.00    +0.000 A 
ATOM     25  C   UNL     1      -3.858   6.819 134.644  0.00  0.00    +0.000 A 
ATOM     26  C   UNL     1      -4.134   6.741 136.119  0.00  0.00    +0.000 C 
ATOM     27  C   UNL     1      -4.672   6.094 133.762  0.00  0.00    +0.000 A 
BRANCH  22  28
ATOM     28  N   UNL     1      -3.176   6.969 130.477  0.00  0.00    +0.000 N 
ATOM     29  N   UNL     1      -3.851   7.796 129.631  0.00  0.00    +0.000 NA
ATOM     30  C   UNL     1      -3.288   7.500 128.457  0.00  0.00    +0.000 A 
ATOM     31  C   UNL     1      -2.200   6.644 128.652  0.00  0.00    +0.000 A 
ATOM     32  N   UNL     1      -2.045   6.400 129.957  0.00  0.00    +0.000 NA
ENDBRANCH  22  28
ENDBRANCH   9  21
TORSDOF 2
ENDMDL
MODEL 8
REMARK VINA RESULT:      -8.1      4.073      6.429
REMARK  Name = Suvorexant
REMARK  4 active torsions:
REMARK  status: ('A' for Active; 'I' for Inactive)
REMARK    1  A    between atoms: C_2  and  C_3
REMARK    2  A    between atoms: C_10  and  C_12
REMARK    3  A    between atoms: C_13  and  N_19
REMARK    4  A    between atoms: C_16  and  C_17
REMARK                            x       y       z     vdW  Elec       q    Type
REMARK                         _______ _______ _______ _____ _____    ______ ____
ROOT
ATOM      1  C   UNL     1      -3.837   3.975 126.094  0.00  0.00    +0.000 C 
ATOM      2  C   UNL     1      -2.508   3.199 125.981  0.00  0.00    +0.000 C 
ATOM      3  C   UNL     1      -3.828   4.922 127.309  0.00  0.00    +0.000 C 
ATOM      4  C   UNL     1      -3.818   4.220 128.659  0.00  0.00    +0.000 C 
ATOM      5  N   UNL     1      -5.156   3.759 128.959  0.00  0.00    +0.000 N 
ATOM      6  C   UNL     1      -5.461   2.361 128.520  0.00  0.00    +0.000 C 
ATOM      7  C   UNL     1      -4.988   1.987 127.089  0.00  0.00    +0.000 C 
ATOM      8  N   UNL     1      -4.984   3.037 126.070  0.00  0.00    +0.000 N 
ATOM      9  C   UNL     1      -6.199   3.312 125.437  0.00  0.00    +0.000 C 
ATOM     10  O   UNL     1      -7.279   3.151 126.070  0.00  0.00    +0.000 OA
ATOM     11  C   UNL     1      -6.017   4.438 129.794  0.00  0.00    +0.000 A 
ATOM     12  N   UNL     1      -6.174   5.701 130.231  0.00  0.00    +0.000 NA
ATOM     13  C   UNL     1      -7.224   5.633 131.216  0.00  0.00    +0.000 A 
ATOM     14  C   UNL     1      -7.766   4.357 131.078  0.00  0.00    +0.000 A 
ATOM     15  O   UNL     1      -6.865   3.588 130.429  0.00  0.00    +0.000 OA
ATOM     16  C   UNL     1      -8.650   3.890 132.026  0.00  0.00    +0.000 A 
ATOM     17  C   UNL     1      -7.725   3.711 133.018  0.00  0.00    +0.000 A 
ATOM     18  C   UNL     1      -7.433   4.930 133.572  0.00  0.00    +0.000 A 
ATOM     19 CL   UNL     1      -8.130   4.841 135.182  0.00  0.00    +0.000 Cl
ATOM     20  C   UNL     1      -7.389   6.067 132.620  0.00  0.00    +0.000 A 
ENDROOT
BRANCH   9  21
ATOM     21  C   UNL     1      -6.234   3.503 123.937  0.00  0.00    +0.000 A 
ATOM     22  C   UNL     1      -7.051   2.765 123.055  0.00  0.00    +0.000 A 
ATOM     23  C   UNL     1      -6.888   2.875 121.654  0.00  0.00    +0.000 A 
ATOM     24  C   UNL     1      -5.934   3.744 121.112  0.00  0.00    +0.000 A 
ATOM     25  C   UNL     1      -5.099   4.466 121.955  0.00  0.00    +0.000 A 
ATOM     26  C   UNL     1      -4.050   5.406 121.433  0.00  0.00    +0.000 C 
ATOM     27  C   UNL     1      -5.237   4.304 123.341  0.00  0.00    +0.000 A 
BRANCH  22  28
ATOM     28  N   UNL     1      -8.017   1.849 123.532  0.00  0.00    +0.000 N 
ATOM     29  N   UNL     1      -9.339   2.171 123.602  0.00  0.00    +0.000 NA
ATOM     30  C   UNL     1      -9.860   1.059 124.126  0.00  0.00    +0.000 A 
ATOM     31  C   UNL     1      -8.884   0.062 124.198  0.00  0.00    +0.000 A 
ATOM     32  N   UNL     1      -7.731   0.521 123.701  0.00  0.00    +0.000 NA
ENDBRANCH  22  28
ENDBRANCH   9  21
TORSDOF 2
ENDMDL
MODEL 9
REMARK VINA RESULT:      -8.1      3.779      8.537
REMARK  Name = Suvorexant
REMARK  4 active torsions:
REMARK  status: ('A' for Active; 'I' for Inactive)
REMARK    1  A    between atoms: C_2  and  C_3
REMARK    2  A    between atoms: C_10  and  C_12
REMARK    3  A    between atoms: C_13  and  N_19
REMARK    4  A    between atoms: C_16  and  C_17
REMARK                            x       y       z     vdW  Elec       q    Type
REMARK                         _______ _______ _______ _____ _____    ______ ____
ROOT
ATOM      1  C   UNL     1      -6.182   4.663 130.490  0.00  0.00    +0.000 C 
ATOM      2  C   UNL     1      -4.952   5.446 129.988  0.00  0.00    +0.000 C 
ATOM      3  C   UNL     1      -5.770   3.533 131.452  0.00  0.00    +0.000 C 
ATOM      4  C   UNL     1      -4.987   2.401 130.802  0.00  0.00    +0.000 C 
ATOM      5  N   UNL     1      -5.908   1.538 130.095  0.00  0.00    +0.000 N 
ATOM      6  C   UNL     1      -6.121   1.879 128.654  0.00  0.00    +0.000 C 
ATOM      7  C   UNL     1      -6.329   3.386 128.343  0.00  0.00    +0.000 C 
ATOM      8  N   UNL     1      -7.006   4.208 129.345  0.00  0.00    +0.000 N 
ATOM      9  C   UNL     1      -8.402   4.171 129.359  0.00  0.00    +0.000 C 
ATOM     10  O   UNL     1      -8.999   3.116 129.007  0.00  0.00    +0.000 OA
ATOM     11  C   UNL     1      -6.375   0.349 130.615  0.00  0.00    +0.000 A 
ATOM     12  N   UNL     1      -6.535  -0.198 131.833  0.00  0.00    +0.000 NA
ATOM     13  C   UNL     1      -6.954  -1.554 131.587  0.00  0.00    +0.000 A 
ATOM     14  C   UNL     1      -7.250  -1.599 130.226  0.00  0.00    +0.000 A 
ATOM     15  O   UNL     1      -6.643  -0.549 129.631  0.00  0.00    +0.000 OA
ATOM     16  C   UNL     1      -7.471  -2.816 129.620  0.00  0.00    +0.000 A 
ATOM     17  C   UNL     1      -6.170  -3.238 129.652  0.00  0.00    +0.000 A 
ATOM     18  C   UNL     1      -5.880  -3.673 130.919  0.00  0.00    +0.000 A 
ATOM     19 CL   UNL     1      -5.693  -5.410 130.737  0.00  0.00    +0.000 Cl
ATOM     20  C   UNL     1      -6.507  -2.897 132.017  0.00  0.00    +0.000 A 
ENDROOT
BRANCH   9  21
ATOM     21  C   UNL     1      -9.184   5.458 129.500  0.00  0.00    +0.000 A 
ATOM     22  C   UNL     1      -9.625   5.997 130.726  0.00  0.00    +0.000 A 
ATOM     23  C   UNL     1     -10.508   7.102 130.756  0.00  0.00    +0.000 A 
ATOM     24  C   UNL     1     -10.938   7.705 129.569  0.00  0.00    +0.000 A 
ATOM     25  C   UNL     1     -10.540   7.182 128.345  0.00  0.00    +0.000 A 
ATOM     26  C   UNL     1     -10.975   7.779 127.037  0.00  0.00    +0.000 C 
ATOM     27  C   UNL     1      -9.708   6.053 128.333  0.00  0.00    +0.000 A 
BRANCH  22  28
ATOM     28  N   UNL     1      -9.252   5.423 131.964  0.00  0.00    +0.000 N 
ATOM     29  N   UNL     1      -8.635   6.151 132.936  0.00  0.00    +0.000 NA
ATOM     30  C   UNL     1      -8.443   5.229 133.883  0.00  0.00    +0.000 A 
ATOM     31  C   UNL     1      -9.086   4.039 133.528  0.00  0.00    +0.000 A 
ATOM     32  N   UNL     1      -9.713   4.196 132.358  0.00  0.00    +0.000 NA
ENDBRANCH  22  28
ENDBRANCH   9  21
TORSDOF 2
ENDMDL
