MODEL 1
REMARK VINA RESULT:      -6.1      0.000      0.000
REMARK  Name = Synthetic camphor
REMARK  3 active torsions:
REMARK  status: ('A' for Active; 'I' for Inactive)
REMARK    1  A    between atoms: C_1  and  C_2
REMARK    2  A    between atoms: C_2  and  C_3
REMARK    3  A    between atoms: C_7  and  C_8
REMARK                            x       y       z     vdW  Elec       q    Type
REMARK                         _______ _______ _______ _____ _____    ______ ____
ROOT
ATOM      1  C   UNL     1     -11.071   7.193 127.120  0.00  0.00    +0.000 C 
ATOM      2  C   UNL     1     -11.459   7.711 128.518  0.00  0.00    +0.000 C 
ATOM      3  C   UNL     1     -10.143   8.026 129.251  0.00  0.00    +0.000 C 
ATOM      4  C   UNL     1     -12.485   8.872 128.505  0.00  0.00    +0.000 C 
ATOM      5  C   UNL     1     -13.725   8.217 127.848  0.00  0.00    +0.000 C 
ATOM      6  C   UNL     1     -13.690   6.769 128.397  0.00  0.00    +0.000 C 
ATOM      7  C   UNL     1     -12.420   6.765 129.282  0.00  0.00    +0.000 C 
ATOM      8  C   UNL     1     -11.873   5.400 129.633  0.00  0.00    +0.000 C 
ATOM      9  C   UNL     1     -12.786   7.662 130.466  0.00  0.00    +0.000 C 
ATOM     10  O   UNL     1     -13.026   7.287 131.605  0.00  0.00    +0.000 OA
ATOM     11  C   UNL     1     -12.826   9.104 129.999  0.00  0.00    +0.000 C 
ENDROOT
TORSDOF 0
ENDMDL
MODEL 2
REMARK VINA RESULT:      -5.7      1.812      3.171
REMARK  Name = Synthetic camphor
REMARK  3 active torsions:
REMARK  status: ('A' for Active; 'I' for Inactive)
REMARK    1  A    between atoms: C_1  and  C_2
REMARK    2  A    between atoms: C_2  and  C_3
REMARK    3  A    between atoms: C_7  and  C_8
REMARK                            x       y       z     vdW  Elec       q    Type
REMARK                         _______ _______ _______ _____ _____    ______ ____
ROOT
ATOM      1  C   UNL     1     -12.789   7.506 131.041  0.00  0.00    +0.000 C 
ATOM      2  C   UNL     1     -12.469   6.981 129.629  0.00  0.00    +0.000 C 
ATOM      3  C   UNL     1     -12.264   5.462 129.760  0.00  0.00    +0.000 C 
ATOM      4  C   UNL     1     -13.492   7.404 128.544  0.00  0.00    +0.000 C 
ATOM      5  C   UNL     1     -13.369   8.947 128.549  0.00  0.00    +0.000 C 
ATOM      6  C   UNL     1     -11.858   9.178 128.803  0.00  0.00    +0.000 C 
ATOM      7  C   UNL     1     -11.306   7.739 128.938  0.00  0.00    +0.000 C 
ATOM      8  C   UNL     1      -9.949   7.619 129.593  0.00  0.00    +0.000 C 
ATOM      9  C   UNL     1     -11.418   7.161 127.525  0.00  0.00    +0.000 C 
ATOM     10  O   UNL     1     -10.490   6.956 126.756  0.00  0.00    +0.000 OA
ATOM     11  C   UNL     1     -12.878   6.898 127.214  0.00  0.00    +0.000 C 
ENDROOT
TORSDOF 0
ENDMDL
MODEL 3
REMARK VINA RESULT:      -5.5     10.350     11.931
REMARK  Name = Synthetic camphor
REMARK  3 active torsions:
REMARK  status: ('A' for Active; 'I' for Inactive)
REMARK    1  A    between atoms: C_1  and  C_2
REMARK    2  A    between atoms: C_2  and  C_3
REMARK    3  A    between atoms: C_7  and  C_8
REMARK                            x       y       z     vdW  Elec       q    Type
REMARK                         _______ _______ _______ _____ _____    ______ ____
ROOT
ATOM      1  C   UNL     1      -5.803  -2.426 125.201  0.00  0.00    +0.000 C 
ATOM      2  C   UNL     1      -6.943  -2.311 124.172  0.00  0.00    +0.000 C 
ATOM      3  C   UNL     1      -6.277  -2.120 122.798  0.00  0.00    +0.000 C 
ATOM      4  C   UNL     1      -7.977  -3.463 124.234  0.00  0.00    +0.000 C 
ATOM      5  C   UNL     1      -8.566  -3.310 125.658  0.00  0.00    +0.000 C 
ATOM      6  C   UNL     1      -8.598  -1.774 125.861  0.00  0.00    +0.000 C 
ATOM      7  C   UNL     1      -8.000  -1.238 124.538  0.00  0.00    +0.000 C 
ATOM      8  C   UNL     1      -7.513   0.193 124.575  0.00  0.00    +0.000 C 
ATOM      9  C   UNL     1      -9.069  -1.552 123.489  0.00  0.00    +0.000 C 
ATOM     10  O   UNL     1      -9.809  -0.741 122.951  0.00  0.00    +0.000 OA
ATOM     11  C   UNL     1      -9.083  -3.046 123.232  0.00  0.00    +0.000 C 
ENDROOT
TORSDOF 0
ENDMDL
MODEL 4
REMARK VINA RESULT:      -5.2     10.195     11.554
REMARK  Name = Synthetic camphor
REMARK  3 active torsions:
REMARK  status: ('A' for Active; 'I' for Inactive)
REMARK    1  A    between atoms: C_1  and  C_2
REMARK    2  A    between atoms: C_2  and  C_3
REMARK    3  A    between atoms: C_7  and  C_8
REMARK                            x       y       z     vdW  Elec       q    Type
REMARK                         _______ _______ _______ _____ _____    ______ ____
ROOT
ATOM      1  C   UNL     1      -6.107  -3.481 124.127  0.00  0.00    +0.000 C 
ATOM      2  C   UNL     1      -6.875  -2.196 124.486  0.00  0.00    +0.000 C 
ATOM      3  C   UNL     1      -6.059  -1.487 125.581  0.00  0.00    +0.000 C 
ATOM      4  C   UNL     1      -7.233  -1.306 123.269  0.00  0.00    +0.000 C 
ATOM      5  C   UNL     1      -8.156  -2.229 122.437  0.00  0.00    +0.000 C 
ATOM      6  C   UNL     1      -8.949  -3.002 123.521  0.00  0.00    +0.000 C 
ATOM      7  C   UNL     1      -8.364  -2.444 124.841  0.00  0.00    +0.000 C 
ATOM      8  C   UNL     1      -8.626  -3.277 126.074  0.00  0.00    +0.000 C 
ATOM      9  C   UNL     1      -8.867  -1.000 124.892  0.00  0.00    +0.000 C 
ATOM     10  O   UNL     1      -9.741  -0.568 125.630  0.00  0.00    +0.000 OA
ATOM     11  C   UNL     1      -8.120  -0.180 123.858  0.00  0.00    +0.000 C 
ENDROOT
TORSDOF 0
ENDMDL
MODEL 5
REMARK VINA RESULT:      -5.1     10.730     12.315
REMARK  Name = Synthetic camphor
REMARK  3 active torsions:
REMARK  status: ('A' for Active; 'I' for Inactive)
REMARK    1  A    between atoms: C_1  and  C_2
REMARK    2  A    between atoms: C_2  and  C_3
REMARK    3  A    between atoms: C_7  and  C_8
REMARK                            x       y       z     vdW  Elec       q    Type
REMARK                         _______ _______ _______ _____ _____    ______ ____
ROOT
ATOM      1  C   UNL     1      -9.221  -0.828 125.535  0.00  0.00    +0.000 C 
ATOM      2  C   UNL     1      -8.311  -2.067 125.439  0.00  0.00    +0.000 C 
ATOM      3  C   UNL     1      -7.656  -2.240 126.820  0.00  0.00    +0.000 C 
ATOM      4  C   UNL     1      -9.017  -3.336 124.896  0.00  0.00    +0.000 C 
ATOM      5  C   UNL     1      -9.433  -2.904 123.468  0.00  0.00    +0.000 C 
ATOM      6  C   UNL     1      -8.254  -2.007 123.015  0.00  0.00    +0.000 C 
ATOM      7  C   UNL     1      -7.320  -2.014 124.248  0.00  0.00    +0.000 C 
ATOM      8  C   UNL     1      -6.285  -0.913 124.290  0.00  0.00    +0.000 C 
ATOM      9  C   UNL     1      -6.774  -3.443 124.296  0.00  0.00    +0.000 C 
ATOM     10  O   UNL     1      -5.639  -3.791 124.004  0.00  0.00    +0.000 OA
ATOM     11  C   UNL     1      -7.880  -4.379 124.747  0.00  0.00    +0.000 C 
ENDROOT
TORSDOF 0
ENDMDL
MODEL 6
REMARK VINA RESULT:      -5.1     10.668     12.167
REMARK  Name = Synthetic camphor
REMARK  3 active torsions:
REMARK  status: ('A' for Active; 'I' for Inactive)
REMARK    1  A    between atoms: C_1  and  C_2
REMARK    2  A    between atoms: C_2  and  C_3
REMARK    3  A    between atoms: C_7  and  C_8
REMARK                            x       y       z     vdW  Elec       q    Type
REMARK                         _______ _______ _______ _____ _____    ______ ____
ROOT
ATOM      1  C   UNL     1      -5.753  -0.946 125.503  0.00  0.00    +0.000 C 
ATOM      2  C   UNL     1      -7.001  -1.210 124.640  0.00  0.00    +0.000 C 
ATOM      3  C   UNL     1      -7.990  -0.069 124.936  0.00  0.00    +0.000 C 
ATOM      4  C   UNL     1      -6.702  -1.432 123.136  0.00  0.00    +0.000 C 
ATOM      5  C   UNL     1      -5.821  -2.705 123.153  0.00  0.00    +0.000 C 
ATOM      6  C   UNL     1      -6.439  -3.544 124.299  0.00  0.00    +0.000 C 
ATOM      7  C   UNL     1      -7.582  -2.637 124.815  0.00  0.00    +0.000 C 
ATOM      8  C   UNL     1      -8.116  -2.977 126.187  0.00  0.00    +0.000 C 
ATOM      9  C   UNL     1      -8.608  -2.645 123.680  0.00  0.00    +0.000 C 
ATOM     10  O   UNL     1      -9.683  -3.227 123.685  0.00  0.00    +0.000 OA
ATOM     11  C   UNL     1      -8.069  -1.827 122.522  0.00  0.00    +0.000 C 
ENDROOT
TORSDOF 0
ENDMDL
MODEL 7
REMARK VINA RESULT:      -5.1     10.651     12.232
REMARK  Name = Synthetic camphor
REMARK  3 active torsions:
REMARK  status: ('A' for Active; 'I' for Inactive)
REMARK    1  A    between atoms: C_1  and  C_2
REMARK    2  A    between atoms: C_2  and  C_3
REMARK    3  A    between atoms: C_7  and  C_8
REMARK                            x       y       z     vdW  Elec       q    Type
REMARK                         _______ _______ _______ _____ _____    ______ ____
ROOT
ATOM      1  C   UNL     1      -9.090  -2.624 123.213  0.00  0.00    +0.000 C 
ATOM      2  C   UNL     1      -7.854  -2.852 124.104  0.00  0.00    +0.000 C 
ATOM      3  C   UNL     1      -8.082  -4.183 124.840  0.00  0.00    +0.000 C 
ATOM      4  C   UNL     1      -6.501  -2.751 123.355  0.00  0.00    +0.000 C 
ATOM      5  C   UNL     1      -6.501  -1.284 122.858  0.00  0.00    +0.000 C 
ATOM      6  C   UNL     1      -7.191  -0.521 124.016  0.00  0.00    +0.000 C 
ATOM      7  C   UNL     1      -7.525  -1.647 125.023  0.00  0.00    +0.000 C 
ATOM      8  C   UNL     1      -8.561  -1.303 126.068  0.00  0.00    +0.000 C 
ATOM      9  C   UNL     1      -6.161  -2.089 125.557  0.00  0.00    +0.000 C 
ATOM     10  O   UNL     1      -5.712  -1.852 126.670  0.00  0.00    +0.000 OA
ATOM     11  C   UNL     1      -5.431  -2.857 124.472  0.00  0.00    +0.000 C 
ENDROOT
TORSDOF 0
ENDMDL
MODEL 8
REMARK VINA RESULT:      -4.9     10.295     11.946
REMARK  Name = Synthetic camphor
REMARK  3 active torsions:
REMARK  status: ('A' for Active; 'I' for Inactive)
REMARK    1  A    between atoms: C_1  and  C_2
REMARK    2  A    between atoms: C_2  and  C_3
REMARK    3  A    between atoms: C_7  and  C_8
REMARK                            x       y       z     vdW  Elec       q    Type
REMARK                         _______ _______ _______ _____ _____    ______ ____
ROOT
ATOM      1  C   UNL     1      -6.815  -0.683 123.248  0.00  0.00    +0.000 C 
ATOM      2  C   UNL     1      -7.707  -1.808 123.806  0.00  0.00    +0.000 C 
ATOM      3  C   UNL     1      -8.944  -1.881 122.894  0.00  0.00    +0.000 C 
ATOM      4  C   UNL     1      -6.976  -3.158 124.012  0.00  0.00    +0.000 C 
ATOM      5  C   UNL     1      -5.900  -2.800 125.066  0.00  0.00    +0.000 C 
ATOM      6  C   UNL     1      -6.625  -1.777 125.976  0.00  0.00    +0.000 C 
ATOM      7  C   UNL     1      -8.020  -1.656 125.316  0.00  0.00    +0.000 C 
ATOM      8  C   UNL     1      -8.826  -0.440 125.713  0.00  0.00    +0.000 C 
ATOM      9  C   UNL     1      -8.681  -3.010 125.586  0.00  0.00    +0.000 C 
ATOM     10  O   UNL     1      -9.581  -3.226 126.385  0.00  0.00    +0.000 OA
ATOM     11  C   UNL     1      -8.023  -4.062 124.714  0.00  0.00    +0.000 C 
ENDROOT
TORSDOF 0
ENDMDL
MODEL 9
REMARK VINA RESULT:      -4.7     10.717     12.304
REMARK  Name = Synthetic camphor
REMARK  3 active torsions:
REMARK  status: ('A' for Active; 'I' for Inactive)
REMARK    1  A    between atoms: C_1  and  C_2
REMARK    2  A    between atoms: C_2  and  C_3
REMARK    3  A    between atoms: C_7  and  C_8
REMARK                            x       y       z     vdW  Elec       q    Type
REMARK                         _______ _______ _______ _____ _____    ______ ____
ROOT
ATOM      1  C   UNL     1      -8.248  -1.205 126.273  0.00  0.00    +0.000 C 
ATOM      2  C   UNL     1      -7.156  -1.583 125.254  0.00  0.00    +0.000 C 
ATOM      3  C   UNL     1      -5.928  -0.717 125.585  0.00  0.00    +0.000 C 
ATOM      4  C   UNL     1      -6.869  -3.103 125.161  0.00  0.00    +0.000 C 
ATOM      5  C   UNL     1      -8.226  -3.672 124.680  0.00  0.00    +0.000 C 
ATOM      6  C   UNL     1      -8.744  -2.577 123.715  0.00  0.00    +0.000 C 
ATOM      7  C   UNL     1      -7.632  -1.503 123.781  0.00  0.00    +0.000 C 
ATOM      8  C   UNL     1      -8.018  -0.131 123.278  0.00  0.00    +0.000 C 
ATOM      9  C   UNL     1      -6.438  -2.157 123.082  0.00  0.00    +0.000 C 
ATOM     10  O   UNL     1      -6.011  -1.876 121.972  0.00  0.00    +0.000 OA
ATOM     11  C   UNL     1      -5.871  -3.238 123.983  0.00  0.00    +0.000 C 
ENDROOT
TORSDOF 0
ENDMDL
