MODEL 1
REMARK VINA RESULT:      -7.5      0.000      0.000
REMARK  Name = Tacrine
REMARK  1 active torsions:
REMARK  status: ('A' for Active; 'I' for Inactive)
REMARK    1  A    between atoms: N_1  and  C_2
REMARK                            x       y       z     vdW  Elec       q    Type
REMARK                         _______ _______ _______ _____ _____    ______ ____
ROOT
ATOM      1  C   UNL     1     -10.940   6.596 131.372  0.00  0.00    +0.000 A 
ATOM      2  C   UNL     1     -11.304   7.272 130.202  0.00  0.00    +0.000 A 
ATOM      3  C   UNL     1     -12.761   7.410 129.849  0.00  0.00    +0.000 C 
ATOM      4  C   UNL     1     -13.029   8.472 128.802  0.00  0.00    +0.000 C 
ATOM      5  C   UNL     1     -12.090   8.249 127.628  0.00  0.00    +0.000 C 
ATOM      6  C   UNL     1     -10.648   8.494 128.081  0.00  0.00    +0.000 C 
ATOM      7  C   UNL     1     -10.295   7.757 129.359  0.00  0.00    +0.000 A 
ATOM      8  N   UNL     1      -8.974   7.634 129.655  0.00  0.00    +0.000 NA
ATOM      9  C   UNL     1      -8.617   6.994 130.789  0.00  0.00    +0.000 A 
ATOM     10  C   UNL     1      -7.272   6.841 131.122  0.00  0.00    +0.000 A 
ATOM     11  C   UNL     1      -6.855   6.173 132.282  0.00  0.00    +0.000 A 
ATOM     12  C   UNL     1      -7.798   5.639 133.146  0.00  0.00    +0.000 A 
ATOM     13  C   UNL     1      -9.141   5.781 132.842  0.00  0.00    +0.000 A 
ATOM     14  C   UNL     1      -9.575   6.449 131.680  0.00  0.00    +0.000 A 
ENDROOT
BRANCH   1  15
ATOM     15  N   UNL     1     -11.931   6.007 132.166  0.00  0.00    +0.000 N 
ATOM     16  H   UNL     1     -12.000   5.005 132.255  0.00  0.00    +0.000 HD
ATOM     17  H   UNL     1     -12.710   6.539 132.514  0.00  0.00    +0.000 HD
ENDBRANCH   1  15
TORSDOF 1
ENDMDL
MODEL 2
REMARK VINA RESULT:      -7.2      1.009      1.362
REMARK  Name = Tacrine
REMARK  1 active torsions:
REMARK  status: ('A' for Active; 'I' for Inactive)
REMARK    1  A    between atoms: N_1  and  C_2
REMARK                            x       y       z     vdW  Elec       q    Type
REMARK                         _______ _______ _______ _____ _____    ______ ____
ROOT
ATOM      1  C   UNL     1      -9.815   6.038 132.128  0.00  0.00    +0.000 A 
ATOM      2  C   UNL     1     -10.580   6.635 131.120  0.00  0.00    +0.000 A 
ATOM      3  C   UNL     1     -12.078   6.486 131.139  0.00  0.00    +0.000 C 
ATOM      4  C   UNL     1     -12.794   7.481 130.246  0.00  0.00    +0.000 C 
ATOM      5  C   UNL     1     -12.152   7.453 128.870  0.00  0.00    +0.000 C 
ATOM      6  C   UNL     1     -10.715   7.973 128.971  0.00  0.00    +0.000 C 
ATOM      7  C   UNL     1      -9.923   7.313 130.084  0.00  0.00    +0.000 A 
ATOM      8  N   UNL     1      -8.571   7.450 130.043  0.00  0.00    +0.000 NA
ATOM      9  C   UNL     1      -7.829   6.887 131.020  0.00  0.00    +0.000 A 
ATOM     10  C   UNL     1      -6.440   6.999 131.008  0.00  0.00    +0.000 A 
ATOM     11  C   UNL     1      -5.629   6.420 131.995  0.00  0.00    +0.000 A 
ATOM     12  C   UNL     1      -6.209   5.707 133.032  0.00  0.00    +0.000 A 
ATOM     13  C   UNL     1      -7.587   5.585 133.071  0.00  0.00    +0.000 A 
ATOM     14  C   UNL     1      -8.414   6.160 132.087  0.00  0.00    +0.000 A 
ENDROOT
BRANCH   1  15
ATOM     15  N   UNL     1     -10.448   5.262 133.106  0.00  0.00    +0.000 N 
ATOM     16  H   UNL     1      -9.932   4.880 133.882  0.00  0.00    +0.000 HD
ATOM     17  H   UNL     1     -11.379   4.905 132.972  0.00  0.00    +0.000 HD
ENDBRANCH   1  15
TORSDOF 1
ENDMDL
MODEL 3
REMARK VINA RESULT:      -7.1      0.379      4.728
REMARK  Name = Tacrine
REMARK  1 active torsions:
REMARK  status: ('A' for Active; 'I' for Inactive)
REMARK    1  A    between atoms: N_1  and  C_2
REMARK                            x       y       z     vdW  Elec       q    Type
REMARK                         _______ _______ _______ _____ _____    ______ ____
ROOT
ATOM      1  C   UNL     1     -10.743   6.485 131.547  0.00  0.00    +0.000 A 
ATOM      2  C   UNL     1      -9.371   6.301 131.755  0.00  0.00    +0.000 A 
ATOM      3  C   UNL     1      -8.900   5.571 132.985  0.00  0.00    +0.000 C 
ATOM      4  C   UNL     1      -7.460   5.105 132.894  0.00  0.00    +0.000 C 
ATOM      5  C   UNL     1      -6.594   6.274 132.455  0.00  0.00    +0.000 C 
ATOM      6  C   UNL     1      -6.973   6.674 131.026  0.00  0.00    +0.000 C 
ATOM      7  C   UNL     1      -8.467   6.850 130.836  0.00  0.00    +0.000 A 
ATOM      8  N   UNL     1      -8.872   7.520 129.725  0.00  0.00    +0.000 NA
ATOM      9  C   UNL     1     -10.194   7.690 129.512  0.00  0.00    +0.000 A 
ATOM     10  C   UNL     1     -10.648   8.378 128.388  0.00  0.00    +0.000 A 
ATOM     11  C   UNL     1     -12.011   8.590 128.134  0.00  0.00    +0.000 A 
ATOM     12  C   UNL     1     -12.961   8.102 129.018  0.00  0.00    +0.000 A 
ATOM     13  C   UNL     1     -12.537   7.410 130.139  0.00  0.00    +0.000 A 
ATOM     14  C   UNL     1     -11.172   7.191 130.408  0.00  0.00    +0.000 A 
ENDROOT
BRANCH   1  15
ATOM     15  N   UNL     1     -11.653   6.042 132.514  0.00  0.00    +0.000 N 
ATOM     16  H   UNL     1     -11.395   5.338 133.187  0.00  0.00    +0.000 HD
ATOM     17  H   UNL     1     -12.632   6.264 132.454  0.00  0.00    +0.000 HD
ENDBRANCH   1  15
TORSDOF 1
ENDMDL
MODEL 4
REMARK VINA RESULT:      -6.4      1.891      4.738
REMARK  Name = Tacrine
REMARK  1 active torsions:
REMARK  status: ('A' for Active; 'I' for Inactive)
REMARK    1  A    between atoms: N_1  and  C_2
REMARK                            x       y       z     vdW  Elec       q    Type
REMARK                         _______ _______ _______ _____ _____    ______ ____
ROOT
ATOM      1  C   UNL     1     -10.670   5.962 131.138  0.00  0.00    +0.000 A 
ATOM      2  C   UNL     1      -9.627   5.109 130.760  0.00  0.00    +0.000 A 
ATOM      3  C   UNL     1      -9.064   4.137 131.762  0.00  0.00    +0.000 C 
ATOM      4  C   UNL     1      -8.239   3.033 131.132  0.00  0.00    +0.000 C 
ATOM      5  C   UNL     1      -7.226   3.658 130.187  0.00  0.00    +0.000 C 
ATOM      6  C   UNL     1      -7.965   4.317 129.019  0.00  0.00    +0.000 C 
ATOM      7  C   UNL     1      -9.096   5.222 129.467  0.00  0.00    +0.000 A 
ATOM      8  N   UNL     1      -9.584   6.099 128.551  0.00  0.00    +0.000 NA
ATOM      9  C   UNL     1     -10.598   6.916 128.907  0.00  0.00    +0.000 A 
ATOM     10  C   UNL     1     -11.119   7.835 127.997  0.00  0.00    +0.000 A 
ATOM     11  C   UNL     1     -12.163   8.711 128.327  0.00  0.00    +0.000 A 
ATOM     12  C   UNL     1     -12.716   8.678 129.597  0.00  0.00    +0.000 A 
ATOM     13  C   UNL     1     -12.220   7.771 130.519  0.00  0.00    +0.000 A 
ATOM     14  C   UNL     1     -11.172   6.886 130.202  0.00  0.00    +0.000 A 
ENDROOT
BRANCH   1  15
ATOM     15  N   UNL     1     -11.134   5.941 132.458  0.00  0.00    +0.000 N 
ATOM     16  H   UNL     1     -10.547   6.239 133.221  0.00  0.00    +0.000 HD
ATOM     17  H   UNL     1     -11.980   5.459 132.710  0.00  0.00    +0.000 HD
ENDBRANCH   1  15
TORSDOF 1
ENDMDL
MODEL 5
REMARK VINA RESULT:      -6.4     10.575     11.122
REMARK  Name = Tacrine
REMARK  1 active torsions:
REMARK  status: ('A' for Active; 'I' for Inactive)
REMARK    1  A    between atoms: N_1  and  C_2
REMARK                            x       y       z     vdW  Elec       q    Type
REMARK                         _______ _______ _______ _____ _____    ______ ____
ROOT
ATOM      1  C   UNL     1      -6.287  -1.621 126.338  0.00  0.00    +0.000 A 
ATOM      2  C   UNL     1      -6.876  -1.892 125.098  0.00  0.00    +0.000 A 
ATOM      3  C   UNL     1      -6.288  -1.289 123.850  0.00  0.00    +0.000 C 
ATOM      4  C   UNL     1      -6.762  -1.960 122.576  0.00  0.00    +0.000 C 
ATOM      5  C   UNL     1      -8.278  -2.051 122.606  0.00  0.00    +0.000 C 
ATOM      6  C   UNL     1      -8.706  -2.995 123.734  0.00  0.00    +0.000 C 
ATOM      7  C   UNL     1      -8.035  -2.679 125.057  0.00  0.00    +0.000 A 
ATOM      8  N   UNL     1      -8.587  -3.224 126.173  0.00  0.00    +0.000 NA
ATOM      9  C   UNL     1      -8.016  -2.976 127.371  0.00  0.00    +0.000 A 
ATOM     10  C   UNL     1      -8.558  -3.511 128.538  0.00  0.00    +0.000 A 
ATOM     11  C   UNL     1      -8.005  -3.270 129.804  0.00  0.00    +0.000 A 
ATOM     12  C   UNL     1      -6.877  -2.475 129.924  0.00  0.00    +0.000 A 
ATOM     13  C   UNL     1      -6.315  -1.935 128.779  0.00  0.00    +0.000 A 
ATOM     14  C   UNL     1      -6.859  -2.168 127.501  0.00  0.00    +0.000 A 
ENDROOT
BRANCH   1  15
ATOM     15  N   UNL     1      -5.197  -0.746 126.407  0.00  0.00    +0.000 N 
ATOM     16  H   UNL     1      -5.107   0.026 125.764  0.00  0.00    +0.000 HD
ATOM     17  H   UNL     1      -4.385  -0.960 126.960  0.00  0.00    +0.000 HD
ENDBRANCH   1  15
TORSDOF 1
ENDMDL
MODEL 6
REMARK VINA RESULT:      -6.2     10.616     11.827
REMARK  Name = Tacrine
REMARK  1 active torsions:
REMARK  status: ('A' for Active; 'I' for Inactive)
REMARK    1  A    between atoms: N_1  and  C_2
REMARK                            x       y       z     vdW  Elec       q    Type
REMARK                         _______ _______ _______ _____ _____    ______ ____
ROOT
ATOM      1  C   UNL     1      -6.648  -1.751 126.127  0.00  0.00    +0.000 A 
ATOM      2  C   UNL     1      -6.988  -2.173 127.418  0.00  0.00    +0.000 A 
ATOM      3  C   UNL     1      -6.100  -1.803 128.576  0.00  0.00    +0.000 C 
ATOM      4  C   UNL     1      -6.769  -1.975 129.925  0.00  0.00    +0.000 C 
ATOM      5  C   UNL     1      -7.386  -3.362 129.992  0.00  0.00    +0.000 C 
ATOM      6  C   UNL     1      -8.523  -3.458 128.971  0.00  0.00    +0.000 C 
ATOM      7  C   UNL     1      -8.122  -2.979 127.589  0.00  0.00    +0.000 A 
ATOM      8  N   UNL     1      -8.930  -3.332 126.555  0.00  0.00    +0.000 NA
ATOM      9  C   UNL     1      -8.615  -2.917 125.310  0.00  0.00    +0.000 A 
ATOM     10  C   UNL     1      -9.415  -3.266 124.223  0.00  0.00    +0.000 A 
ATOM     11  C   UNL     1      -9.118  -2.869 122.912  0.00  0.00    +0.000 A 
ATOM     12  C   UNL     1      -7.995  -2.097 122.663  0.00  0.00    +0.000 A 
ATOM     13  C   UNL     1      -7.185  -1.732 123.725  0.00  0.00    +0.000 A 
ATOM     14  C   UNL     1      -7.470  -2.124 125.047  0.00  0.00    +0.000 A 
ENDROOT
BRANCH   1  15
ATOM     15  N   UNL     1      -5.459  -1.042 125.924  0.00  0.00    +0.000 N 
ATOM     16  H   UNL     1      -5.416  -0.271 125.276  0.00  0.00    +0.000 HD
ATOM     17  H   UNL     1      -4.577  -1.387 126.264  0.00  0.00    +0.000 HD
ENDBRANCH   1  15
TORSDOF 1
ENDMDL
MODEL 7
REMARK VINA RESULT:      -6.1      8.711      9.933
REMARK  Name = Tacrine
REMARK  1 active torsions:
REMARK  status: ('A' for Active; 'I' for Inactive)
REMARK    1  A    between atoms: N_1  and  C_2
REMARK                            x       y       z     vdW  Elec       q    Type
REMARK                         _______ _______ _______ _____ _____    ______ ____
ROOT
ATOM      1  C   UNL     1      -6.033   3.964 122.099  0.00  0.00    +0.000 A 
ATOM      2  C   UNL     1      -6.897   4.026 121.000  0.00  0.00    +0.000 A 
ATOM      3  C   UNL     1      -6.385   4.548 119.684  0.00  0.00    +0.000 C 
ATOM      4  C   UNL     1      -7.279   4.200 118.510  0.00  0.00    +0.000 C 
ATOM      5  C   UNL     1      -8.709   4.582 118.854  0.00  0.00    +0.000 C 
ATOM      6  C   UNL     1      -9.205   3.700 120.005  0.00  0.00    +0.000 C 
ATOM      7  C   UNL     1      -8.236   3.647 121.170  0.00  0.00    +0.000 A 
ATOM      8  N   UNL     1      -8.719   3.182 122.352  0.00  0.00    +0.000 NA
ATOM      9  C   UNL     1      -7.887   3.109 123.413  0.00  0.00    +0.000 A 
ATOM     10  C   UNL     1      -8.348   2.645 124.644  0.00  0.00    +0.000 A 
ATOM     11  C   UNL     1      -7.523   2.564 125.775  0.00  0.00    +0.000 A 
ATOM     12  C   UNL     1      -6.195   2.952 125.689  0.00  0.00    +0.000 A 
ATOM     13  C   UNL     1      -5.710   3.412 124.476  0.00  0.00    +0.000 A 
ATOM     14  C   UNL     1      -6.527   3.499 123.332  0.00  0.00    +0.000 A 
ENDROOT
BRANCH   1  15
ATOM     15  N   UNL     1      -4.724   4.445 121.976  0.00  0.00    +0.000 N 
ATOM     16  H   UNL     1      -4.465   5.348 122.341  0.00  0.00    +0.000 HD
ATOM     17  H   UNL     1      -4.058   4.004 121.365  0.00  0.00    +0.000 HD
ENDBRANCH   1  15
TORSDOF 1
ENDMDL
MODEL 8
REMARK VINA RESULT:      -6.1      8.667      9.904
REMARK  Name = Tacrine
REMARK  1 active torsions:
REMARK  status: ('A' for Active; 'I' for Inactive)
REMARK    1  A    between atoms: N_1  and  C_2
REMARK                            x       y       z     vdW  Elec       q    Type
REMARK                         _______ _______ _______ _____ _____    ______ ____
ROOT
ATOM      1  C   UNL     1      -6.254   3.513 123.553  0.00  0.00    +0.000 A 
ATOM      2  C   UNL     1      -6.076   3.914 122.224  0.00  0.00    +0.000 A 
ATOM      3  C   UNL     1      -4.830   4.666 121.838  0.00  0.00    +0.000 C 
ATOM      4  C   UNL     1      -4.582   4.691 120.343  0.00  0.00    +0.000 C 
ATOM      5  C   UNL     1      -5.856   5.133 119.643  0.00  0.00    +0.000 C 
ATOM      6  C   UNL     1      -6.940   4.070 119.847  0.00  0.00    +0.000 C 
ATOM      7  C   UNL     1      -7.093   3.651 121.296  0.00  0.00    +0.000 A 
ATOM      8  N   UNL     1      -8.229   2.982 121.627  0.00  0.00    +0.000 NA
ATOM      9  C   UNL     1      -8.400   2.582 122.905  0.00  0.00    +0.000 A 
ATOM     10  C   UNL     1      -9.556   1.900 123.285  0.00  0.00    +0.000 A 
ATOM     11  C   UNL     1      -9.782   1.477 124.602  0.00  0.00    +0.000 A 
ATOM     12  C   UNL     1      -8.833   1.732 125.580  0.00  0.00    +0.000 A 
ATOM     13  C   UNL     1      -7.674   2.402 125.229  0.00  0.00    +0.000 A 
ATOM     14  C   UNL     1      -7.434   2.834 123.910  0.00  0.00    +0.000 A 
ENDROOT
BRANCH   1  15
ATOM     15  N   UNL     1      -5.301   3.868 124.514  0.00  0.00    +0.000 N 
ATOM     16  H   UNL     1      -4.318   3.881 124.293  0.00  0.00    +0.000 HD
ATOM     17  H   UNL     1      -5.538   3.936 125.489  0.00  0.00    +0.000 HD
ENDBRANCH   1  15
TORSDOF 1
ENDMDL
MODEL 9
REMARK VINA RESULT:      -5.9     10.654     11.753
REMARK  Name = Tacrine
REMARK  1 active torsions:
REMARK  status: ('A' for Active; 'I' for Inactive)
REMARK    1  A    between atoms: N_1  and  C_2
REMARK                            x       y       z     vdW  Elec       q    Type
REMARK                         _______ _______ _______ _____ _____    ______ ____
ROOT
ATOM      1  C   UNL     1      -8.429  -3.313 127.073  0.00  0.00    +0.000 A 
ATOM      2  C   UNL     1      -7.386  -2.942 127.929  0.00  0.00    +0.000 A 
ATOM      3  C   UNL     1      -7.483  -3.261 129.397  0.00  0.00    +0.000 C 
ATOM      4  C   UNL     1      -6.155  -3.167 130.123  0.00  0.00    +0.000 C 
ATOM      5  C   UNL     1      -5.506  -1.835 129.784  0.00  0.00    +0.000 C 
ATOM      6  C   UNL     1      -5.147  -1.812 128.295  0.00  0.00    +0.000 C 
ATOM      7  C   UNL     1      -6.297  -2.234 127.401  0.00  0.00    +0.000 A 
ATOM      8  N   UNL     1      -6.195  -1.928 126.081  0.00  0.00    +0.000 NA
ATOM      9  C   UNL     1      -7.193  -2.294 125.249  0.00  0.00    +0.000 A 
ATOM     10  C   UNL     1      -7.128  -1.991 123.889  0.00  0.00    +0.000 A 
ATOM     11  C   UNL     1      -8.146  -2.340 122.991  0.00  0.00    +0.000 A 
ATOM     12  C   UNL     1      -9.268  -3.014 123.447  0.00  0.00    +0.000 A 
ATOM     13  C   UNL     1      -9.355  -3.332 124.792  0.00  0.00    +0.000 A 
ATOM     14  C   UNL     1      -8.341  -2.987 125.707  0.00  0.00    +0.000 A 
ENDROOT
BRANCH   1  15
ATOM     15  N   UNL     1      -9.573  -3.920 127.603  0.00  0.00    +0.000 N 
ATOM     16  H   UNL     1      -9.938  -4.774 127.212  0.00  0.00    +0.000 HD
ATOM     17  H   UNL     1     -10.170  -3.438 128.253  0.00  0.00    +0.000 HD
ENDBRANCH   1  15
TORSDOF 1
ENDMDL
