MODEL 1
REMARK VINA RESULT:     -10.5      0.000      0.000
REMARK  Name = Tadalafil
REMARK  2 active torsions:
REMARK  status: ('A' for Active; 'I' for Inactive)
REMARK    1  A    between atoms: C_13  and  C_22
REMARK    2  A    between atoms: N_18  and  C_19
REMARK                            x       y       z     vdW  Elec       q    Type
REMARK                         _______ _______ _______ _____ _____    ______ ____
ROOT
ATOM      1  C   UNL     1      -6.289   3.987 125.247  0.00  0.00    +0.000 C 
ATOM      2  C   UNL     1      -5.461   3.817 123.945  0.00  0.00    +0.000 C 
ATOM      3  C   UNL     1      -6.408   3.745 122.808  0.00  0.00    +0.000 A 
ATOM      4  C   UNL     1      -7.653   3.189 122.993  0.00  0.00    +0.000 A 
ATOM      5  N   UNL     1      -8.360   3.325 121.831  0.00  0.00    +0.000 N 
ATOM      6  C   UNL     1      -7.550   3.888 120.867  0.00  0.00    +0.000 A 
ATOM      7  C   UNL     1      -7.824   4.187 119.529  0.00  0.00    +0.000 A 
ATOM      8  C   UNL     1      -6.782   4.725 118.765  0.00  0.00    +0.000 A 
ATOM      9  C   UNL     1      -5.525   4.955 119.319  0.00  0.00    +0.000 A 
ATOM     10  C   UNL     1      -5.274   4.671 120.664  0.00  0.00    +0.000 A 
ATOM     11  C   UNL     1      -6.305   4.133 121.453  0.00  0.00    +0.000 A 
ATOM     12  C   UNL     1      -8.133   2.498 124.227  0.00  0.00    +0.000 C 
ATOM     13  N   UNL     1      -7.348   2.943 125.393  0.00  0.00    +0.000 N 
ATOM     14  C   UNL     1      -7.907   2.685 126.638  0.00  0.00    +0.000 C 
ATOM     15  O   UNL     1      -8.959   2.062 126.793  0.00  0.00    +0.000 OA
ATOM     16  C   UNL     1      -7.215   3.342 127.820  0.00  0.00    +0.000 C 
ATOM     17  N   UNL     1      -5.789   3.555 127.634  0.00  0.00    +0.000 N 
ATOM     18  C   UNL     1      -4.972   3.729 128.819  0.00  0.00    +0.000 C 
ATOM     19  C   UNL     1      -5.298   4.019 126.422  0.00  0.00    +0.000 C 
ATOM     20  O   UNL     1      -4.177   4.525 126.320  0.00  0.00    +0.000 OA
ATOM     21  H   UNL     1      -9.312   3.020 121.676  0.00  0.00    +0.000 HD
ENDROOT
BRANCH  12  22
ATOM     22  C   UNL     1      -8.003   0.989 124.061  0.00  0.00    +0.000 A 
ATOM     23  C   UNL     1      -9.124   0.209 123.717  0.00  0.00    +0.000 A 
ATOM     24  C   UNL     1      -8.967  -1.147 123.588  0.00  0.00    +0.000 A 
ATOM     25  C   UNL     1      -7.751  -1.751 123.782  0.00  0.00    +0.000 A 
ATOM     26  O   UNL     1      -7.819  -3.100 123.616  0.00  0.00    +0.000 OA
ATOM     27  C   UNL     1      -9.234  -3.270 123.379  0.00  0.00    +0.000 C 
ATOM     28  O   UNL     1      -9.951  -2.026 123.268  0.00  0.00    +0.000 OA
ATOM     29  C   UNL     1      -6.622  -1.026 124.102  0.00  0.00    +0.000 A 
ATOM     30  C   UNL     1      -6.752   0.359 124.243  0.00  0.00    +0.000 A 
ENDBRANCH  12  22
TORSDOF 1
ENDMDL
MODEL 2
REMARK VINA RESULT:      -9.0      7.372      8.781
REMARK  Name = Tadalafil
REMARK  2 active torsions:
REMARK  status: ('A' for Active; 'I' for Inactive)
REMARK    1  A    between atoms: C_13  and  C_22
REMARK    2  A    between atoms: N_18  and  C_19
REMARK                            x       y       z     vdW  Elec       q    Type
REMARK                         _______ _______ _______ _____ _____    ______ ____
ROOT
ATOM      1  C   UNL     1      -6.857   6.834 131.593  0.00  0.00    +0.000 C 
ATOM      2  C   UNL     1      -7.795   6.904 130.358  0.00  0.00    +0.000 C 
ATOM      3  C   UNL     1      -9.185   6.702 130.828  0.00  0.00    +0.000 A 
ATOM      4  C   UNL     1      -9.424   5.896 131.918  0.00  0.00    +0.000 A 
ATOM      5  N   UNL     1     -10.760   5.947 132.203  0.00  0.00    +0.000 N 
ATOM      6  C   UNL     1     -11.401   6.713 131.252  0.00  0.00    +0.000 A 
ATOM      7  C   UNL     1     -12.758   7.021 131.113  0.00  0.00    +0.000 A 
ATOM      8  C   UNL     1     -13.132   7.798 130.012  0.00  0.00    +0.000 A 
ATOM      9  C   UNL     1     -12.187   8.249 129.092  0.00  0.00    +0.000 A 
ATOM     10  C   UNL     1     -10.831   7.951 129.258  0.00  0.00    +0.000 A 
ATOM     11  C   UNL     1     -10.431   7.174 130.357  0.00  0.00    +0.000 A 
ATOM     12  C   UNL     1      -8.415   5.058 132.631  0.00  0.00    +0.000 C 
ATOM     13  N   UNL     1      -7.060   5.590 132.396  0.00  0.00    +0.000 N 
ATOM     14  C   UNL     1      -6.076   5.159 133.275  0.00  0.00    +0.000 C 
ATOM     15  O   UNL     1      -6.276   4.328 134.164  0.00  0.00    +0.000 OA
ATOM     16  C   UNL     1      -4.742   5.879 133.177  0.00  0.00    +0.000 C 
ATOM     17  N   UNL     1      -4.434   6.386 131.849  0.00  0.00    +0.000 N 
ATOM     18  C   UNL     1      -3.046   6.660 131.536  0.00  0.00    +0.000 C 
ATOM     19  C   UNL     1      -5.416   7.004 131.086  0.00  0.00    +0.000 C 
ATOM     20  O   UNL     1      -5.139   7.731 130.129  0.00  0.00    +0.000 OA
ATOM     21  H   UNL     1     -11.225   5.464 132.960  0.00  0.00    +0.000 HD
ENDROOT
BRANCH  12  22
ATOM     22  C   UNL     1      -8.496   3.618 132.141  0.00  0.00    +0.000 A 
ATOM     23  C   UNL     1      -7.735   3.197 131.033  0.00  0.00    +0.000 A 
ATOM     24  C   UNL     1      -7.843   1.895 130.616  0.00  0.00    +0.000 A 
ATOM     25  C   UNL     1      -8.668   1.003 131.254  0.00  0.00    +0.000 A 
ATOM     26  O   UNL     1      -8.634  -0.227 130.673  0.00  0.00    +0.000 OA
ATOM     27  C   UNL     1      -7.758   0.028 129.554  0.00  0.00    +0.000 C 
ATOM     28  O   UNL     1      -7.180   1.347 129.565  0.00  0.00    +0.000 OA
ATOM     29  C   UNL     1      -9.418   1.366 132.353  0.00  0.00    +0.000 A 
ATOM     30  C   UNL     1      -9.329   2.687 132.800  0.00  0.00    +0.000 A 
ENDBRANCH  12  22
TORSDOF 1
ENDMDL
MODEL 3
REMARK VINA RESULT:      -8.9      2.617      5.920
REMARK  Name = Tadalafil
REMARK  2 active torsions:
REMARK  status: ('A' for Active; 'I' for Inactive)
REMARK    1  A    between atoms: C_13  and  C_22
REMARK    2  A    between atoms: N_18  and  C_19
REMARK                            x       y       z     vdW  Elec       q    Type
REMARK                         _______ _______ _______ _____ _____    ______ ____
ROOT
ATOM      1  C   UNL     1      -6.680   0.142 125.462  0.00  0.00    +0.000 C 
ATOM      2  C   UNL     1      -5.237   0.718 125.450  0.00  0.00    +0.000 C 
ATOM      3  C   UNL     1      -5.316   2.151 125.815  0.00  0.00    +0.000 A 
ATOM      4  C   UNL     1      -6.428   2.883 125.466  0.00  0.00    +0.000 A 
ATOM      5  N   UNL     1      -6.298   4.138 125.992  0.00  0.00    +0.000 N 
ATOM      6  C   UNL     1      -5.068   4.250 126.606  0.00  0.00    +0.000 A 
ATOM      7  C   UNL     1      -4.484   5.345 127.251  0.00  0.00    +0.000 A 
ATOM      8  C   UNL     1      -3.189   5.179 127.753  0.00  0.00    +0.000 A 
ATOM      9  C   UNL     1      -2.512   3.968 127.619  0.00  0.00    +0.000 A 
ATOM     10  C   UNL     1      -3.119   2.876 126.992  0.00  0.00    +0.000 A 
ATOM     11  C   UNL     1      -4.420   3.018 126.480  0.00  0.00    +0.000 A 
ATOM     12  C   UNL     1      -7.556   2.414 124.606  0.00  0.00    +0.000 C 
ATOM     13  N   UNL     1      -7.622   0.940 124.620  0.00  0.00    +0.000 N 
ATOM     14  C   UNL     1      -8.816   0.381 124.187  0.00  0.00    +0.000 C 
ATOM     15  O   UNL     1      -9.756   1.044 123.745  0.00  0.00    +0.000 OA
ATOM     16  C   UNL     1      -8.966  -1.113 124.417  0.00  0.00    +0.000 C 
ATOM     17  N   UNL     1      -7.711  -1.848 124.406  0.00  0.00    +0.000 N 
ATOM     18  C   UNL     1      -7.765  -3.274 124.152  0.00  0.00    +0.000 C 
ATOM     19  C   UNL     1      -6.589  -1.334 125.042  0.00  0.00    +0.000 C 
ATOM     20  O   UNL     1      -5.627  -2.044 125.347  0.00  0.00    +0.000 OA
ATOM     21  H   UNL     1      -6.969   4.890 125.907  0.00  0.00    +0.000 HD
ENDROOT
BRANCH  12  22
ATOM     22  C   UNL     1      -7.362   2.908 123.178  0.00  0.00    +0.000 A 
ATOM     23  C   UNL     1      -8.475   3.214 122.372  0.00  0.00    +0.000 A 
ATOM     24  C   UNL     1      -8.258   3.646 121.088  0.00  0.00    +0.000 A 
ATOM     25  C   UNL     1      -6.991   3.789 120.582  0.00  0.00    +0.000 A 
ATOM     26  O   UNL     1      -7.003   4.217 119.291  0.00  0.00    +0.000 OA
ATOM     27  C   UNL     1      -8.423   4.243 119.030  0.00  0.00    +0.000 C 
ATOM     28  O   UNL     1      -9.226   3.972 120.194  0.00  0.00    +0.000 OA
ATOM     29  C   UNL     1      -5.872   3.518 121.341  0.00  0.00    +0.000 A 
ATOM     30  C   UNL     1      -6.061   3.074 122.653  0.00  0.00    +0.000 A 
ENDBRANCH  12  22
TORSDOF 1
ENDMDL
MODEL 4
REMARK VINA RESULT:      -8.7      6.896     10.133
REMARK  Name = Tadalafil
REMARK  2 active torsions:
REMARK  status: ('A' for Active; 'I' for Inactive)
REMARK    1  A    between atoms: C_13  and  C_22
REMARK    2  A    between atoms: N_18  and  C_19
REMARK                            x       y       z     vdW  Elec       q    Type
REMARK                         _______ _______ _______ _____ _____    ______ ____
ROOT
ATOM      1  C   UNL     1      -9.816   4.813 129.787  0.00  0.00    +0.000 C 
ATOM      2  C   UNL     1      -8.662   3.845 129.409  0.00  0.00    +0.000 C 
ATOM      3  C   UNL     1      -8.695   2.705 130.354  0.00  0.00    +0.000 A 
ATOM      4  C   UNL     1      -9.127   2.904 131.645  0.00  0.00    +0.000 A 
ATOM      5  N   UNL     1      -9.150   1.693 132.280  0.00  0.00    +0.000 N 
ATOM      6  C   UNL     1      -8.654   0.724 131.434  0.00  0.00    +0.000 A 
ATOM      7  C   UNL     1      -8.460  -0.644 131.651  0.00  0.00    +0.000 A 
ATOM      8  C   UNL     1      -7.894  -1.386 130.610  0.00  0.00    +0.000 A 
ATOM      9  C   UNL     1      -7.542  -0.785 129.403  0.00  0.00    +0.000 A 
ATOM     10  C   UNL     1      -7.763   0.579 129.193  0.00  0.00    +0.000 A 
ATOM     11  C   UNL     1      -8.332   1.346 130.223  0.00  0.00    +0.000 A 
ATOM     12  C   UNL     1      -9.452   4.220 132.272  0.00  0.00    +0.000 C 
ATOM     13  N   UNL     1      -9.784   5.207 131.228  0.00  0.00    +0.000 N 
ATOM     14  C   UNL     1     -10.459   6.342 131.656  0.00  0.00    +0.000 C 
ATOM     15  O   UNL     1     -10.718   6.573 132.839  0.00  0.00    +0.000 OA
ATOM     16  C   UNL     1     -10.999   7.242 130.558  0.00  0.00    +0.000 C 
ATOM     17  N   UNL     1     -10.225   7.213 129.327  0.00  0.00    +0.000 N 
ATOM     18  C   UNL     1     -10.360   8.333 128.418  0.00  0.00    +0.000 C 
ATOM     19  C   UNL     1      -9.745   6.011 128.825  0.00  0.00    +0.000 C 
ATOM     20  O   UNL     1      -9.389   5.888 127.650  0.00  0.00    +0.000 OA
ATOM     21  H   UNL     1      -9.437   1.530 133.236  0.00  0.00    +0.000 HD
ENDROOT
BRANCH  12  22
ATOM     22  C   UNL     1      -8.266   4.713 133.091  0.00  0.00    +0.000 A 
ATOM     23  C   UNL     1      -7.161   5.313 132.457  0.00  0.00    +0.000 A 
ATOM     24  C   UNL     1      -6.109   5.735 133.229  0.00  0.00    +0.000 A 
ATOM     25  C   UNL     1      -6.115   5.589 134.593  0.00  0.00    +0.000 A 
ATOM     26  O   UNL     1      -4.973   6.062 135.161  0.00  0.00    +0.000 OA
ATOM     27  C   UNL     1      -4.225   6.441 133.986  0.00  0.00    +0.000 C 
ATOM     28  O   UNL     1      -4.977   6.322 132.763  0.00  0.00    +0.000 OA
ATOM     29  C   UNL     1      -7.183   5.024 135.258  0.00  0.00    +0.000 A 
ATOM     30  C   UNL     1      -8.269   4.582 134.497  0.00  0.00    +0.000 A 
ENDBRANCH  12  22
TORSDOF 1
ENDMDL
MODEL 5
REMARK VINA RESULT:      -8.6      9.119     12.208
REMARK  Name = Tadalafil
REMARK  2 active torsions:
REMARK  status: ('A' for Active; 'I' for Inactive)
REMARK    1  A    between atoms: C_13  and  C_22
REMARK    2  A    between atoms: N_18  and  C_19
REMARK                            x       y       z     vdW  Elec       q    Type
REMARK                         _______ _______ _______ _____ _____    ______ ____
ROOT
ATOM      1  C   UNL     1      -5.971   3.531 134.889  0.00  0.00    +0.000 C 
ATOM      2  C   UNL     1      -5.327   4.915 135.173  0.00  0.00    +0.000 C 
ATOM      3  C   UNL     1      -6.360   5.781 135.788  0.00  0.00    +0.000 A 
ATOM      4  C   UNL     1      -7.682   5.615 135.443  0.00  0.00    +0.000 A 
ATOM      5  N   UNL     1      -8.434   6.461 136.209  0.00  0.00    +0.000 N 
ATOM      6  C   UNL     1      -7.600   7.236 136.987  0.00  0.00    +0.000 A 
ATOM      7  C   UNL     1      -7.909   8.252 137.897  0.00  0.00    +0.000 A 
ATOM      8  C   UNL     1      -6.839   8.902 138.522  0.00  0.00    +0.000 A 
ATOM      9  C   UNL     1      -5.519   8.547 138.249  0.00  0.00    +0.000 A 
ATOM     10  C   UNL     1      -5.228   7.514 137.354  0.00  0.00    +0.000 A 
ATOM     11  C   UNL     1      -6.285   6.845 136.715  0.00  0.00    +0.000 A 
ATOM     12  C   UNL     1      -8.205   4.715 134.372  0.00  0.00    +0.000 C 
ATOM     13  N   UNL     1      -7.235   3.638 134.099  0.00  0.00    +0.000 N 
ATOM     14  C   UNL     1      -7.728   2.534 133.417  0.00  0.00    +0.000 C 
ATOM     15  O   UNL     1      -8.883   2.458 132.992  0.00  0.00    +0.000 OA
ATOM     16  C   UNL     1      -6.796   1.337 133.340  0.00  0.00    +0.000 C 
ATOM     17  N   UNL     1      -5.383   1.679 133.352  0.00  0.00    +0.000 N 
ATOM     18  C   UNL     1      -4.447   0.704 132.829  0.00  0.00    +0.000 C 
ATOM     19  C   UNL     1      -4.902   2.657 134.213  0.00  0.00    +0.000 C 
ATOM     20  O   UNL     1      -3.706   2.745 134.500  0.00  0.00    +0.000 OA
ATOM     21  H   UNL     1      -9.441   6.550 136.182  0.00  0.00    +0.000 HD
ENDROOT
BRANCH  12  22
ATOM     22  C   UNL     1      -8.461   5.514 133.101  0.00  0.00    +0.000 A 
ATOM     23  C   UNL     1      -9.778   5.772 132.672  0.00  0.00    +0.000 A 
ATOM     24  C   UNL     1      -9.966   6.486 131.517  0.00  0.00    +0.000 A 
ATOM     25  C   UNL     1      -8.907   6.953 130.780  0.00  0.00    +0.000 A 
ATOM     26  O   UNL     1      -9.315   7.623 129.669  0.00  0.00    +0.000 OA
ATOM     27  C   UNL     1     -10.745   7.447 129.759  0.00  0.00    +0.000 C 
ATOM     28  O   UNL     1     -11.170   6.806 130.977  0.00  0.00    +0.000 OA
ATOM     29  C   UNL     1      -7.601   6.740 131.171  0.00  0.00    +0.000 A 
ATOM     30  C   UNL     1      -7.378   6.013 132.344  0.00  0.00    +0.000 A 
ENDBRANCH  12  22
TORSDOF 1
ENDMDL
MODEL 6
REMARK VINA RESULT:      -8.4      3.355      6.159
REMARK  Name = Tadalafil
REMARK  2 active torsions:
REMARK  status: ('A' for Active; 'I' for Inactive)
REMARK    1  A    between atoms: C_13  and  C_22
REMARK    2  A    between atoms: N_18  and  C_19
REMARK                            x       y       z     vdW  Elec       q    Type
REMARK                         _______ _______ _______ _____ _____    ______ ____
ROOT
ATOM      1  C   UNL     1      -7.057   1.413 124.335  0.00  0.00    +0.000 C 
ATOM      2  C   UNL     1      -7.005   2.533 125.409  0.00  0.00    +0.000 C 
ATOM      3  C   UNL     1      -5.666   2.498 126.041  0.00  0.00    +0.000 A 
ATOM      4  C   UNL     1      -5.002   1.299 126.162  0.00  0.00    +0.000 A 
ATOM      5  N   UNL     1      -3.764   1.545 126.687  0.00  0.00    +0.000 N 
ATOM      6  C   UNL     1      -3.655   2.887 126.987  0.00  0.00    +0.000 A 
ATOM      7  C   UNL     1      -2.594   3.594 127.563  0.00  0.00    +0.000 A 
ATOM      8  C   UNL     1      -2.782   4.961 127.790  0.00  0.00    +0.000 A 
ATOM      9  C   UNL     1      -3.978   5.592 127.451  0.00  0.00    +0.000 A 
ATOM     10  C   UNL     1      -5.019   4.876 126.856  0.00  0.00    +0.000 A 
ATOM     11  C   UNL     1      -4.854   3.501 126.616  0.00  0.00    +0.000 A 
ATOM     12  C   UNL     1      -5.555  -0.050 125.839  0.00  0.00    +0.000 C 
ATOM     13  N   UNL     1      -6.669   0.078 124.881  0.00  0.00    +0.000 N 
ATOM     14  C   UNL     1      -7.031  -1.083 124.209  0.00  0.00    +0.000 C 
ATOM     15  O   UNL     1      -6.518  -2.182 124.428  0.00  0.00    +0.000 OA
ATOM     16  C   UNL     1      -8.014  -0.903 123.065  0.00  0.00    +0.000 C 
ATOM     17  N   UNL     1      -8.926   0.218 123.232  0.00  0.00    +0.000 N 
ATOM     18  C   UNL     1     -10.160   0.203 122.473  0.00  0.00    +0.000 C 
ATOM     19  C   UNL     1      -8.465   1.434 123.717  0.00  0.00    +0.000 C 
ATOM     20  O   UNL     1      -9.097   2.482 123.561  0.00  0.00    +0.000 OA
ATOM     21  H   UNL     1      -3.051   0.854 126.876  0.00  0.00    +0.000 HD
ENDROOT
BRANCH  12  22
ATOM     22  C   UNL     1      -6.044  -0.730 127.111  0.00  0.00    +0.000 A 
ATOM     23  C   UNL     1      -5.335  -1.816 127.658  0.00  0.00    +0.000 A 
ATOM     24  C   UNL     1      -5.813  -2.408 128.799  0.00  0.00    +0.000 A 
ATOM     25  C   UNL     1      -6.956  -1.963 129.414  0.00  0.00    +0.000 A 
ATOM     26  O   UNL     1      -7.258  -2.695 130.520  0.00  0.00    +0.000 OA
ATOM     27  C   UNL     1      -6.217  -3.695 130.473  0.00  0.00    +0.000 C 
ATOM     28  O   UNL     1      -5.244  -3.463 129.437  0.00  0.00    +0.000 OA
ATOM     29  C   UNL     1      -7.674  -0.892 128.924  0.00  0.00    +0.000 A 
ATOM     30  C   UNL     1      -7.211  -0.270 127.760  0.00  0.00    +0.000 A 
ENDBRANCH  12  22
TORSDOF 1
ENDMDL
MODEL 7
REMARK VINA RESULT:      -8.3      6.771     10.773
REMARK  Name = Tadalafil
REMARK  2 active torsions:
REMARK  status: ('A' for Active; 'I' for Inactive)
REMARK    1  A    between atoms: C_13  and  C_22
REMARK    2  A    between atoms: N_18  and  C_19
REMARK                            x       y       z     vdW  Elec       q    Type
REMARK                         _______ _______ _______ _____ _____    ______ ____
ROOT
ATOM      1  C   UNL     1      -2.857   5.731 130.358  0.00  0.00    +0.000 C 
ATOM      2  C   UNL     1      -2.937   7.251 130.665  0.00  0.00    +0.000 C 
ATOM      3  C   UNL     1      -3.070   7.414 132.132  0.00  0.00    +0.000 A 
ATOM      4  C   UNL     1      -3.728   6.455 132.867  0.00  0.00    +0.000 A 
ATOM      5  N   UNL     1      -3.633   6.787 134.189  0.00  0.00    +0.000 N 
ATOM      6  C   UNL     1      -2.990   8.001 134.309  0.00  0.00    +0.000 A 
ATOM      7  C   UNL     1      -2.693   8.750 135.452  0.00  0.00    +0.000 A 
ATOM      8  C   UNL     1      -2.060   9.983 135.266  0.00  0.00    +0.000 A 
ATOM      9  C   UNL     1      -1.735  10.443 133.991  0.00  0.00    +0.000 A 
ATOM     10  C   UNL     1      -2.019   9.673 132.860  0.00  0.00    +0.000 A 
ATOM     11  C   UNL     1      -2.653   8.429 133.022  0.00  0.00    +0.000 A 
ATOM     12  C   UNL     1      -4.477   5.285 132.317  0.00  0.00    +0.000 C 
ATOM     13  N   UNL     1      -3.987   4.964 130.963  0.00  0.00    +0.000 N 
ATOM     14  C   UNL     1      -4.310   3.702 130.482  0.00  0.00    +0.000 C 
ATOM     15  O   UNL     1      -5.019   2.903 131.096  0.00  0.00    +0.000 OA
ATOM     16  C   UNL     1      -3.617   3.289 129.195  0.00  0.00    +0.000 C 
ATOM     17  N   UNL     1      -3.284   4.398 128.315  0.00  0.00    +0.000 N 
ATOM     18  C   UNL     1      -3.061   4.104 126.913  0.00  0.00    +0.000 C 
ATOM     19  C   UNL     1      -2.762   5.576 128.831  0.00  0.00    +0.000 C 
ATOM     20  O   UNL     1      -2.163   6.391 128.125  0.00  0.00    +0.000 OA
ATOM     21  H   UNL     1      -4.013   6.259 134.963  0.00  0.00    +0.000 HD
ENDROOT
BRANCH  12  22
ATOM     22  C   UNL     1      -5.966   5.598 132.266  0.00  0.00    +0.000 A 
ATOM     23  C   UNL     1      -6.542   6.145 131.103  0.00  0.00    +0.000 A 
ATOM     24  C   UNL     1      -7.885   6.422 131.101  0.00  0.00    +0.000 A 
ATOM     25  C   UNL     1      -8.671   6.175 132.198  0.00  0.00    +0.000 A 
ATOM     26  O   UNL     1      -9.966   6.533 131.987  0.00  0.00    +0.000 OA
ATOM     27  C   UNL     1      -9.876   7.105 130.665  0.00  0.00    +0.000 C 
ATOM     28  O   UNL     1      -8.577   6.954 130.061  0.00  0.00    +0.000 OA
ATOM     29  C   UNL     1      -8.155   5.624 133.351  0.00  0.00    +0.000 A 
ATOM     30  C   UNL     1      -6.788   5.333 133.384  0.00  0.00    +0.000 A 
ENDBRANCH  12  22
TORSDOF 1
ENDMDL
MODEL 8
REMARK VINA RESULT:      -8.3      6.115      9.627
REMARK  Name = Tadalafil
REMARK  2 active torsions:
REMARK  status: ('A' for Active; 'I' for Inactive)
REMARK    1  A    between atoms: C_13  and  C_22
REMARK    2  A    between atoms: N_18  and  C_19
REMARK                            x       y       z     vdW  Elec       q    Type
REMARK                         _______ _______ _______ _____ _____    ______ ____
ROOT
ATOM      1  C   UNL     1     -10.122   6.547 131.212  0.00  0.00    +0.000 C 
ATOM      2  C   UNL     1      -9.932   5.867 132.595  0.00  0.00    +0.000 C 
ATOM      3  C   UNL     1      -8.478   5.730 132.840  0.00  0.00    +0.000 A 
ATOM      4  C   UNL     1      -7.623   5.541 131.778  0.00  0.00    +0.000 A 
ATOM      5  N   UNL     1      -6.342   5.538 132.254  0.00  0.00    +0.000 N 
ATOM      6  C   UNL     1      -6.366   5.636 133.629  0.00  0.00    +0.000 A 
ATOM      7  C   UNL     1      -5.310   5.642 134.547  0.00  0.00    +0.000 A 
ATOM      8  C   UNL     1      -5.639   5.714 135.904  0.00  0.00    +0.000 A 
ATOM      9  C   UNL     1      -6.967   5.782 136.323  0.00  0.00    +0.000 A 
ATOM     10  C   UNL     1      -8.009   5.798 135.392  0.00  0.00    +0.000 A 
ATOM     11  C   UNL     1      -7.704   5.728 134.022  0.00  0.00    +0.000 A 
ATOM     12  C   UNL     1      -8.023   5.314 130.357  0.00  0.00    +0.000 C 
ATOM     13  N   UNL     1      -9.379   5.846 130.122  0.00  0.00    +0.000 N 
ATOM     14  C   UNL     1      -9.732   6.047 128.795  0.00  0.00    +0.000 C 
ATOM     15  O   UNL     1      -9.007   5.744 127.845  0.00  0.00    +0.000 OA
ATOM     16  C   UNL     1     -11.029   6.805 128.565  0.00  0.00    +0.000 C 
ATOM     17  N   UNL     1     -12.017   6.630 129.619  0.00  0.00    +0.000 N 
ATOM     18  C   UNL     1     -13.403   6.906 129.297  0.00  0.00    +0.000 C 
ATOM     19  C   UNL     1     -11.635   6.646 130.953  0.00  0.00    +0.000 C 
ATOM     20  O   UNL     1     -12.445   6.839 131.863  0.00  0.00    +0.000 OA
ATOM     21  H   UNL     1      -5.503   5.430 131.699  0.00  0.00    +0.000 HD
ENDROOT
BRANCH  12  22
ATOM     22  C   UNL     1      -7.992   3.824 130.040  0.00  0.00    +0.000 A 
ATOM     23  C   UNL     1      -7.033   3.304 129.150  0.00  0.00    +0.000 A 
ATOM     24  C   UNL     1      -7.044   1.959 128.882  0.00  0.00    +0.000 A 
ATOM     25  C   UNL     1      -7.960   1.119 129.463  0.00  0.00    +0.000 A 
ATOM     26  O   UNL     1      -7.803  -0.168 129.053  0.00  0.00    +0.000 OA
ATOM     27  C   UNL     1      -6.738  -0.015 128.090  0.00  0.00    +0.000 C 
ATOM     28  O   UNL     1      -6.190   1.316 128.045  0.00  0.00    +0.000 OA
ATOM     29  C   UNL     1      -8.906   1.581 130.354  0.00  0.00    +0.000 A 
ATOM     30  C   UNL     1      -8.920   2.948 130.644  0.00  0.00    +0.000 A 
ENDBRANCH  12  22
TORSDOF 1
ENDMDL
MODEL 9
REMARK VINA RESULT:      -8.2      4.629      7.411
REMARK  Name = Tadalafil
REMARK  2 active torsions:
REMARK  status: ('A' for Active; 'I' for Inactive)
REMARK    1  A    between atoms: C_13  and  C_22
REMARK    2  A    between atoms: N_18  and  C_19
REMARK                            x       y       z     vdW  Elec       q    Type
REMARK                         _______ _______ _______ _____ _____    ______ ____
ROOT
ATOM      1  C   UNL     1      -5.803  -2.455 128.824  0.00  0.00    +0.000 C 
ATOM      2  C   UNL     1      -7.186  -2.784 128.199  0.00  0.00    +0.000 C 
ATOM      3  C   UNL     1      -7.303  -2.031 126.929  0.00  0.00    +0.000 A 
ATOM      4  C   UNL     1      -6.685  -0.808 126.802  0.00  0.00    +0.000 A 
ATOM      5  N   UNL     1      -6.865  -0.367 125.521  0.00  0.00    +0.000 N 
ATOM      6  C   UNL     1      -7.670  -1.257 124.841  0.00  0.00    +0.000 A 
ATOM      7  C   UNL     1      -8.146  -1.213 123.527  0.00  0.00    +0.000 A 
ATOM      8  C   UNL     1      -8.989  -2.249 123.114  0.00  0.00    +0.000 A 
ATOM      9  C   UNL     1      -9.336  -3.286 123.978  0.00  0.00    +0.000 A 
ATOM     10  C   UNL     1      -8.833  -3.328 125.281  0.00  0.00    +0.000 A 
ATOM     11  C   UNL     1      -7.983  -2.299 125.719  0.00  0.00    +0.000 A 
ATOM     12  C   UNL     1      -5.992  -0.056 127.891  0.00  0.00    +0.000 C 
ATOM     13  N   UNL     1      -5.570  -0.985 128.956  0.00  0.00    +0.000 N 
ATOM     14  C   UNL     1      -4.605  -0.507 129.832  0.00  0.00    +0.000 C 
ATOM     15  O   UNL     1      -4.159   0.641 129.791  0.00  0.00    +0.000 OA
ATOM     16  C   UNL     1      -4.008  -1.534 130.779  0.00  0.00    +0.000 C 
ATOM     17  N   UNL     1      -4.910  -2.619 131.129  0.00  0.00    +0.000 N 
ATOM     18  C   UNL     1      -4.631  -3.367 132.339  0.00  0.00    +0.000 C 
ATOM     19  C   UNL     1      -5.711  -3.209 130.160  0.00  0.00    +0.000 C 
ATOM     20  O   UNL     1      -6.225  -4.319 130.323  0.00  0.00    +0.000 OA
ATOM     21  H   UNL     1      -6.511   0.498 125.135  0.00  0.00    +0.000 HD
ENDROOT
BRANCH  12  22
ATOM     22  C   UNL     1      -6.924   1.001 128.467  0.00  0.00    +0.000 A 
ATOM     23  C   UNL     1      -6.847   2.337 128.028  0.00  0.00    +0.000 A 
ATOM     24  C   UNL     1      -7.697   3.261 128.580  0.00  0.00    +0.000 A 
ATOM     25  C   UNL     1      -8.614   2.912 129.538  0.00  0.00    +0.000 A 
ATOM     26  O   UNL     1      -9.346   3.979 129.956  0.00  0.00    +0.000 OA
ATOM     27  C   UNL     1      -8.721   5.044 129.207  0.00  0.00    +0.000 C 
ATOM     28  O   UNL     1      -7.737   4.581 128.264  0.00  0.00    +0.000 OA
ATOM     29  C   UNL     1      -8.738   1.613 129.985  0.00  0.00    +0.000 A 
ATOM     30  C   UNL     1      -7.883   0.649 129.443  0.00  0.00    +0.000 A 
ENDBRANCH  12  22
TORSDOF 1
ENDMDL
