MODEL 1
REMARK VINA RESULT:      -7.8      0.000      0.000
REMARK  Name = Tafamidis
REMARK  3 active torsions:
REMARK  status: ('A' for Active; 'I' for Inactive)
REMARK    1  A    between atoms: O_1  and  C_2
REMARK    2  A    between atoms: C_2  and  C_4
REMARK    3  A    between atoms: C_9  and  C_13
REMARK                            x       y       z     vdW  Elec       q    Type
REMARK                         _______ _______ _______ _____ _____    ______ ____
ROOT
ATOM      1  C   UNL     1     -12.378   7.962 129.388  0.00  0.00    +0.000 A 
ATOM      2  C   UNL     1     -12.868   7.307 130.530  0.00  0.00    +0.000 A 
ATOM      3  C   UNL     1     -11.985   6.724 131.454  0.00  0.00    +0.000 A 
ATOM      4  C   UNL     1     -10.606   6.817 131.216  0.00  0.00    +0.000 A 
ATOM      5  N   UNL     1      -9.552   6.337 131.941  0.00  0.00    +0.000 NA
ATOM      6  C   UNL     1      -8.493   6.742 131.268  0.00  0.00    +0.000 A 
ATOM      7  O   UNL     1      -8.775   7.442 130.117  0.00  0.00    +0.000 OA
ATOM      8  C   UNL     1     -10.151   7.477 130.086  0.00  0.00    +0.000 A 
ATOM      9  C   UNL     1     -10.992   8.051 129.130  0.00  0.00    +0.000 A 
ENDROOT
BRANCH   6  10
ATOM     10  C   UNL     1      -7.096   6.480 131.596  0.00  0.00    +0.000 A 
ATOM     11  C   UNL     1      -6.042   7.071 130.889  0.00  0.00    +0.000 A 
ATOM     12  C   UNL     1      -4.722   6.888 131.319  0.00  0.00    +0.000 A 
ATOM     13 CL   UNL     1      -3.434   7.650 130.467  0.00  0.00    +0.000 Cl
ATOM     14  C   UNL     1      -4.431   6.113 132.441  0.00  0.00    +0.000 A 
ATOM     15  C   UNL     1      -5.479   5.524 133.140  0.00  0.00    +0.000 A 
ATOM     16 CL   UNL     1      -5.146   4.567 134.532  0.00  0.00    +0.000 Cl
ATOM     17  C   UNL     1      -6.800   5.709 132.731  0.00  0.00    +0.000 A 
ENDBRANCH   6  10
BRANCH   1  18
ATOM     18  C   UNL     1     -13.318   8.497 128.371  0.00  0.00    +0.000 C 
ATOM     19  O   UNL     1     -13.886   7.769 127.571  0.00  0.00    +0.000 OA
BRANCH  18  20
ATOM     20  O   UNL     1     -13.474   9.836 128.388  0.00  0.00    +0.000 OA
ATOM     21  H   UNL     1     -13.329  10.311 127.549  0.00  0.00    +0.000 HD
ENDBRANCH  18  20
ENDBRANCH   1  18
TORSDOF 3
ENDMDL
MODEL 2
REMARK VINA RESULT:      -7.6      0.570      2.002
REMARK  Name = Tafamidis
REMARK  3 active torsions:
REMARK  status: ('A' for Active; 'I' for Inactive)
REMARK    1  A    between atoms: O_1  and  C_2
REMARK    2  A    between atoms: C_2  and  C_4
REMARK    3  A    between atoms: C_9  and  C_13
REMARK                            x       y       z     vdW  Elec       q    Type
REMARK                         _______ _______ _______ _____ _____    ______ ____
ROOT
ATOM      1  C   UNL     1     -12.331   7.975 129.465  0.00  0.00    +0.000 A 
ATOM      2  C   UNL     1     -12.826   7.398 130.646  0.00  0.00    +0.000 A 
ATOM      3  C   UNL     1     -11.953   6.804 131.572  0.00  0.00    +0.000 A 
ATOM      4  C   UNL     1     -10.578   6.806 131.296  0.00  0.00    +0.000 A 
ATOM      5  N   UNL     1      -9.533   6.296 132.014  0.00  0.00    +0.000 NA
ATOM      6  C   UNL     1      -8.472   6.611 131.298  0.00  0.00    +0.000 A 
ATOM      7  O   UNL     1      -8.745   7.276 130.124  0.00  0.00    +0.000 OA
ATOM      8  C   UNL     1     -10.117   7.390 130.126  0.00  0.00    +0.000 A 
ATOM      9  C   UNL     1     -10.950   7.971 129.168  0.00  0.00    +0.000 A 
ENDROOT
BRANCH   6  10
ATOM     10  C   UNL     1      -7.084   6.281 131.601  0.00  0.00    +0.000 A 
ATOM     11  C   UNL     1      -6.723   5.083 132.228  0.00  0.00    +0.000 A 
ATOM     12  C   UNL     1      -5.370   4.756 132.385  0.00  0.00    +0.000 A 
ATOM     13 CL   UNL     1      -4.934   3.261 133.122  0.00  0.00    +0.000 Cl
ATOM     14  C   UNL     1      -4.366   5.611 131.935  0.00  0.00    +0.000 A 
ATOM     15  C   UNL     1      -4.726   6.803 131.316  0.00  0.00    +0.000 A 
ATOM     16 CL   UNL     1      -3.504   7.874 130.747  0.00  0.00    +0.000 Cl
ATOM     17  C   UNL     1      -6.070   7.136 131.140  0.00  0.00    +0.000 A 
ENDBRANCH   6  10
BRANCH   1  18
ATOM     18  C   UNL     1     -13.268   8.520 128.449  0.00  0.00    +0.000 C 
ATOM     19  O   UNL     1     -13.887   7.794 127.686  0.00  0.00    +0.000 OA
BRANCH  18  20
ATOM     20  O   UNL     1     -13.359   9.865 128.423  0.00  0.00    +0.000 OA
ATOM     21  H   UNL     1     -13.997  10.278 129.032  0.00  0.00    +0.000 HD
ENDBRANCH  18  20
ENDBRANCH   1  18
TORSDOF 3
ENDMDL
MODEL 3
REMARK VINA RESULT:      -7.2      2.050      3.341
REMARK  Name = Tafamidis
REMARK  3 active torsions:
REMARK  status: ('A' for Active; 'I' for Inactive)
REMARK    1  A    between atoms: O_1  and  C_2
REMARK    2  A    between atoms: C_2  and  C_4
REMARK    3  A    between atoms: C_9  and  C_13
REMARK                            x       y       z     vdW  Elec       q    Type
REMARK                         _______ _______ _______ _____ _____    ______ ____
ROOT
ATOM      1  C   UNL     1     -10.633   6.836 131.058  0.00  0.00    +0.000 A 
ATOM      2  C   UNL     1     -10.558   6.163 132.289  0.00  0.00    +0.000 A 
ATOM      3  C   UNL     1      -9.314   5.826 132.844  0.00  0.00    +0.000 A 
ATOM      4  C   UNL     1      -8.149   6.180 132.149  0.00  0.00    +0.000 A 
ATOM      5  N   UNL     1      -6.836   5.966 132.461  0.00  0.00    +0.000 NA
ATOM      6  C   UNL     1      -6.178   6.536 131.471  0.00  0.00    +0.000 A 
ATOM      7  O   UNL     1      -6.973   7.095 130.496  0.00  0.00    +0.000 OA
ATOM      8  C   UNL     1      -8.253   6.851 130.941  0.00  0.00    +0.000 A 
ATOM      9  C   UNL     1      -9.468   7.187 130.340  0.00  0.00    +0.000 A 
ENDROOT
BRANCH   6  10
ATOM     10  C   UNL     1      -4.731   6.581 131.294  0.00  0.00    +0.000 A 
ATOM     11  C   UNL     1      -3.844   6.349 132.353  0.00  0.00    +0.000 A 
ATOM     12  C   UNL     1      -2.467   6.278 132.108  0.00  0.00    +0.000 A 
ATOM     13 CL   UNL     1      -1.385   5.953 133.410  0.00  0.00    +0.000 Cl
ATOM     14  C   UNL     1      -1.954   6.446 130.823  0.00  0.00    +0.000 A 
ATOM     15  C   UNL     1      -2.836   6.681 129.773  0.00  0.00    +0.000 A 
ATOM     16 CL   UNL     1      -2.227   6.886 128.176  0.00  0.00    +0.000 Cl
ATOM     17  C   UNL     1      -4.211   6.739 130.000  0.00  0.00    +0.000 A 
ENDBRANCH   6  10
BRANCH   1  18
ATOM     18  C   UNL     1     -11.953   7.109 130.434  0.00  0.00    +0.000 C 
ATOM     19  O   UNL     1     -12.999   6.977 131.050  0.00  0.00    +0.000 OA
BRANCH  18  20
ATOM     20  O   UNL     1     -11.903   7.487 129.141  0.00  0.00    +0.000 OA
ATOM     21  H   UNL     1     -11.050   7.825 128.810  0.00  0.00    +0.000 HD
ENDBRANCH  18  20
ENDBRANCH   1  18
TORSDOF 3
ENDMDL
MODEL 4
REMARK VINA RESULT:      -7.1      1.738      2.346
REMARK  Name = Tafamidis
REMARK  3 active torsions:
REMARK  status: ('A' for Active; 'I' for Inactive)
REMARK    1  A    between atoms: O_1  and  C_2
REMARK    2  A    between atoms: C_2  and  C_4
REMARK    3  A    between atoms: C_9  and  C_13
REMARK                            x       y       z     vdW  Elec       q    Type
REMARK                         _______ _______ _______ _____ _____    ______ ____
ROOT
ATOM      1  C   UNL     1     -10.996   6.996 130.688  0.00  0.00    +0.000 A 
ATOM      2  C   UNL     1     -11.020   6.323 131.921  0.00  0.00    +0.000 A 
ATOM      3  C   UNL     1      -9.824   5.950 132.554  0.00  0.00    +0.000 A 
ATOM      4  C   UNL     1      -8.607   6.270 131.935  0.00  0.00    +0.000 A 
ATOM      5  N   UNL     1      -7.323   6.018 132.330  0.00  0.00    +0.000 NA
ATOM      6  C   UNL     1      -6.587   6.568 131.385  0.00  0.00    +0.000 A 
ATOM      7  O   UNL     1      -7.302   7.148 130.362  0.00  0.00    +0.000 OA
ATOM      8  C   UNL     1      -8.614   6.942 130.723  0.00  0.00    +0.000 A 
ATOM      9  C   UNL     1      -9.778   7.312 130.046  0.00  0.00    +0.000 A 
ENDROOT
BRANCH   6  10
ATOM     10  C   UNL     1      -5.131   6.570 131.302  0.00  0.00    +0.000 A 
ATOM     11  C   UNL     1      -4.455   6.577 130.076  0.00  0.00    +0.000 A 
ATOM     12  C   UNL     1      -3.061   6.706 130.046  0.00  0.00    +0.000 A 
ATOM     13 CL   UNL     1      -2.241   6.754 128.532  0.00  0.00    +0.000 Cl
ATOM     14  C   UNL     1      -2.323   6.816 131.224  0.00  0.00    +0.000 A 
ATOM     15  C   UNL     1      -2.995   6.805 132.441  0.00  0.00    +0.000 A 
ATOM     16 CL   UNL     1      -2.107   6.945 133.909  0.00  0.00    +0.000 Cl
ATOM     17  C   UNL     1      -4.385   6.692 132.485  0.00  0.00    +0.000 A 
ENDBRANCH   6  10
BRANCH   1  18
ATOM     18  C   UNL     1     -12.265   7.307 129.980  0.00  0.00    +0.000 C 
ATOM     19  O   UNL     1     -12.811   6.496 129.247  0.00  0.00    +0.000 OA
BRANCH  18  20
ATOM     20  O   UNL     1     -12.745   8.549 130.193  0.00  0.00    +0.000 OA
ATOM     21  H   UNL     1     -12.489   9.239 129.554  0.00  0.00    +0.000 HD
ENDBRANCH  18  20
ENDBRANCH   1  18
TORSDOF 3
ENDMDL
MODEL 5
REMARK VINA RESULT:      -6.8      2.831      2.965
REMARK  Name = Tafamidis
REMARK  3 active torsions:
REMARK  status: ('A' for Active; 'I' for Inactive)
REMARK    1  A    between atoms: O_1  and  C_2
REMARK    2  A    between atoms: C_2  and  C_4
REMARK    3  A    between atoms: C_9  and  C_13
REMARK                            x       y       z     vdW  Elec       q    Type
REMARK                         _______ _______ _______ _____ _____    ______ ____
ROOT
ATOM      1  C   UNL     1     -11.554   7.263 128.679  0.00  0.00    +0.000 A 
ATOM      2  C   UNL     1     -12.549   7.482 129.646  0.00  0.00    +0.000 A 
ATOM      3  C   UNL     1     -12.319   7.163 130.994  0.00  0.00    +0.000 A 
ATOM      4  C   UNL     1     -11.075   6.627 131.354  0.00  0.00    +0.000 A 
ATOM      5  N   UNL     1     -10.606   6.229 132.575  0.00  0.00    +0.000 NA
ATOM      6  C   UNL     1      -9.370   5.841 132.329  0.00  0.00    +0.000 A 
ATOM      7  O   UNL     1      -8.991   5.925 131.008  0.00  0.00    +0.000 OA
ATOM      8  C   UNL     1     -10.109   6.429 130.381  0.00  0.00    +0.000 A 
ATOM      9  C   UNL     1     -10.301   6.711 129.027  0.00  0.00    +0.000 A 
ENDROOT
BRANCH   6  10
ATOM     10  C   UNL     1      -8.418   5.297 133.290  0.00  0.00    +0.000 A 
ATOM     11  C   UNL     1      -8.027   6.004 134.433  0.00  0.00    +0.000 A 
ATOM     12  C   UNL     1      -7.208   5.390 135.389  0.00  0.00    +0.000 A 
ATOM     13 CL   UNL     1      -6.764   6.254 136.812  0.00  0.00    +0.000 Cl
ATOM     14  C   UNL     1      -6.759   4.082 135.220  0.00  0.00    +0.000 A 
ATOM     15  C   UNL     1      -7.145   3.381 134.082  0.00  0.00    +0.000 A 
ATOM     16 CL   UNL     1      -6.609   1.762 133.852  0.00  0.00    +0.000 Cl
ATOM     17  C   UNL     1      -7.973   3.975 133.128  0.00  0.00    +0.000 A 
ENDBRANCH   6  10
BRANCH   1  18
ATOM     18  C   UNL     1     -11.836   7.518 127.243  0.00  0.00    +0.000 C 
ATOM     19  O   UNL     1     -12.835   7.081 126.694  0.00  0.00    +0.000 OA
BRANCH  18  20
ATOM     20  O   UNL     1     -10.899   8.244 126.600  0.00  0.00    +0.000 OA
ATOM     21  H   UNL     1     -10.197   8.644 127.145  0.00  0.00    +0.000 HD
ENDBRANCH  18  20
ENDBRANCH   1  18
TORSDOF 3
ENDMDL
MODEL 6
REMARK VINA RESULT:      -6.7      9.430     10.141
REMARK  Name = Tafamidis
REMARK  3 active torsions:
REMARK  status: ('A' for Active; 'I' for Inactive)
REMARK    1  A    between atoms: O_1  and  C_2
REMARK    2  A    between atoms: C_2  and  C_4
REMARK    3  A    between atoms: C_9  and  C_13
REMARK                            x       y       z     vdW  Elec       q    Type
REMARK                         _______ _______ _______ _____ _____    ______ ____
ROOT
ATOM      1  C   UNL     1      -6.244   4.570 119.866  0.00  0.00    +0.000 A 
ATOM      2  C   UNL     1      -5.070   4.961 120.530  0.00  0.00    +0.000 A 
ATOM      3  C   UNL     1      -4.862   4.617 121.876  0.00  0.00    +0.000 A 
ATOM      4  C   UNL     1      -5.846   3.870 122.538  0.00  0.00    +0.000 A 
ATOM      5  N   UNL     1      -5.892   3.419 123.828  0.00  0.00    +0.000 NA
ATOM      6  C   UNL     1      -7.027   2.752 123.890  0.00  0.00    +0.000 A 
ATOM      7  O   UNL     1      -7.762   2.754 122.726  0.00  0.00    +0.000 OA
ATOM      8  C   UNL     1      -6.990   3.491 121.855  0.00  0.00    +0.000 A 
ATOM      9  C   UNL     1      -7.250   3.829 120.525  0.00  0.00    +0.000 A 
ENDROOT
BRANCH   6  10
ATOM     10  C   UNL     1      -7.583   2.079 125.059  0.00  0.00    +0.000 A 
ATOM     11  C   UNL     1      -7.972   0.735 125.029  0.00  0.00    +0.000 A 
ATOM     12  C   UNL     1      -8.382   0.099 126.208  0.00  0.00    +0.000 A 
ATOM     13 CL   UNL     1      -8.821  -1.566 126.170  0.00  0.00    +0.000 Cl
ATOM     14  C   UNL     1      -8.421   0.786 127.420  0.00  0.00    +0.000 A 
ATOM     15  C   UNL     1      -8.038   2.122 127.447  0.00  0.00    +0.000 A 
ATOM     16 CL   UNL     1      -8.072   2.991 128.934  0.00  0.00    +0.000 Cl
ATOM     17  C   UNL     1      -7.613   2.765 126.284  0.00  0.00    +0.000 A 
ENDBRANCH   6  10
BRANCH   1  18
ATOM     18  C   UNL     1      -6.499   5.014 118.471  0.00  0.00    +0.000 C 
ATOM     19  O   UNL     1      -7.330   4.469 117.761  0.00  0.00    +0.000 OA
BRANCH  18  20
ATOM     20  O   UNL     1      -5.730   6.040 118.052  0.00  0.00    +0.000 OA
ATOM     21  H   UNL     1      -5.890   6.374 117.151  0.00  0.00    +0.000 HD
ENDBRANCH  18  20
ENDBRANCH   1  18
TORSDOF 3
ENDMDL
MODEL 7
REMARK VINA RESULT:      -6.7      3.396      3.621
REMARK  Name = Tafamidis
REMARK  3 active torsions:
REMARK  status: ('A' for Active; 'I' for Inactive)
REMARK    1  A    between atoms: O_1  and  C_2
REMARK    2  A    between atoms: C_2  and  C_4
REMARK    3  A    between atoms: C_9  and  C_13
REMARK                            x       y       z     vdW  Elec       q    Type
REMARK                         _______ _______ _______ _____ _____    ______ ____
ROOT
ATOM      1  C   UNL     1     -12.235   8.356 129.974  0.00  0.00    +0.000 A 
ATOM      2  C   UNL     1     -12.632   7.639 131.115  0.00  0.00    +0.000 A 
ATOM      3  C   UNL     1     -12.026   6.414 131.436  0.00  0.00    +0.000 A 
ATOM      4  C   UNL     1     -11.013   5.926 130.599  0.00  0.00    +0.000 A 
ATOM      5  N   UNL     1     -10.279   4.776 130.680  0.00  0.00    +0.000 NA
ATOM      6  C   UNL     1      -9.457   4.850 129.653  0.00  0.00    +0.000 A 
ATOM      7  O   UNL     1      -9.615   5.970 128.868  0.00  0.00    +0.000 OA
ATOM      8  C   UNL     1     -10.635   6.659 129.485  0.00  0.00    +0.000 A 
ATOM      9  C   UNL     1     -11.224   7.869 129.115  0.00  0.00    +0.000 A 
ENDROOT
BRANCH   6  10
ATOM     10  C   UNL     1      -8.462   3.860 129.256  0.00  0.00    +0.000 A 
ATOM     11  C   UNL     1      -7.274   4.217 128.606  0.00  0.00    +0.000 A 
ATOM     12  C   UNL     1      -6.294   3.248 128.358  0.00  0.00    +0.000 A 
ATOM     13 CL   UNL     1      -4.819   3.702 127.594  0.00  0.00    +0.000 Cl
ATOM     14  C   UNL     1      -6.484   1.920 128.736  0.00  0.00    +0.000 A 
ATOM     15  C   UNL     1      -7.666   1.565 129.378  0.00  0.00    +0.000 A 
ATOM     16 CL   UNL     1      -7.920  -0.067 129.860  0.00  0.00    +0.000 Cl
ATOM     17  C   UNL     1      -8.644   2.524 129.645  0.00  0.00    +0.000 A 
ENDBRANCH   6  10
BRANCH   1  18
ATOM     18  C   UNL     1     -12.942   9.605 129.591  0.00  0.00    +0.000 C 
ATOM     19  O   UNL     1     -13.197  10.479 130.406  0.00  0.00    +0.000 OA
BRANCH  18  20
ATOM     20  O   UNL     1     -13.295   9.683 128.292  0.00  0.00    +0.000 OA
ATOM     21  H   UNL     1     -14.177  10.046 128.093  0.00  0.00    +0.000 HD
ENDBRANCH  18  20
ENDBRANCH   1  18
TORSDOF 3
ENDMDL
MODEL 8
REMARK VINA RESULT:      -6.7      9.731     10.285
REMARK  Name = Tafamidis
REMARK  3 active torsions:
REMARK  status: ('A' for Active; 'I' for Inactive)
REMARK    1  A    between atoms: O_1  and  C_2
REMARK    2  A    between atoms: C_2  and  C_4
REMARK    3  A    between atoms: C_9  and  C_13
REMARK                            x       y       z     vdW  Elec       q    Type
REMARK                         _______ _______ _______ _____ _____    ______ ____
ROOT
ATOM      1  C   UNL     1      -9.431  -0.175 123.637  0.00  0.00    +0.000 A 
ATOM      2  C   UNL     1      -9.097  -1.394 123.024  0.00  0.00    +0.000 A 
ATOM      3  C   UNL     1      -8.346  -2.358 123.714  0.00  0.00    +0.000 A 
ATOM      4  C   UNL     1      -7.943  -2.083 125.028  0.00  0.00    +0.000 A 
ATOM      5  N   UNL     1      -7.210  -2.836 125.903  0.00  0.00    +0.000 NA
ATOM      6  C   UNL     1      -7.165  -2.099 126.995  0.00  0.00    +0.000 A 
ATOM      7  O   UNL     1      -7.799  -0.881 126.896  0.00  0.00    +0.000 OA
ATOM      8  C   UNL     1      -8.294  -0.876 125.611  0.00  0.00    +0.000 A 
ATOM      9  C   UNL     1      -9.020   0.121 124.956  0.00  0.00    +0.000 A 
ENDROOT
BRANCH   6  10
ATOM     10  C   UNL     1      -6.480  -2.425 128.241  0.00  0.00    +0.000 A 
ATOM     11  C   UNL     1      -7.166  -2.561 129.454  0.00  0.00    +0.000 A 
ATOM     12  C   UNL     1      -6.485  -2.997 130.598  0.00  0.00    +0.000 A 
ATOM     13 CL   UNL     1      -7.345  -3.200 132.076  0.00  0.00    +0.000 Cl
ATOM     14  C   UNL     1      -5.123  -3.290 130.556  0.00  0.00    +0.000 A 
ATOM     15  C   UNL     1      -4.442  -3.151 129.351  0.00  0.00    +0.000 A 
ATOM     16 CL   UNL     1      -2.761  -3.513 129.273  0.00  0.00    +0.000 Cl
ATOM     17  C   UNL     1      -5.111  -2.731 128.201  0.00  0.00    +0.000 A 
ENDBRANCH   6  10
BRANCH   1  18
ATOM     18  C   UNL     1     -10.148   0.877 122.871  0.00  0.00    +0.000 C 
ATOM     19  O   UNL     1      -9.575   1.867 122.443  0.00  0.00    +0.000 OA
BRANCH  18  20
ATOM     20  O   UNL     1     -11.469   0.662 122.710  0.00  0.00    +0.000 OA
ATOM     21  H   UNL     1     -11.831  -0.168 123.070  0.00  0.00    +0.000 HD
ENDBRANCH  18  20
ENDBRANCH   1  18
TORSDOF 3
ENDMDL
MODEL 9
REMARK VINA RESULT:      -6.6      9.137     10.461
REMARK  Name = Tafamidis
REMARK  3 active torsions:
REMARK  status: ('A' for Active; 'I' for Inactive)
REMARK    1  A    between atoms: O_1  and  C_2
REMARK    2  A    between atoms: C_2  and  C_4
REMARK    3  A    between atoms: C_9  and  C_13
REMARK                            x       y       z     vdW  Elec       q    Type
REMARK                         _______ _______ _______ _____ _____    ______ ____
ROOT
ATOM      1  C   UNL     1      -4.503   4.420 126.673  0.00  0.00    +0.000 A 
ATOM      2  C   UNL     1      -5.422   4.917 125.735  0.00  0.00    +0.000 A 
ATOM      3  C   UNL     1      -6.211   4.040 124.973  0.00  0.00    +0.000 A 
ATOM      4  C   UNL     1      -6.066   2.660 125.174  0.00  0.00    +0.000 A 
ATOM      5  N   UNL     1      -6.696   1.610 124.567  0.00  0.00    +0.000 NA
ATOM      6  C   UNL     1      -6.194   0.549 125.167  0.00  0.00    +0.000 A 
ATOM      7  O   UNL     1      -5.240   0.824 126.121  0.00  0.00    +0.000 OA
ATOM      8  C   UNL     1      -5.157   2.198 126.112  0.00  0.00    +0.000 A 
ATOM      9  C   UNL     1      -4.337   3.032 126.875  0.00  0.00    +0.000 A 
ENDROOT
BRANCH   6  10
ATOM     10  C   UNL     1      -6.509  -0.846 124.883  0.00  0.00    +0.000 A 
ATOM     11  C   UNL     1      -5.545  -1.747 124.414  0.00  0.00    +0.000 A 
ATOM     12  C   UNL     1      -5.863  -3.104 124.276  0.00  0.00    +0.000 A 
ATOM     13 CL   UNL     1      -4.660  -4.211 123.735  0.00  0.00    +0.000 Cl
ATOM     14  C   UNL     1      -7.135  -3.580 124.589  0.00  0.00    +0.000 A 
ATOM     15  C   UNL     1      -8.093  -2.684 125.051  0.00  0.00    +0.000 A 
ATOM     16 CL   UNL     1      -9.670  -3.249 125.450  0.00  0.00    +0.000 Cl
ATOM     17  C   UNL     1      -7.786  -1.332 125.207  0.00  0.00    +0.000 A 
ENDBRANCH   6  10
BRANCH   1  18
ATOM     18  C   UNL     1      -3.608   5.349 127.410  0.00  0.00    +0.000 C 
ATOM     19  O   UNL     1      -4.003   6.424 127.836  0.00  0.00    +0.000 OA
BRANCH  18  20
ATOM     20  O   UNL     1      -2.336   4.925 127.547  0.00  0.00    +0.000 OA
ATOM     21  H   UNL     1      -1.875   4.636 126.739  0.00  0.00    +0.000 HD
ENDBRANCH  18  20
ENDBRANCH   1  18
TORSDOF 3
ENDMDL
