MODEL 1
REMARK VINA RESULT:      -7.9      0.000      0.000
REMARK  Name = Tafenoquine
REMARK  15 active torsions:
REMARK  status: ('A' for Active; 'I' for Inactive)
REMARK    1  A    between atoms: C_1  and  O_2
REMARK    2  A    between atoms: O_2  and  C_3
REMARK    3  A    between atoms: C_5  and  C_6
REMARK    4  A    between atoms: C_8  and  O_9
REMARK    5  A    between atoms: O_9  and  C_10
REMARK    6  A    between atoms: C_14  and  C_16
REMARK    7  A    between atoms: C_20  and  O_21
REMARK    8  A    between atoms: O_21  and  C_22
REMARK    9  A    between atoms: C_24  and  N_25
REMARK   10  A    between atoms: N_25  and  C_26
REMARK   11  A    between atoms: C_26  and  C_27
REMARK   12  A    between atoms: C_26  and  C_28
REMARK   13  A    between atoms: C_28  and  C_29
REMARK   14  A    between atoms: C_29  and  C_30
REMARK   15  A    between atoms: C_30  and  N_31
REMARK                            x       y       z     vdW  Elec       q    Type
REMARK                         _______ _______ _______ _____ _____    ______ ____
ROOT
ATOM      1  C   UNL     1      -5.677   3.900 123.354  0.00  0.00    +0.000 A 
ATOM      2  C   UNL     1      -6.713   3.098 123.054  0.00  0.00    +0.000 A 
ATOM      3  C   UNL     1      -7.251   2.354 124.075  0.00  0.00    +0.000 A 
ATOM      4  C   UNL     1      -8.438   1.674 123.573  0.00  0.00    +0.000 C 
ATOM      5  C   UNL     1      -6.676   2.153 125.361  0.00  0.00    +0.000 A 
ATOM      6  C   UNL     1      -7.036   1.191 126.396  0.00  0.00    +0.000 A 
ATOM      7  C   UNL     1      -6.498   1.367 127.696  0.00  0.00    +0.000 A 
ATOM      8  C   UNL     1      -5.625   2.449 127.951  0.00  0.00    +0.000 A 
ATOM      9  C   UNL     1      -5.192   3.312 126.923  0.00  0.00    +0.000 A 
ATOM     10  C   UNL     1      -5.635   3.082 125.593  0.00  0.00    +0.000 A 
ATOM     11  N   UNL     1      -5.127   3.832 124.563  0.00  0.00    +0.000 NA
ENDROOT
BRANCH   1  13
ATOM     12  C   UNL     1      -5.185   4.422 121.125  0.00  0.00    +0.000 C 
ATOM     13  O   UNL     1      -5.263   4.874 122.489  0.00  0.00    +0.000 OA
ENDBRANCH   1  13
BRANCH   7  14
ATOM     14  O   UNL     1      -6.758   0.616 128.828  0.00  0.00    +0.000 OA
ATOM     15  C   UNL     1      -5.899  -0.480 129.136  0.00  0.00    +0.000 C 
ENDBRANCH   7  14
BRANCH   9  16
ATOM     16  N   UNL     1      -4.447   4.468 127.285  0.00  0.00    +0.000 N 
ATOM     17  H   UNL     1      -4.875   5.381 127.211  0.00  0.00    +0.000 HD
BRANCH  16  18
ATOM     18  C   UNL     1      -3.124   4.354 127.926  0.00  0.00    +0.000 C 
ATOM     19  C   UNL     1      -2.159   3.538 127.034  0.00  0.00    +0.000 C 
BRANCH  18  20
ATOM     20  C   UNL     1      -2.481   5.721 128.200  0.00  0.00    +0.000 C 
BRANCH  20  21
ATOM     21  C   UNL     1      -3.552   6.829 128.198  0.00  0.00    +0.000 C 
BRANCH  21  22
ATOM     22  C   UNL     1      -3.571   7.591 129.509  0.00  0.00    +0.000 C 
BRANCH  22  23
ATOM     23  N   UNL     1      -4.942   7.969 129.828  0.00  0.00    +0.000 NA
ATOM     24  H   UNL     1      -5.560   7.168 129.697  0.00  0.00    +0.000 HD
ATOM     25  H   UNL     1      -5.255   8.689 129.181  0.00  0.00    +0.000 HD
ENDBRANCH  22  23
ENDBRANCH  21  22
ENDBRANCH  20  21
ENDBRANCH  18  20
ENDBRANCH  16  18
ENDBRANCH   9  16
BRANCH   6  26
ATOM     26  O   UNL     1      -7.972   0.153 126.313  0.00  0.00    +0.000 OA
BRANCH  26  27
ATOM     27  C   UNL     1      -7.808  -1.145 125.868  0.00  0.00    +0.000 A 
ATOM     28  C   UNL     1      -9.022  -1.805 125.580  0.00  0.00    +0.000 A 
ATOM     29  C   UNL     1      -9.048  -2.912 124.721  0.00  0.00    +0.000 A 
ATOM     30  C   UNL     1      -7.859  -3.356 124.135  0.00  0.00    +0.000 A 
ATOM     31  C   UNL     1      -6.618  -2.780 124.507  0.00  0.00    +0.000 A 
ATOM     32  C   UNL     1      -6.587  -1.723 125.477  0.00  0.00    +0.000 A 
BRANCH  31  33
ATOM     33  C   UNL     1      -5.419  -3.017 123.594  0.00  0.00    +0.000 C 
ATOM     34  F   UNL     1      -5.639  -2.592 122.324  0.00  0.00    +0.000 F 
ATOM     35  F   UNL     1      -4.295  -2.356 124.018  0.00  0.00    +0.000 F 
ATOM     36  F   UNL     1      -5.045  -4.323 123.510  0.00  0.00    +0.000 F 
ENDBRANCH  31  33
ENDBRANCH  26  27
ENDBRANCH   6  26
TORSDOF 11
ENDMDL
MODEL 2
REMARK VINA RESULT:      -7.9      3.174      5.888
REMARK  Name = Tafenoquine
REMARK  15 active torsions:
REMARK  status: ('A' for Active; 'I' for Inactive)
REMARK    1  A    between atoms: C_1  and  O_2
REMARK    2  A    between atoms: O_2  and  C_3
REMARK    3  A    between atoms: C_5  and  C_6
REMARK    4  A    between atoms: C_8  and  O_9
REMARK    5  A    between atoms: O_9  and  C_10
REMARK    6  A    between atoms: C_14  and  C_16
REMARK    7  A    between atoms: C_20  and  O_21
REMARK    8  A    between atoms: O_21  and  C_22
REMARK    9  A    between atoms: C_24  and  N_25
REMARK   10  A    between atoms: N_25  and  C_26
REMARK   11  A    between atoms: C_26  and  C_27
REMARK   12  A    between atoms: C_26  and  C_28
REMARK   13  A    between atoms: C_28  and  C_29
REMARK   14  A    between atoms: C_29  and  C_30
REMARK   15  A    between atoms: C_30  and  N_31
REMARK                            x       y       z     vdW  Elec       q    Type
REMARK                         _______ _______ _______ _____ _____    ______ ____
ROOT
ATOM      1  C   UNL     1      -5.940   4.031 126.726  0.00  0.00    +0.000 A 
ATOM      2  C   UNL     1      -5.492   2.992 127.452  0.00  0.00    +0.000 A 
ATOM      3  C   UNL     1      -5.681   1.734 126.936  0.00  0.00    +0.000 A 
ATOM      4  C   UNL     1      -5.003   0.776 127.799  0.00  0.00    +0.000 C 
ATOM      5  C   UNL     1      -6.518   1.395 125.836  0.00  0.00    +0.000 A 
ATOM      6  C   UNL     1      -6.975   0.084 125.391  0.00  0.00    +0.000 A 
ATOM      7  C   UNL     1      -7.574  -0.022 124.110  0.00  0.00    +0.000 A 
ATOM      8  C   UNL     1      -7.726   1.135 123.312  0.00  0.00    +0.000 A 
ATOM      9  C   UNL     1      -7.384   2.417 123.789  0.00  0.00    +0.000 A 
ATOM     10  C   UNL     1      -6.885   2.553 125.112  0.00  0.00    +0.000 A 
ATOM     11  N   UNL     1      -6.666   3.802 125.636  0.00  0.00    +0.000 NA
ENDROOT
BRANCH   1  13
ATOM     12  C   UNL     1      -4.182   5.407 127.431  0.00  0.00    +0.000 C 
ATOM     13  O   UNL     1      -5.554   5.311 127.011  0.00  0.00    +0.000 OA
ENDBRANCH   1  13
BRANCH   7  14
ATOM     14  O   UNL     1      -8.014  -1.169 123.474  0.00  0.00    +0.000 OA
ATOM     15  C   UNL     1      -9.290  -1.153 122.837  0.00  0.00    +0.000 C 
ENDBRANCH   7  14
BRANCH   9  16
ATOM     16  N   UNL     1      -7.413   3.505 122.874  0.00  0.00    +0.000 N 
ATOM     17  H   UNL     1      -7.341   4.452 123.222  0.00  0.00    +0.000 HD
BRANCH  16  18
ATOM     18  C   UNL     1      -7.373   3.279 121.417  0.00  0.00    +0.000 C 
ATOM     19  C   UNL     1      -8.658   3.823 120.750  0.00  0.00    +0.000 C 
BRANCH  18  20
ATOM     20  C   UNL     1      -6.166   3.952 120.748  0.00  0.00    +0.000 C 
BRANCH  20  21
ATOM     21  C   UNL     1      -6.582   4.594 119.410  0.00  0.00    +0.000 C 
BRANCH  21  22
ATOM     22  C   UNL     1      -5.680   5.757 119.043  0.00  0.00    +0.000 C 
BRANCH  22  23
ATOM     23  N   UNL     1      -4.839   6.095 120.184  0.00  0.00    +0.000 NA
ATOM     24  H   UNL     1      -3.869   6.186 119.883  0.00  0.00    +0.000 HD
ATOM     25  H   UNL     1      -4.865   5.336 120.862  0.00  0.00    +0.000 HD
ENDBRANCH  22  23
ENDBRANCH  21  22
ENDBRANCH  20  21
ENDBRANCH  18  20
ENDBRANCH  16  18
ENDBRANCH   9  16
BRANCH   6  26
ATOM     26  O   UNL     1      -6.783  -1.151 126.023  0.00  0.00    +0.000 OA
BRANCH  26  27
ATOM     27  C   UNL     1      -7.549  -1.770 126.992  0.00  0.00    +0.000 A 
ATOM     28  C   UNL     1      -8.518  -2.655 126.471  0.00  0.00    +0.000 A 
ATOM     29  C   UNL     1      -9.054  -3.677 127.266  0.00  0.00    +0.000 A 
ATOM     30  C   UNL     1      -8.613  -3.826 128.584  0.00  0.00    +0.000 A 
ATOM     31  C   UNL     1      -7.731  -2.875 129.157  0.00  0.00    +0.000 A 
ATOM     32  C   UNL     1      -7.277  -1.764 128.372  0.00  0.00    +0.000 A 
BRANCH  31  33
ATOM     33  C   UNL     1      -6.990  -3.266 130.432  0.00  0.00    +0.000 C 
ATOM     34  F   UNL     1      -6.442  -4.505 130.357  0.00  0.00    +0.000 F 
ATOM     35  F   UNL     1      -5.953  -2.417 130.720  0.00  0.00    +0.000 F 
ATOM     36  F   UNL     1      -7.772  -3.252 131.545  0.00  0.00    +0.000 F 
ENDBRANCH  31  33
ENDBRANCH  26  27
ENDBRANCH   6  26
TORSDOF 11
ENDMDL
MODEL 3
REMARK VINA RESULT:      -7.6      4.598      6.990
REMARK  Name = Tafenoquine
REMARK  15 active torsions:
REMARK  status: ('A' for Active; 'I' for Inactive)
REMARK    1  A    between atoms: C_1  and  O_2
REMARK    2  A    between atoms: O_2  and  C_3
REMARK    3  A    between atoms: C_5  and  C_6
REMARK    4  A    between atoms: C_8  and  O_9
REMARK    5  A    between atoms: O_9  and  C_10
REMARK    6  A    between atoms: C_14  and  C_16
REMARK    7  A    between atoms: C_20  and  O_21
REMARK    8  A    between atoms: O_21  and  C_22
REMARK    9  A    between atoms: C_24  and  N_25
REMARK   10  A    between atoms: N_25  and  C_26
REMARK   11  A    between atoms: C_26  and  C_27
REMARK   12  A    between atoms: C_26  and  C_28
REMARK   13  A    between atoms: C_28  and  C_29
REMARK   14  A    between atoms: C_29  and  C_30
REMARK   15  A    between atoms: C_30  and  N_31
REMARK                            x       y       z     vdW  Elec       q    Type
REMARK                         _______ _______ _______ _____ _____    ______ ____
ROOT
ATOM      1  C   UNL     1      -8.113   2.638 128.279  0.00  0.00    +0.000 A 
ATOM      2  C   UNL     1      -7.139   2.033 128.981  0.00  0.00    +0.000 A 
ATOM      3  C   UNL     1      -6.819   0.744 128.633  0.00  0.00    +0.000 A 
ATOM      4  C   UNL     1      -5.657   0.333 129.411  0.00  0.00    +0.000 C 
ATOM      5  C   UNL     1      -7.572  -0.107 127.776  0.00  0.00    +0.000 A 
ATOM      6  C   UNL     1      -7.453  -1.544 127.561  0.00  0.00    +0.000 A 
ATOM      7  C   UNL     1      -8.130  -2.118 126.455  0.00  0.00    +0.000 A 
ATOM      8  C   UNL     1      -8.908  -1.296 125.608  0.00  0.00    +0.000 A 
ATOM      9  C   UNL     1      -9.111   0.072 125.883  0.00  0.00    +0.000 A 
ATOM     10  C   UNL     1      -8.529   0.639 127.048  0.00  0.00    +0.000 A 
ATOM     11  N   UNL     1      -8.817   1.934 127.397  0.00  0.00    +0.000 NA
ENDROOT
BRANCH   1  13
ATOM     12  C   UNL     1      -8.874   4.408 129.610  0.00  0.00    +0.000 C 
ATOM     13  O   UNL     1      -8.306   3.989 128.356  0.00  0.00    +0.000 OA
ENDBRANCH   1  13
BRANCH   7  14
ATOM     14  O   UNL     1      -8.099  -3.436 126.036  0.00  0.00    +0.000 OA
ATOM     15  C   UNL     1      -8.265  -3.717 124.648  0.00  0.00    +0.000 C 
ENDBRANCH   7  14
BRANCH   9  16
ATOM     16  N   UNL     1      -9.767   0.865 124.901  0.00  0.00    +0.000 N 
ATOM     17  H   UNL     1     -10.547   1.450 125.172  0.00  0.00    +0.000 HD
BRANCH  16  18
ATOM     18  C   UNL     1      -9.230   0.985 123.533  0.00  0.00    +0.000 C 
ATOM     19  C   UNL     1     -10.290   0.544 122.496  0.00  0.00    +0.000 C 
BRANCH  18  20
ATOM     20  C   UNL     1      -8.797   2.418 123.193  0.00  0.00    +0.000 C 
BRANCH  20  21
ATOM     21  C   UNL     1      -7.425   2.728 123.821  0.00  0.00    +0.000 C 
BRANCH  21  22
ATOM     22  C   UNL     1      -7.495   3.914 124.763  0.00  0.00    +0.000 C 
BRANCH  22  23
ATOM     23  N   UNL     1      -8.865   4.078 125.233  0.00  0.00    +0.000 NA
ATOM     24  H   UNL     1      -8.961   4.973 125.710  0.00  0.00    +0.000 HD
ATOM     25  H   UNL     1      -9.077   3.356 125.919  0.00  0.00    +0.000 HD
ENDBRANCH  22  23
ENDBRANCH  21  22
ENDBRANCH  20  21
ENDBRANCH  18  20
ENDBRANCH  16  18
ENDBRANCH   9  16
BRANCH   6  26
ATOM     26  O   UNL     1      -6.631  -2.447 128.245  0.00  0.00    +0.000 OA
BRANCH  26  27
ATOM     27  C   UNL     1      -6.805  -3.028 129.486  0.00  0.00    +0.000 A 
ATOM     28  C   UNL     1      -5.824  -3.992 129.806  0.00  0.00    +0.000 A 
ATOM     29  C   UNL     1      -5.572  -4.340 131.140  0.00  0.00    +0.000 A 
ATOM     30  C   UNL     1      -6.291  -3.715 132.162  0.00  0.00    +0.000 A 
ATOM     31  C   UNL     1      -7.358  -2.834 131.853  0.00  0.00    +0.000 A 
ATOM     32  C   UNL     1      -7.689  -2.572 130.482  0.00  0.00    +0.000 A 
BRANCH  31  33
ATOM     33  C   UNL     1      -7.855  -1.901 132.952  0.00  0.00    +0.000 C 
ATOM     34  F   UNL     1      -6.841  -1.312 133.634  0.00  0.00    +0.000 F 
ATOM     35  F   UNL     1      -8.621  -0.874 132.465  0.00  0.00    +0.000 F 
ATOM     36  F   UNL     1      -8.643  -2.515 133.877  0.00  0.00    +0.000 F 
ENDBRANCH  31  33
ENDBRANCH  26  27
ENDBRANCH   6  26
TORSDOF 11
ENDMDL
MODEL 4
REMARK VINA RESULT:      -7.4      1.922      2.290
REMARK  Name = Tafenoquine
REMARK  15 active torsions:
REMARK  status: ('A' for Active; 'I' for Inactive)
REMARK    1  A    between atoms: C_1  and  O_2
REMARK    2  A    between atoms: O_2  and  C_3
REMARK    3  A    between atoms: C_5  and  C_6
REMARK    4  A    between atoms: C_8  and  O_9
REMARK    5  A    between atoms: O_9  and  C_10
REMARK    6  A    between atoms: C_14  and  C_16
REMARK    7  A    between atoms: C_20  and  O_21
REMARK    8  A    between atoms: O_21  and  C_22
REMARK    9  A    between atoms: C_24  and  N_25
REMARK   10  A    between atoms: N_25  and  C_26
REMARK   11  A    between atoms: C_26  and  C_27
REMARK   12  A    between atoms: C_26  and  C_28
REMARK   13  A    between atoms: C_28  and  C_29
REMARK   14  A    between atoms: C_29  and  C_30
REMARK   15  A    between atoms: C_30  and  N_31
REMARK                            x       y       z     vdW  Elec       q    Type
REMARK                         _______ _______ _______ _____ _____    ______ ____
ROOT
ATOM      1  C   UNL     1      -5.405   4.235 122.365  0.00  0.00    +0.000 A 
ATOM      2  C   UNL     1      -6.607   3.805 121.945  0.00  0.00    +0.000 A 
ATOM      3  C   UNL     1      -7.442   3.253 122.884  0.00  0.00    +0.000 A 
ATOM      4  C   UNL     1      -8.730   2.989 122.256  0.00  0.00    +0.000 C 
ATOM      5  C   UNL     1      -7.080   2.859 124.203  0.00  0.00    +0.000 A 
ATOM      6  C   UNL     1      -7.816   2.043 125.161  0.00  0.00    +0.000 A 
ATOM      7  C   UNL     1      -7.373   2.019 126.508  0.00  0.00    +0.000 A 
ATOM      8  C   UNL     1      -6.233   2.767 126.882  0.00  0.00    +0.000 A 
ATOM      9  C   UNL     1      -5.460   3.467 125.932  0.00  0.00    +0.000 A 
ATOM     10  C   UNL     1      -5.827   3.410 124.561  0.00  0.00    +0.000 A 
ATOM     11  N   UNL     1      -5.018   3.979 123.611  0.00  0.00    +0.000 NA
ENDROOT
BRANCH   1  13
ATOM     12  C   UNL     1      -5.112   5.152 120.231  0.00  0.00    +0.000 C 
ATOM     13  O   UNL     1      -4.629   5.044 121.581  0.00  0.00    +0.000 OA
ENDBRANCH   1  13
BRANCH   7  14
ATOM     14  O   UNL     1      -7.958   1.370 127.580  0.00  0.00    +0.000 OA
ATOM     15  C   UNL     1      -7.122   0.655 128.487  0.00  0.00    +0.000 C 
ENDBRANCH   7  14
BRANCH   9  16
ATOM     16  N   UNL     1      -4.428   4.324 126.405  0.00  0.00    +0.000 N 
ATOM     17  H   UNL     1      -4.517   5.324 126.288  0.00  0.00    +0.000 HD
BRANCH  16  18
ATOM     18  C   UNL     1      -3.311   3.800 127.215  0.00  0.00    +0.000 C 
ATOM     19  C   UNL     1      -2.177   3.281 126.300  0.00  0.00    +0.000 C 
BRANCH  18  20
ATOM     20  C   UNL     1      -2.719   4.857 128.158  0.00  0.00    +0.000 C 
BRANCH  20  21
ATOM     21  C   UNL     1      -3.403   4.791 129.537  0.00  0.00    +0.000 C 
BRANCH  21  22
ATOM     22  C   UNL     1      -4.419   5.904 129.712  0.00  0.00    +0.000 C 
BRANCH  22  23
ATOM     23  N   UNL     1      -5.734   5.428 129.300  0.00  0.00    +0.000 NA
ATOM     24  H   UNL     1      -5.924   4.525 129.734  0.00  0.00    +0.000 HD
ATOM     25  H   UNL     1      -5.740   5.277 128.294  0.00  0.00    +0.000 HD
ENDBRANCH  22  23
ENDBRANCH  21  22
ENDBRANCH  20  21
ENDBRANCH  18  20
ENDBRANCH  16  18
ENDBRANCH   9  16
BRANCH   6  26
ATOM     26  O   UNL     1      -9.017   1.354 124.955  0.00  0.00    +0.000 OA
BRANCH  26  27
ATOM     27  C   UNL     1      -9.224   0.032 124.612  0.00  0.00    +0.000 A 
ATOM     28  C   UNL     1      -9.058  -0.231 123.235  0.00  0.00    +0.000 A 
ATOM     29  C   UNL     1      -8.783  -1.529 122.783  0.00  0.00    +0.000 A 
ATOM     30  C   UNL     1      -8.661  -2.569 123.710  0.00  0.00    +0.000 A 
ATOM     31  C   UNL     1      -8.943  -2.344 125.081  0.00  0.00    +0.000 A 
ATOM     32  C   UNL     1      -9.338  -1.037 125.520  0.00  0.00    +0.000 A 
BRANCH  31  33
ATOM     33  C   UNL     1      -8.443  -3.372 126.090  0.00  0.00    +0.000 C 
ATOM     34  F   UNL     1      -8.139  -4.563 125.515  0.00  0.00    +0.000 F 
ATOM     35  F   UNL     1      -7.302  -2.967 126.733  0.00  0.00    +0.000 F 
ATOM     36  F   UNL     1      -9.331  -3.636 127.088  0.00  0.00    +0.000 F 
ENDBRANCH  31  33
ENDBRANCH  26  27
ENDBRANCH   6  26
TORSDOF 11
ENDMDL
MODEL 5
REMARK VINA RESULT:      -7.4      3.466      6.250
REMARK  Name = Tafenoquine
REMARK  15 active torsions:
REMARK  status: ('A' for Active; 'I' for Inactive)
REMARK    1  A    between atoms: C_1  and  O_2
REMARK    2  A    between atoms: O_2  and  C_3
REMARK    3  A    between atoms: C_5  and  C_6
REMARK    4  A    between atoms: C_8  and  O_9
REMARK    5  A    between atoms: O_9  and  C_10
REMARK    6  A    between atoms: C_14  and  C_16
REMARK    7  A    between atoms: C_20  and  O_21
REMARK    8  A    between atoms: O_21  and  C_22
REMARK    9  A    between atoms: C_24  and  N_25
REMARK   10  A    between atoms: N_25  and  C_26
REMARK   11  A    between atoms: C_26  and  C_27
REMARK   12  A    between atoms: C_26  and  C_28
REMARK   13  A    between atoms: C_28  and  C_29
REMARK   14  A    between atoms: C_29  and  C_30
REMARK   15  A    between atoms: C_30  and  N_31
REMARK                            x       y       z     vdW  Elec       q    Type
REMARK                         _______ _______ _______ _____ _____    ______ ____
ROOT
ATOM      1  C   UNL     1      -4.178   2.693 126.864  0.00  0.00    +0.000 A 
ATOM      2  C   UNL     1      -4.629   3.697 126.093  0.00  0.00    +0.000 A 
ATOM      3  C   UNL     1      -5.851   3.531 125.491  0.00  0.00    +0.000 A 
ATOM      4  C   UNL     1      -6.210   4.778 124.828  0.00  0.00    +0.000 C 
ATOM      5  C   UNL     1      -6.581   2.313 125.394  0.00  0.00    +0.000 A 
ATOM      6  C   UNL     1      -7.738   1.991 124.567  0.00  0.00    +0.000 A 
ATOM      7  C   UNL     1      -8.458   0.802 124.849  0.00  0.00    +0.000 A 
ATOM      8  C   UNL     1      -8.033  -0.039 125.903  0.00  0.00    +0.000 A 
ATOM      9  C   UNL     1      -6.851   0.218 126.628  0.00  0.00    +0.000 A 
ATOM     10  C   UNL     1      -6.059   1.346 126.285  0.00  0.00    +0.000 A 
ATOM     11  N   UNL     1      -4.846   1.543 126.894  0.00  0.00    +0.000 NA
ENDROOT
BRANCH   1  13
ATOM     12  C   UNL     1      -1.876   3.081 127.039  0.00  0.00    +0.000 C 
ATOM     13  O   UNL     1      -3.127   2.873 127.719  0.00  0.00    +0.000 OA
ENDBRANCH   1  13
BRANCH   7  14
ATOM     14  O   UNL     1      -9.610   0.345 124.236  0.00  0.00    +0.000 OA
ATOM     15  C   UNL     1      -9.491  -0.460 123.064  0.00  0.00    +0.000 C 
ENDBRANCH   7  14
BRANCH   9  16
ATOM     16  N   UNL     1      -6.578  -0.579 127.774  0.00  0.00    +0.000 N 
ATOM     17  H   UNL     1      -6.836  -0.240 128.691  0.00  0.00    +0.000 HD
BRANCH  16  18
ATOM     18  C   UNL     1      -6.082  -1.962 127.641  0.00  0.00    +0.000 C 
ATOM     19  C   UNL     1      -5.650  -2.243 126.182  0.00  0.00    +0.000 C 
BRANCH  18  20
ATOM     20  C   UNL     1      -4.885  -2.250 128.558  0.00  0.00    +0.000 C 
BRANCH  20  21
ATOM     21  C   UNL     1      -5.142  -1.691 129.970  0.00  0.00    +0.000 C 
BRANCH  21  22
ATOM     22  C   UNL     1      -4.019  -0.779 130.425  0.00  0.00    +0.000 C 
BRANCH  22  23
ATOM     23  N   UNL     1      -3.937   0.370 129.532  0.00  0.00    +0.000 NA
ATOM     24  H   UNL     1      -3.124   0.278 128.925  0.00  0.00    +0.000 HD
ATOM     25  H   UNL     1      -3.800   1.216 130.081  0.00  0.00    +0.000 HD
ENDBRANCH  22  23
ENDBRANCH  21  22
ENDBRANCH  20  21
ENDBRANCH  18  20
ENDBRANCH  16  18
ENDBRANCH   9  16
BRANCH   6  26
ATOM     26  O   UNL     1      -8.333   2.784 123.579  0.00  0.00    +0.000 OA
BRANCH  26  27
ATOM     27  C   UNL     1      -7.965   2.967 122.260  0.00  0.00    +0.000 A 
ATOM     28  C   UNL     1      -9.046   3.278 121.406  0.00  0.00    +0.000 A 
ATOM     29  C   UNL     1      -8.827   3.923 120.181  0.00  0.00    +0.000 A 
ATOM     30  C   UNL     1      -7.525   4.272 119.810  0.00  0.00    +0.000 A 
ATOM     31  C   UNL     1      -6.421   3.862 120.598  0.00  0.00    +0.000 A 
ATOM     32  C   UNL     1      -6.644   3.099 121.793  0.00  0.00    +0.000 A 
BRANCH  31  33
ATOM     33  C   UNL     1      -5.086   4.566 120.379  0.00  0.00    +0.000 C 
ATOM     34  F   UNL     1      -5.065   5.298 119.236  0.00  0.00    +0.000 F 
ATOM     35  F   UNL     1      -4.781   5.443 121.387  0.00  0.00    +0.000 F 
ATOM     36  F   UNL     1      -4.023   3.718 120.319  0.00  0.00    +0.000 F 
ENDBRANCH  31  33
ENDBRANCH  26  27
ENDBRANCH   6  26
TORSDOF 11
ENDMDL
MODEL 6
REMARK VINA RESULT:      -7.4      4.394      7.615
REMARK  Name = Tafenoquine
REMARK  15 active torsions:
REMARK  status: ('A' for Active; 'I' for Inactive)
REMARK    1  A    between atoms: C_1  and  O_2
REMARK    2  A    between atoms: O_2  and  C_3
REMARK    3  A    between atoms: C_5  and  C_6
REMARK    4  A    between atoms: C_8  and  O_9
REMARK    5  A    between atoms: O_9  and  C_10
REMARK    6  A    between atoms: C_14  and  C_16
REMARK    7  A    between atoms: C_20  and  O_21
REMARK    8  A    between atoms: O_21  and  C_22
REMARK    9  A    between atoms: C_24  and  N_25
REMARK   10  A    between atoms: N_25  and  C_26
REMARK   11  A    between atoms: C_26  and  C_27
REMARK   12  A    between atoms: C_26  and  C_28
REMARK   13  A    between atoms: C_28  and  C_29
REMARK   14  A    between atoms: C_29  and  C_30
REMARK   15  A    between atoms: C_30  and  N_31
REMARK                            x       y       z     vdW  Elec       q    Type
REMARK                         _______ _______ _______ _____ _____    ______ ____
ROOT
ATOM      1  C   UNL     1      -8.840   2.362 123.960  0.00  0.00    +0.000 A 
ATOM      2  C   UNL     1      -8.024   3.379 124.292  0.00  0.00    +0.000 A 
ATOM      3  C   UNL     1      -7.289   3.247 125.444  0.00  0.00    +0.000 A 
ATOM      4  C   UNL     1      -6.378   4.380 125.540  0.00  0.00    +0.000 C 
ATOM      5  C   UNL     1      -7.479   2.262 126.454  0.00  0.00    +0.000 A 
ATOM      6  C   UNL     1      -6.931   2.203 127.804  0.00  0.00    +0.000 A 
ATOM      7  C   UNL     1      -7.042   0.987 128.524  0.00  0.00    +0.000 A 
ATOM      8  C   UNL     1      -7.687  -0.121 127.928  0.00  0.00    +0.000 A 
ATOM      9  C   UNL     1      -8.312  -0.028 126.668  0.00  0.00    +0.000 A 
ATOM     10  C   UNL     1      -8.306   1.216 125.981  0.00  0.00    +0.000 A 
ATOM     11  N   UNL     1      -9.014   1.359 124.815  0.00  0.00    +0.000 NA
ENDROOT
BRANCH   1  13
ATOM     12  C   UNL     1      -8.743   3.129 121.750  0.00  0.00    +0.000 C 
ATOM     13  O   UNL     1      -9.387   2.274 122.711  0.00  0.00    +0.000 OA
ENDBRANCH   1  13
BRANCH   7  14
ATOM     14  O   UNL     1      -6.540   0.698 129.779  0.00  0.00    +0.000 OA
ATOM     15  C   UNL     1      -6.806  -0.583 130.346  0.00  0.00    +0.000 C 
ENDBRANCH   7  14
BRANCH   9  16
ATOM     16  N   UNL     1      -8.796  -1.222 126.066  0.00  0.00    +0.000 N 
ATOM     17  H   UNL     1      -9.604  -1.184 125.459  0.00  0.00    +0.000 HD
BRANCH  16  18
ATOM     18  C   UNL     1      -8.046  -2.488 126.172  0.00  0.00    +0.000 C 
ATOM     19  C   UNL     1      -8.848  -3.525 126.992  0.00  0.00    +0.000 C 
BRANCH  18  20
ATOM     20  C   UNL     1      -7.731  -3.103 124.800  0.00  0.00    +0.000 C 
BRANCH  20  21
ATOM     21  C   UNL     1      -8.935  -2.947 123.852  0.00  0.00    +0.000 C 
BRANCH  21  22
ATOM     22  C   UNL     1      -8.697  -1.862 122.819  0.00  0.00    +0.000 C 
BRANCH  22  23
ATOM     23  N   UNL     1      -9.790  -0.900 122.867  0.00  0.00    +0.000 NA
ATOM     24  H   UNL     1      -9.916  -0.475 121.949  0.00  0.00    +0.000 HD
ATOM     25  H   UNL     1      -9.551  -0.147 123.509  0.00  0.00    +0.000 HD
ENDBRANCH  22  23
ENDBRANCH  21  22
ENDBRANCH  20  21
ENDBRANCH  18  20
ENDBRANCH  16  18
ENDBRANCH   9  16
BRANCH   6  26
ATOM     26  O   UNL     1      -6.172   3.177 128.464  0.00  0.00    +0.000 OA
BRANCH  26  27
ATOM     27  C   UNL     1      -4.807   3.386 128.449  0.00  0.00    +0.000 A 
ATOM     28  C   UNL     1      -4.124   2.621 127.478  0.00  0.00    +0.000 A 
ATOM     29  C   UNL     1      -2.861   3.014 127.016  0.00  0.00    +0.000 A 
ATOM     30  C   UNL     1      -2.279   4.184 127.514  0.00  0.00    +0.000 A 
ATOM     31  C   UNL     1      -2.897   4.897 128.573  0.00  0.00    +0.000 A 
ATOM     32  C   UNL     1      -4.134   4.422 129.122  0.00  0.00    +0.000 A 
BRANCH  31  33
ATOM     33  C   UNL     1      -2.448   6.332 128.823  0.00  0.00    +0.000 C 
ATOM     34  F   UNL     1      -1.533   6.427 129.820  0.00  0.00    +0.000 F 
ATOM     35  F   UNL     1      -1.859   6.900 127.723  0.00  0.00    +0.000 F 
ATOM     36  F   UNL     1      -3.466   7.175 129.147  0.00  0.00    +0.000 F 
ENDBRANCH  31  33
ENDBRANCH  26  27
ENDBRANCH   6  26
TORSDOF 11
ENDMDL
MODEL 7
REMARK VINA RESULT:      -7.4      4.050      6.071
REMARK  Name = Tafenoquine
REMARK  15 active torsions:
REMARK  status: ('A' for Active; 'I' for Inactive)
REMARK    1  A    between atoms: C_1  and  O_2
REMARK    2  A    between atoms: O_2  and  C_3
REMARK    3  A    between atoms: C_5  and  C_6
REMARK    4  A    between atoms: C_8  and  O_9
REMARK    5  A    between atoms: O_9  and  C_10
REMARK    6  A    between atoms: C_14  and  C_16
REMARK    7  A    between atoms: C_20  and  O_21
REMARK    8  A    between atoms: O_21  and  C_22
REMARK    9  A    between atoms: C_24  and  N_25
REMARK   10  A    between atoms: N_25  and  C_26
REMARK   11  A    between atoms: C_26  and  C_27
REMARK   12  A    between atoms: C_26  and  C_28
REMARK   13  A    between atoms: C_28  and  C_29
REMARK   14  A    between atoms: C_29  and  C_30
REMARK   15  A    between atoms: C_30  and  N_31
REMARK                            x       y       z     vdW  Elec       q    Type
REMARK                         _______ _______ _______ _____ _____    ______ ____
ROOT
ATOM      1  C   UNL     1      -8.161   3.606 128.202  0.00  0.00    +0.000 A 
ATOM      2  C   UNL     1      -8.122   2.542 129.023  0.00  0.00    +0.000 A 
ATOM      3  C   UNL     1      -7.950   1.308 128.447  0.00  0.00    +0.000 A 
ATOM      4  C   UNL     1      -7.794   0.322 129.508  0.00  0.00    +0.000 C 
ATOM      5  C   UNL     1      -8.057   1.005 127.060  0.00  0.00    +0.000 A 
ATOM      6  C   UNL     1      -8.147  -0.291 126.399  0.00  0.00    +0.000 A 
ATOM      7  C   UNL     1      -7.966  -0.346 124.994  0.00  0.00    +0.000 A 
ATOM      8  C   UNL     1      -7.721   0.846 124.274  0.00  0.00    +0.000 A 
ATOM      9  C   UNL     1      -7.744   2.110 124.900  0.00  0.00    +0.000 A 
ATOM     10  C   UNL     1      -8.034   2.191 126.288  0.00  0.00    +0.000 A 
ATOM     11  N   UNL     1      -8.183   3.416 126.886  0.00  0.00    +0.000 NA
ENDROOT
BRANCH   1  13
ATOM     12  C   UNL     1      -7.667   4.920 130.076  0.00  0.00    +0.000 C 
ATOM     13  O   UNL     1      -8.044   4.878 128.688  0.00  0.00    +0.000 OA
ENDBRANCH   1  13
BRANCH   7  14
ATOM     14  O   UNL     1      -7.948  -1.468 124.186  0.00  0.00    +0.000 OA
ATOM     15  C   UNL     1      -6.735  -1.814 123.521  0.00  0.00    +0.000 C 
ENDBRANCH   7  14
BRANCH   9  16
ATOM     16  N   UNL     1      -7.330   3.242 124.145  0.00  0.00    +0.000 N 
ATOM     17  H   UNL     1      -7.240   4.140 124.600  0.00  0.00    +0.000 HD
BRANCH  16  18
ATOM     18  C   UNL     1      -6.865   3.102 122.751  0.00  0.00    +0.000 C 
ATOM     19  C   UNL     1      -8.016   3.403 121.764  0.00  0.00    +0.000 C 
BRANCH  18  20
ATOM     20  C   UNL     1      -5.695   4.041 122.423  0.00  0.00    +0.000 C 
BRANCH  20  21
ATOM     21  C   UNL     1      -5.215   3.815 120.977  0.00  0.00    +0.000 C 
BRANCH  21  22
ATOM     22  C   UNL     1      -5.167   5.113 120.193  0.00  0.00    +0.000 C 
BRANCH  22  23
ATOM     23  N   UNL     1      -4.332   6.075 120.902  0.00  0.00    +0.000 NA
ATOM     24  H   UNL     1      -4.921   6.777 121.350  0.00  0.00    +0.000 HD
ATOM     25  H   UNL     1      -3.743   6.569 120.236  0.00  0.00    +0.000 HD
ENDBRANCH  22  23
ENDBRANCH  21  22
ENDBRANCH  20  21
ENDBRANCH  18  20
ENDBRANCH  16  18
ENDBRANCH   9  16
BRANCH   6  26
ATOM     26  O   UNL     1      -8.266  -1.551 126.997  0.00  0.00    +0.000 OA
BRANCH  26  27
ATOM     27  C   UNL     1      -7.303  -2.326 127.614  0.00  0.00    +0.000 A 
ATOM     28  C   UNL     1      -6.006  -2.149 127.085  0.00  0.00    +0.000 A 
ATOM     29  C   UNL     1      -4.874  -2.481 127.841  0.00  0.00    +0.000 A 
ATOM     30  C   UNL     1      -5.034  -2.981 129.137  0.00  0.00    +0.000 A 
ATOM     31  C   UNL     1      -6.328  -3.275 129.637  0.00  0.00    +0.000 A 
ATOM     32  C   UNL     1      -7.478  -3.042 128.812  0.00  0.00    +0.000 A 
BRANCH  31  33
ATOM     33  C   UNL     1      -6.488  -3.449 131.144  0.00  0.00    +0.000 C 
ATOM     34  F   UNL     1      -5.771  -2.541 131.853  0.00  0.00    +0.000 F 
ATOM     35  F   UNL     1      -7.787  -3.301 131.556  0.00  0.00    +0.000 F 
ATOM     36  F   UNL     1      -6.117  -4.678 131.595  0.00  0.00    +0.000 F 
ENDBRANCH  31  33
ENDBRANCH  26  27
ENDBRANCH   6  26
TORSDOF 11
ENDMDL
MODEL 8
REMARK VINA RESULT:      -7.4      1.354      2.149
REMARK  Name = Tafenoquine
REMARK  15 active torsions:
REMARK  status: ('A' for Active; 'I' for Inactive)
REMARK    1  A    between atoms: C_1  and  O_2
REMARK    2  A    between atoms: O_2  and  C_3
REMARK    3  A    between atoms: C_5  and  C_6
REMARK    4  A    between atoms: C_8  and  O_9
REMARK    5  A    between atoms: O_9  and  C_10
REMARK    6  A    between atoms: C_14  and  C_16
REMARK    7  A    between atoms: C_20  and  O_21
REMARK    8  A    between atoms: O_21  and  C_22
REMARK    9  A    between atoms: C_24  and  N_25
REMARK   10  A    between atoms: N_25  and  C_26
REMARK   11  A    between atoms: C_26  and  C_27
REMARK   12  A    between atoms: C_26  and  C_28
REMARK   13  A    between atoms: C_28  and  C_29
REMARK   14  A    between atoms: C_29  and  C_30
REMARK   15  A    between atoms: C_30  and  N_31
REMARK                            x       y       z     vdW  Elec       q    Type
REMARK                         _______ _______ _______ _____ _____    ______ ____
ROOT
ATOM      1  C   UNL     1      -6.092   3.609 123.990  0.00  0.00    +0.000 A 
ATOM      2  C   UNL     1      -6.895   2.658 123.482  0.00  0.00    +0.000 A 
ATOM      3  C   UNL     1      -7.592   1.879 124.372  0.00  0.00    +0.000 A 
ATOM      4  C   UNL     1      -8.498   1.021 123.621  0.00  0.00    +0.000 C 
ATOM      5  C   UNL     1      -7.370   1.805 125.776  0.00  0.00    +0.000 A 
ATOM      6  C   UNL     1      -7.873   0.836 126.743  0.00  0.00    +0.000 A 
ATOM      7  C   UNL     1      -7.740   1.129 128.124  0.00  0.00    +0.000 A 
ATOM      8  C   UNL     1      -7.117   2.333 128.525  0.00  0.00    +0.000 A 
ATOM      9  C   UNL     1      -6.533   3.215 127.592  0.00  0.00    +0.000 A 
ATOM     10  C   UNL     1      -6.561   2.880 126.211  0.00  0.00    +0.000 A 
ATOM     11  N   UNL     1      -5.892   3.661 125.304  0.00  0.00    +0.000 NA
ENDROOT
BRANCH   1  13
ATOM     12  C   UNL     1      -5.395   4.197 121.834  0.00  0.00    +0.000 C 
ATOM     13  O   UNL     1      -5.586   4.604 123.201  0.00  0.00    +0.000 OA
ENDBRANCH   1  13
BRANCH   7  14
ATOM     14  O   UNL     1      -8.201   0.387 129.195  0.00  0.00    +0.000 OA
ATOM     15  C   UNL     1      -8.296   1.012 130.473  0.00  0.00    +0.000 C 
ENDBRANCH   7  14
BRANCH   9  16
ATOM     16  N   UNL     1      -6.071   4.477 128.056  0.00  0.00    +0.000 N 
ATOM     17  H   UNL     1      -6.709   5.261 128.089  0.00  0.00    +0.000 HD
BRANCH  16  18
ATOM     18  C   UNL     1      -4.730   4.627 128.653  0.00  0.00    +0.000 C 
ATOM     19  C   UNL     1      -4.234   3.273 129.213  0.00  0.00    +0.000 C 
BRANCH  18  20
ATOM     20  C   UNL     1      -3.690   5.137 127.646  0.00  0.00    +0.000 C 
BRANCH  20  21
ATOM     21  C   UNL     1      -2.419   4.269 127.699  0.00  0.00    +0.000 C 
BRANCH  21  22
ATOM     22  C   UNL     1      -2.203   3.510 126.404  0.00  0.00    +0.000 C 
BRANCH  22  23
ATOM     23  N   UNL     1      -1.211   2.464 126.615  0.00  0.00    +0.000 NA
ATOM     24  H   UNL     1      -0.691   2.651 127.473  0.00  0.00    +0.000 HD
ATOM     25  H   UNL     1      -0.535   2.478 125.854  0.00  0.00    +0.000 HD
ENDBRANCH  22  23
ENDBRANCH  21  22
ENDBRANCH  20  21
ENDBRANCH  18  20
ENDBRANCH  16  18
ENDBRANCH   9  16
BRANCH   6  26
ATOM     26  O   UNL     1      -8.609  -0.328 126.486  0.00  0.00    +0.000 OA
BRANCH  26  27
ATOM     27  C   UNL     1      -8.177  -1.558 126.031  0.00  0.00    +0.000 A 
ATOM     28  C   UNL     1      -9.226  -2.432 125.672  0.00  0.00    +0.000 A 
ATOM     29  C   UNL     1      -8.996  -3.502 124.796  0.00  0.00    +0.000 A 
ATOM     30  C   UNL     1      -7.718  -3.695 124.265  0.00  0.00    +0.000 A 
ATOM     31  C   UNL     1      -6.630  -2.901 124.709  0.00  0.00    +0.000 A 
ATOM     32  C   UNL     1      -6.850  -1.882 125.695  0.00  0.00    +0.000 A 
BRANCH  31  33
ATOM     33  C   UNL     1      -5.366  -2.881 123.855  0.00  0.00    +0.000 C 
ATOM     34  F   UNL     1      -4.747  -4.087 123.813  0.00  0.00    +0.000 F 
ATOM     35  F   UNL     1      -5.617  -2.545 122.550  0.00  0.00    +0.000 F 
ATOM     36  F   UNL     1      -4.437  -1.979 124.275  0.00  0.00    +0.000 F 
ENDBRANCH  31  33
ENDBRANCH  26  27
ENDBRANCH   6  26
TORSDOF 11
ENDMDL
MODEL 9
REMARK VINA RESULT:      -7.3      5.987      8.451
REMARK  Name = Tafenoquine
REMARK  15 active torsions:
REMARK  status: ('A' for Active; 'I' for Inactive)
REMARK    1  A    between atoms: C_1  and  O_2
REMARK    2  A    between atoms: O_2  and  C_3
REMARK    3  A    between atoms: C_5  and  C_6
REMARK    4  A    between atoms: C_8  and  O_9
REMARK    5  A    between atoms: O_9  and  C_10
REMARK    6  A    between atoms: C_14  and  C_16
REMARK    7  A    between atoms: C_20  and  O_21
REMARK    8  A    between atoms: O_21  and  C_22
REMARK    9  A    between atoms: C_24  and  N_25
REMARK   10  A    between atoms: N_25  and  C_26
REMARK   11  A    between atoms: C_26  and  C_27
REMARK   12  A    between atoms: C_26  and  C_28
REMARK   13  A    between atoms: C_28  and  C_29
REMARK   14  A    between atoms: C_29  and  C_30
REMARK   15  A    between atoms: C_30  and  N_31
REMARK                            x       y       z     vdW  Elec       q    Type
REMARK                         _______ _______ _______ _____ _____    ______ ____
ROOT
ATOM      1  C   UNL     1      -8.115   4.554 127.015  0.00  0.00    +0.000 A 
ATOM      2  C   UNL     1      -7.011   3.853 127.327  0.00  0.00    +0.000 A 
ATOM      3  C   UNL     1      -6.817   3.538 128.649  0.00  0.00    +0.000 A 
ATOM      4  C   UNL     1      -5.654   2.665 128.747  0.00  0.00    +0.000 C 
ATOM      5  C   UNL     1      -7.526   4.084 129.756  0.00  0.00    +0.000 A 
ATOM      6  C   UNL     1      -7.220   4.007 131.179  0.00  0.00    +0.000 A 
ATOM      7  C   UNL     1      -8.222   4.393 132.106  0.00  0.00    +0.000 A 
ATOM      8  C   UNL     1      -9.473   4.851 131.631  0.00  0.00    +0.000 A 
ATOM      9  C   UNL     1      -9.726   5.028 130.256  0.00  0.00    +0.000 A 
ATOM     10  C   UNL     1      -8.694   4.751 129.320  0.00  0.00    +0.000 A 
ATOM     11  N   UNL     1      -8.881   5.035 127.991  0.00  0.00    +0.000 NA
ENDROOT
BRANCH   1  13
ATOM     12  C   UNL     1      -8.237   3.509 124.924  0.00  0.00    +0.000 C 
ATOM     13  O   UNL     1      -8.538   4.669 125.721  0.00  0.00    +0.000 OA
ENDBRANCH   1  13
BRANCH   7  14
ATOM     14  O   UNL     1      -8.165   4.338 133.486  0.00  0.00    +0.000 OA
ATOM     15  C   UNL     1      -7.824   5.520 134.206  0.00  0.00    +0.000 C 
ENDBRANCH   7  14
BRANCH   9  16
ATOM     16  N   UNL     1     -11.055   5.335 129.850  0.00  0.00    +0.000 N 
ATOM     17  H   UNL     1     -11.727   4.588 129.735  0.00  0.00    +0.000 HD
BRANCH  16  18
ATOM     18  C   UNL     1     -11.522   6.731 129.759  0.00  0.00    +0.000 C 
ATOM     19  C   UNL     1     -12.277   7.134 131.048  0.00  0.00    +0.000 C 
BRANCH  18  20
ATOM     20  C   UNL     1     -10.371   7.726 129.549  0.00  0.00    +0.000 C 
BRANCH  20  21
ATOM     21  C   UNL     1     -10.526   8.450 128.198  0.00  0.00    +0.000 C 
BRANCH  21  22
ATOM     22  C   UNL     1     -11.444   7.692 127.259  0.00  0.00    +0.000 C 
BRANCH  22  23
ATOM     23  N   UNL     1     -10.642   6.928 126.311  0.00  0.00    +0.000 NA
ATOM     24  H   UNL     1     -11.243   6.546 125.581  0.00  0.00    +0.000 HD
ATOM     25  H   UNL     1     -10.218   6.136 126.787  0.00  0.00    +0.000 HD
ENDBRANCH  22  23
ENDBRANCH  21  22
ENDBRANCH  20  21
ENDBRANCH  18  20
ENDBRANCH  16  18
ENDBRANCH   9  16
BRANCH   6  26
ATOM     26  O   UNL     1      -6.078   3.468 131.783  0.00  0.00    +0.000 OA
BRANCH  26  27
ATOM     27  C   UNL     1      -4.903   4.091 132.155  0.00  0.00    +0.000 A 
ATOM     28  C   UNL     1      -3.971   3.228 132.771  0.00  0.00    +0.000 A 
ATOM     29  C   UNL     1      -2.608   3.550 132.800  0.00  0.00    +0.000 A 
ATOM     30  C   UNL     1      -2.168   4.734 132.200  0.00  0.00    +0.000 A 
ATOM     31  C   UNL     1      -3.103   5.667 131.684  0.00  0.00    +0.000 A 
ATOM     32  C   UNL     1      -4.507   5.383 131.763  0.00  0.00    +0.000 A 
BRANCH  31  33
ATOM     33  C   UNL     1      -2.590   6.733 130.722  0.00  0.00    +0.000 C 
ATOM     34  F   UNL     1      -2.688   7.986 131.233  0.00  0.00    +0.000 F 
ATOM     35  F   UNL     1      -1.267   6.564 130.404  0.00  0.00    +0.000 F 
ATOM     36  F   UNL     1      -3.237   6.747 129.525  0.00  0.00    +0.000 F 
ENDBRANCH  31  33
ENDBRANCH  26  27
ENDBRANCH   6  26
TORSDOF 11
ENDMDL
