MODEL 1
REMARK VINA RESULT:      -7.5      0.000      0.000
REMARK  Name = Tafluprost
REMARK  17 active torsions:
REMARK  status: ('A' for Active; 'I' for Inactive)
REMARK    1  A    between atoms: C_1  and  C_2
REMARK    2  A    between atoms: C_2  and  C_3
REMARK    3  A    between atoms: C_2  and  O_4
REMARK    4  A    between atoms: O_4  and  C_5
REMARK    5  A    between atoms: C_5  and  C_7
REMARK    6  A    between atoms: C_7  and  C_8
REMARK    7  A    between atoms: C_8  and  C_9
REMARK    8  A    between atoms: C_9  and  C_10
REMARK    9  A    between atoms: C_11  and  C_12
REMARK   10  A    between atoms: C_12  and  C_13
REMARK   11  A    between atoms: C_14  and  O_15
REMARK   12  A    between atoms: C_17  and  O_18
REMARK   13  A    between atoms: C_19  and  C_20
REMARK   14  A    between atoms: C_21  and  C_22
REMARK   15  A    between atoms: C_22  and  C_25
REMARK   16  A    between atoms: C_25  and  O_26
REMARK   17  A    between atoms: O_26  and  C_27
REMARK                            x       y       z     vdW  Elec       q    Type
REMARK                         _______ _______ _______ _____ _____    ______ ____
ROOT
ATOM      1  C   UNL     1      -6.536  -2.775 124.899  0.00  0.00    +0.000 C 
ATOM      2  C   UNL     1      -5.317  -3.203 124.056  0.00  0.00    +0.000 C 
ATOM      3  C   UNL     1      -5.394  -2.444 122.728  0.00  0.00    +0.000 C 
ATOM      4  C   UNL     1      -6.624  -1.541 122.813  0.00  0.00    +0.000 C 
ATOM      5  C   UNL     1      -6.918  -1.395 124.315  0.00  0.00    +0.000 C 
ENDROOT
BRANCH   2   6
ATOM      6  O   UNL     1      -5.215  -4.596 123.814  0.00  0.00    +0.000 OA
ATOM      7  H   UNL     1      -5.585  -5.082 124.571  0.00  0.00    +0.000 HD
ENDBRANCH   2   6
BRANCH   4   8
ATOM      8  O   UNL     1      -7.735  -2.093 122.112  0.00  0.00    +0.000 OA
ATOM      9  H   UNL     1      -8.406  -1.414 121.955  0.00  0.00    +0.000 HD
ENDBRANCH   4   8
BRANCH   5  10
ATOM     10  C   UNL     1      -6.080  -0.295 124.931  0.00  0.00    +0.000 C 
ATOM     11  C   UNL     1      -6.598   0.876 125.339  0.00  0.00    +0.000 C 
BRANCH  11  12
ATOM     12  C   UNL     1      -5.785   1.966 125.979  0.00  0.00    +0.000 C 
ATOM     13  F   UNL     1      -6.192   2.135 127.267  0.00  0.00    +0.000 F 
ATOM     14  F   UNL     1      -4.480   1.585 126.036  0.00  0.00    +0.000 F 
BRANCH  12  15
ATOM     15  C   UNL     1      -5.906   3.296 125.228  0.00  0.00    +0.000 C 
BRANCH  15  16
ATOM     16  O   UNL     1      -6.745   3.116 124.081  0.00  0.00    +0.000 OA
BRANCH  16  17
ATOM     17  C   UNL     1      -6.269   3.677 122.930  0.00  0.00    +0.000 A 
ATOM     18  C   UNL     1      -7.018   3.431 121.780  0.00  0.00    +0.000 A 
ATOM     19  C   UNL     1      -6.553   3.854 120.536  0.00  0.00    +0.000 A 
ATOM     20  C   UNL     1      -5.365   4.576 120.448  0.00  0.00    +0.000 A 
ATOM     21  C   UNL     1      -4.613   4.821 121.596  0.00  0.00    +0.000 A 
ATOM     22  C   UNL     1      -5.055   4.357 122.838  0.00  0.00    +0.000 A 
ENDBRANCH  16  17
ENDBRANCH  15  16
ENDBRANCH  12  15
ENDBRANCH  11  12
ENDBRANCH   5  10
BRANCH   1  23
ATOM     23  C   UNL     1      -7.700  -3.765 124.879  0.00  0.00    +0.000 C 
BRANCH  23  25
ATOM     24  C   UNL     1      -9.508  -3.133 126.458  0.00  0.00    +0.000 C 
ATOM     25  C   UNL     1      -9.013  -3.120 125.215  0.00  0.00    +0.000 C 
BRANCH  24  26
ATOM     26  C   UNL     1      -8.811  -3.847 127.581  0.00  0.00    +0.000 C 
BRANCH  26  27
ATOM     27  C   UNL     1      -8.329  -2.876 128.638  0.00  0.00    +0.000 C 
BRANCH  27  28
ATOM     28  C   UNL     1      -6.834  -2.578 128.500  0.00  0.00    +0.000 C 
BRANCH  28  29
ATOM     29  C   UNL     1      -6.392  -1.763 129.690  0.00  0.00    +0.000 C 
ATOM     30  O   UNL     1      -6.855  -0.655 129.956  0.00  0.00    +0.000 OA
BRANCH  29  31
ATOM     31  O   UNL     1      -5.435  -2.398 130.426  0.00  0.00    +0.000 OA
BRANCH  31  33
ATOM     32  C   UNL     1      -3.502  -3.634 129.637  0.00  0.00    +0.000 C 
ATOM     33  C   UNL     1      -5.008  -3.677 129.899  0.00  0.00    +0.000 C 
ATOM     34  C   UNL     1      -5.293  -4.804 130.893  0.00  0.00    +0.000 C 
ENDBRANCH  31  33
ENDBRANCH  29  31
ENDBRANCH  28  29
ENDBRANCH  27  28
ENDBRANCH  26  27
ENDBRANCH  24  26
ENDBRANCH  23  25
ENDBRANCH   1  23
TORSDOF 15
ENDMDL
MODEL 2
REMARK VINA RESULT:      -7.3      1.519      2.387
REMARK  Name = Tafluprost
REMARK  17 active torsions:
REMARK  status: ('A' for Active; 'I' for Inactive)
REMARK    1  A    between atoms: C_1  and  C_2
REMARK    2  A    between atoms: C_2  and  C_3
REMARK    3  A    between atoms: C_2  and  O_4
REMARK    4  A    between atoms: O_4  and  C_5
REMARK    5  A    between atoms: C_5  and  C_7
REMARK    6  A    between atoms: C_7  and  C_8
REMARK    7  A    between atoms: C_8  and  C_9
REMARK    8  A    between atoms: C_9  and  C_10
REMARK    9  A    between atoms: C_11  and  C_12
REMARK   10  A    between atoms: C_12  and  C_13
REMARK   11  A    between atoms: C_14  and  O_15
REMARK   12  A    between atoms: C_17  and  O_18
REMARK   13  A    between atoms: C_19  and  C_20
REMARK   14  A    between atoms: C_21  and  C_22
REMARK   15  A    between atoms: C_22  and  C_25
REMARK   16  A    between atoms: C_25  and  O_26
REMARK   17  A    between atoms: O_26  and  C_27
REMARK                            x       y       z     vdW  Elec       q    Type
REMARK                         _______ _______ _______ _____ _____    ______ ____
ROOT
ATOM      1  C   UNL     1      -6.575  -2.312 124.788  0.00  0.00    +0.000 C 
ATOM      2  C   UNL     1      -5.416  -2.527 123.793  0.00  0.00    +0.000 C 
ATOM      3  C   UNL     1      -5.864  -1.958 122.443  0.00  0.00    +0.000 C 
ATOM      4  C   UNL     1      -7.258  -1.370 122.659  0.00  0.00    +0.000 C 
ATOM      5  C   UNL     1      -7.369  -1.134 124.175  0.00  0.00    +0.000 C 
ENDROOT
BRANCH   2   6
ATOM      6  O   UNL     1      -5.001  -3.873 123.638  0.00  0.00    +0.000 OA
ATOM      7  H   UNL     1      -5.537  -4.297 122.945  0.00  0.00    +0.000 HD
ENDBRANCH   2   6
BRANCH   4   8
ATOM      8  O   UNL     1      -8.280  -2.244 122.188  0.00  0.00    +0.000 OA
ATOM      9  H   UNL     1      -8.023  -2.639 121.343  0.00  0.00    +0.000 HD
ENDBRANCH   4   8
BRANCH   5  10
ATOM     10  C   UNL     1      -6.759   0.194 124.567  0.00  0.00    +0.000 C 
ATOM     11  C   UNL     1      -7.246   1.374 124.148  0.00  0.00    +0.000 C 
BRANCH  11  12
ATOM     12  C   UNL     1      -6.670   2.702 124.551  0.00  0.00    +0.000 C 
ATOM     13  F   UNL     1      -7.639   3.452 125.145  0.00  0.00    +0.000 F 
ATOM     14  F   UNL     1      -5.704   2.510 125.491  0.00  0.00    +0.000 F 
BRANCH  12  15
ATOM     15  C   UNL     1      -6.090   3.469 123.359  0.00  0.00    +0.000 C 
BRANCH  15  16
ATOM     16  O   UNL     1      -6.720   3.016 122.154  0.00  0.00    +0.000 OA
BRANCH  16  17
ATOM     17  C   UNL     1      -6.558   3.841 121.078  0.00  0.00    +0.000 A 
ATOM     18  C   UNL     1      -7.618   3.873 120.173  0.00  0.00    +0.000 A 
ATOM     19  C   UNL     1      -7.501   4.587 118.981  0.00  0.00    +0.000 A 
ATOM     20  C   UNL     1      -6.344   5.318 118.720  0.00  0.00    +0.000 A 
ATOM     21  C   UNL     1      -5.282   5.285 119.623  0.00  0.00    +0.000 A 
ATOM     22  C   UNL     1      -5.380   4.532 120.796  0.00  0.00    +0.000 A 
ENDBRANCH  16  17
ENDBRANCH  15  16
ENDBRANCH  12  15
ENDBRANCH  11  12
ENDBRANCH   5  10
BRANCH   1  23
ATOM     23  C   UNL     1      -7.444  -3.546 125.026  0.00  0.00    +0.000 C 
BRANCH  23  25
ATOM     24  C   UNL     1      -9.042  -3.054 126.862  0.00  0.00    +0.000 C 
ATOM     25  C   UNL     1      -8.807  -3.201 125.552  0.00  0.00    +0.000 C 
BRANCH  24  26
ATOM     26  C   UNL     1      -7.971  -3.286 127.890  0.00  0.00    +0.000 C 
BRANCH  26  27
ATOM     27  C   UNL     1      -8.549  -3.338 129.288  0.00  0.00    +0.000 C 
BRANCH  27  28
ATOM     28  C   UNL     1      -7.471  -3.160 130.359  0.00  0.00    +0.000 C 
BRANCH  28  29
ATOM     29  C   UNL     1      -6.978  -1.736 130.318  0.00  0.00    +0.000 C 
ATOM     30  O   UNL     1      -5.786  -1.435 130.376  0.00  0.00    +0.000 OA
BRANCH  29  31
ATOM     31  O   UNL     1      -7.997  -0.838 130.203  0.00  0.00    +0.000 OA
BRANCH  31  33
ATOM     32  C   UNL     1      -7.830   0.406 128.127  0.00  0.00    +0.000 C 
ATOM     33  C   UNL     1      -7.623   0.443 129.641  0.00  0.00    +0.000 C 
ATOM     34  C   UNL     1      -8.481   1.569 130.219  0.00  0.00    +0.000 C 
ENDBRANCH  31  33
ENDBRANCH  29  31
ENDBRANCH  28  29
ENDBRANCH  27  28
ENDBRANCH  26  27
ENDBRANCH  24  26
ENDBRANCH  23  25
ENDBRANCH   1  23
TORSDOF 15
ENDMDL
MODEL 3
REMARK VINA RESULT:      -7.2      3.818      7.954
REMARK  Name = Tafluprost
REMARK  17 active torsions:
REMARK  status: ('A' for Active; 'I' for Inactive)
REMARK    1  A    between atoms: C_1  and  C_2
REMARK    2  A    between atoms: C_2  and  C_3
REMARK    3  A    between atoms: C_2  and  O_4
REMARK    4  A    between atoms: O_4  and  C_5
REMARK    5  A    between atoms: C_5  and  C_7
REMARK    6  A    between atoms: C_7  and  C_8
REMARK    7  A    between atoms: C_8  and  C_9
REMARK    8  A    between atoms: C_9  and  C_10
REMARK    9  A    between atoms: C_11  and  C_12
REMARK   10  A    between atoms: C_12  and  C_13
REMARK   11  A    between atoms: C_14  and  O_15
REMARK   12  A    between atoms: C_17  and  O_18
REMARK   13  A    between atoms: C_19  and  C_20
REMARK   14  A    between atoms: C_21  and  C_22
REMARK   15  A    between atoms: C_22  and  C_25
REMARK   16  A    between atoms: C_25  and  O_26
REMARK   17  A    between atoms: O_26  and  C_27
REMARK                            x       y       z     vdW  Elec       q    Type
REMARK                         _______ _______ _______ _____ _____    ______ ____
ROOT
ATOM      1  C   UNL     1      -7.364   2.387 125.199  0.00  0.00    +0.000 C 
ATOM      2  C   UNL     1      -8.609   3.086 124.615  0.00  0.00    +0.000 C 
ATOM      3  C   UNL     1      -8.462   3.077 123.090  0.00  0.00    +0.000 C 
ATOM      4  C   UNL     1      -7.162   2.335 122.782  0.00  0.00    +0.000 C 
ATOM      5  C   UNL     1      -6.867   1.495 124.036  0.00  0.00    +0.000 C 
ENDROOT
BRANCH   2   6
ATOM      6  O   UNL     1      -8.823   4.410 125.074  0.00  0.00    +0.000 OA
ATOM      7  H   UNL     1      -8.502   4.489 125.989  0.00  0.00    +0.000 HD
ENDBRANCH   2   6
BRANCH   4   8
ATOM      8  O   UNL     1      -6.096   3.233 122.488  0.00  0.00    +0.000 OA
ATOM      9  H   UNL     1      -5.918   3.245 121.537  0.00  0.00    +0.000 HD
ENDBRANCH   4   8
BRANCH   5  10
ATOM     10  C   UNL     1      -7.615   0.181 124.002  0.00  0.00    +0.000 C 
ATOM     11  C   UNL     1      -7.082  -0.951 123.511  0.00  0.00    +0.000 C 
BRANCH  11  12
ATOM     12  C   UNL     1      -7.801  -2.271 123.497  0.00  0.00    +0.000 C 
ATOM     13  F   UNL     1      -8.311  -2.493 122.255  0.00  0.00    +0.000 F 
ATOM     14  F   UNL     1      -6.912  -3.274 123.731  0.00  0.00    +0.000 F 
BRANCH  12  15
ATOM     15  C   UNL     1      -8.931  -2.326 124.530  0.00  0.00    +0.000 C 
BRANCH  15  16
ATOM     16  O   UNL     1      -8.697  -3.417 125.429  0.00  0.00    +0.000 OA
BRANCH  16  17
ATOM     17  C   UNL     1      -8.376  -3.050 126.704  0.00  0.00    +0.000 A 
ATOM     18  C   UNL     1      -8.810  -3.911 127.711  0.00  0.00    +0.000 A 
ATOM     19  C   UNL     1      -8.641  -3.565 129.051  0.00  0.00    +0.000 A 
ATOM     20  C   UNL     1      -7.984  -2.382 129.385  0.00  0.00    +0.000 A 
ATOM     21  C   UNL     1      -7.553  -1.519 128.380  0.00  0.00    +0.000 A 
ATOM     22  C   UNL     1      -7.764  -1.842 127.037  0.00  0.00    +0.000 A 
ENDBRANCH  16  17
ENDBRANCH  15  16
ENDBRANCH  12  15
ENDBRANCH  11  12
ENDBRANCH   5  10
BRANCH   1  23
ATOM     23  C   UNL     1      -6.285   3.337 125.714  0.00  0.00    +0.000 C 
BRANCH  23  25
ATOM     24  C   UNL     1      -4.227   2.478 126.803  0.00  0.00    +0.000 C 
ATOM     25  C   UNL     1      -4.914   2.729 125.681  0.00  0.00    +0.000 C 
BRANCH  24  26
ATOM     26  C   UNL     1      -4.759   2.846 128.158  0.00  0.00    +0.000 C 
BRANCH  26  27
ATOM     27  C   UNL     1      -3.717   3.567 128.985  0.00  0.00    +0.000 C 
BRANCH  27  28
ATOM     28  C   UNL     1      -2.766   4.392 128.113  0.00  0.00    +0.000 C 
BRANCH  28  29
ATOM     29  C   UNL     1      -3.158   5.845 128.212  0.00  0.00    +0.000 C 
ATOM     30  O   UNL     1      -4.131   6.321 127.628  0.00  0.00    +0.000 OA
BRANCH  29  31
ATOM     31  O   UNL     1      -2.318   6.554 129.019  0.00  0.00    +0.000 OA
BRANCH  31  33
ATOM     32  C   UNL     1      -1.394   6.498 131.262  0.00  0.00    +0.000 C 
ATOM     33  C   UNL     1      -2.671   6.551 130.423  0.00  0.00    +0.000 C 
ATOM     34  C   UNL     1      -3.444   7.815 130.799  0.00  0.00    +0.000 C 
ENDBRANCH  31  33
ENDBRANCH  29  31
ENDBRANCH  28  29
ENDBRANCH  27  28
ENDBRANCH  26  27
ENDBRANCH  24  26
ENDBRANCH  23  25
ENDBRANCH   1  23
TORSDOF 15
ENDMDL
MODEL 4
REMARK VINA RESULT:      -7.2      5.025      9.000
REMARK  Name = Tafluprost
REMARK  17 active torsions:
REMARK  status: ('A' for Active; 'I' for Inactive)
REMARK    1  A    between atoms: C_1  and  C_2
REMARK    2  A    between atoms: C_2  and  C_3
REMARK    3  A    between atoms: C_2  and  O_4
REMARK    4  A    between atoms: O_4  and  C_5
REMARK    5  A    between atoms: C_5  and  C_7
REMARK    6  A    between atoms: C_7  and  C_8
REMARK    7  A    between atoms: C_8  and  C_9
REMARK    8  A    between atoms: C_9  and  C_10
REMARK    9  A    between atoms: C_11  and  C_12
REMARK   10  A    between atoms: C_12  and  C_13
REMARK   11  A    between atoms: C_14  and  O_15
REMARK   12  A    between atoms: C_17  and  O_18
REMARK   13  A    between atoms: C_19  and  C_20
REMARK   14  A    between atoms: C_21  and  C_22
REMARK   15  A    between atoms: C_22  and  C_25
REMARK   16  A    between atoms: C_25  and  O_26
REMARK   17  A    between atoms: O_26  and  C_27
REMARK                            x       y       z     vdW  Elec       q    Type
REMARK                         _______ _______ _______ _____ _____    ______ ____
ROOT
ATOM      1  C   UNL     1      -7.634   3.621 126.735  0.00  0.00    +0.000 C 
ATOM      2  C   UNL     1      -7.846   4.564 125.534  0.00  0.00    +0.000 C 
ATOM      3  C   UNL     1      -6.474   5.129 125.152  0.00  0.00    +0.000 C 
ATOM      4  C   UNL     1      -5.459   4.483 126.094  0.00  0.00    +0.000 C 
ATOM      5  C   UNL     1      -6.146   3.212 126.621  0.00  0.00    +0.000 C 
ENDROOT
BRANCH   2   6
ATOM      6  O   UNL     1      -8.762   5.623 125.757  0.00  0.00    +0.000 OA
ATOM      7  H   UNL     1      -8.908   6.102 124.922  0.00  0.00    +0.000 HD
ENDBRANCH   2   6
BRANCH   4   8
ATOM      8  O   UNL     1      -5.089   5.359 127.155  0.00  0.00    +0.000 OA
ATOM      9  H   UNL     1      -4.791   6.209 126.802  0.00  0.00    +0.000 HD
ENDBRANCH   4   8
BRANCH   5  10
ATOM     10  C   UNL     1      -5.973   2.058 125.659  0.00  0.00    +0.000 C 
ATOM     11  C   UNL     1      -6.873   1.067 125.536  0.00  0.00    +0.000 C 
BRANCH  11  12
ATOM     12  C   UNL     1      -6.730  -0.070 124.564  0.00  0.00    +0.000 C 
ATOM     13  F   UNL     1      -6.714   0.422 123.295  0.00  0.00    +0.000 F 
ATOM     14  F   UNL     1      -5.528  -0.680 124.754  0.00  0.00    +0.000 F 
BRANCH  12  15
ATOM     15  C   UNL     1      -7.860  -1.095 124.701  0.00  0.00    +0.000 C 
BRANCH  15  16
ATOM     16  O   UNL     1      -7.325  -2.325 125.203  0.00  0.00    +0.000 OA
BRANCH  16  17
ATOM     17  C   UNL     1      -7.757  -2.670 126.452  0.00  0.00    +0.000 A 
ATOM     18  C   UNL     1      -7.020  -2.149 127.514  0.00  0.00    +0.000 A 
ATOM     19  C   UNL     1      -7.303  -2.540 128.823  0.00  0.00    +0.000 A 
ATOM     20  C   UNL     1      -8.363  -3.409 129.074  0.00  0.00    +0.000 A 
ATOM     21  C   UNL     1      -9.099  -3.933 128.012  0.00  0.00    +0.000 A 
ATOM     22  C   UNL     1      -8.786  -3.578 126.697  0.00  0.00    +0.000 A 
ENDBRANCH  16  17
ENDBRANCH  15  16
ENDBRANCH  12  15
ENDBRANCH  11  12
ENDBRANCH   5  10
BRANCH   1  23
ATOM     23  C   UNL     1      -7.973   4.236 128.092  0.00  0.00    +0.000 C 
BRANCH  23  25
ATOM     24  C   UNL     1      -8.597   3.509 130.382  0.00  0.00    +0.000 C 
ATOM     25  C   UNL     1      -8.087   3.209 129.181  0.00  0.00    +0.000 C 
BRANCH  24  26
ATOM     26  C   UNL     1      -9.028   4.904 130.735  0.00  0.00    +0.000 C 
BRANCH  26  27
ATOM     27  C   UNL     1     -10.531   4.999 130.878  0.00  0.00    +0.000 C 
BRANCH  27  28
ATOM     28  C   UNL     1     -10.961   6.307 131.547  0.00  0.00    +0.000 C 
BRANCH  28  29
ATOM     29  C   UNL     1     -12.250   6.772 130.917  0.00  0.00    +0.000 C 
ATOM     30  O   UNL     1     -13.200   7.203 131.569  0.00  0.00    +0.000 OA
BRANCH  29  31
ATOM     31  O   UNL     1     -12.232   6.661 129.558  0.00  0.00    +0.000 OA
BRANCH  31  33
ATOM     32  C   UNL     1     -11.213   8.259 128.042  0.00  0.00    +0.000 C 
ATOM     33  C   UNL     1     -12.466   7.897 128.841  0.00  0.00    +0.000 C 
ATOM     34  C   UNL     1     -13.636   7.755 127.867  0.00  0.00    +0.000 C 
ENDBRANCH  31  33
ENDBRANCH  29  31
ENDBRANCH  28  29
ENDBRANCH  27  28
ENDBRANCH  26  27
ENDBRANCH  24  26
ENDBRANCH  23  25
ENDBRANCH   1  23
TORSDOF 15
ENDMDL
MODEL 5
REMARK VINA RESULT:      -7.1      2.910      9.529
REMARK  Name = Tafluprost
REMARK  17 active torsions:
REMARK  status: ('A' for Active; 'I' for Inactive)
REMARK    1  A    between atoms: C_1  and  C_2
REMARK    2  A    between atoms: C_2  and  C_3
REMARK    3  A    between atoms: C_2  and  O_4
REMARK    4  A    between atoms: O_4  and  C_5
REMARK    5  A    between atoms: C_5  and  C_7
REMARK    6  A    between atoms: C_7  and  C_8
REMARK    7  A    between atoms: C_8  and  C_9
REMARK    8  A    between atoms: C_9  and  C_10
REMARK    9  A    between atoms: C_11  and  C_12
REMARK   10  A    between atoms: C_12  and  C_13
REMARK   11  A    between atoms: C_14  and  O_15
REMARK   12  A    between atoms: C_17  and  O_18
REMARK   13  A    between atoms: C_19  and  C_20
REMARK   14  A    between atoms: C_21  and  C_22
REMARK   15  A    between atoms: C_22  and  C_25
REMARK   16  A    between atoms: C_25  and  O_26
REMARK   17  A    between atoms: O_26  and  C_27
REMARK                            x       y       z     vdW  Elec       q    Type
REMARK                         _______ _______ _______ _____ _____    ______ ____
ROOT
ATOM      1  C   UNL     1      -9.130  -1.838 125.483  0.00  0.00    +0.000 C 
ATOM      2  C   UNL     1      -9.286  -3.210 124.797  0.00  0.00    +0.000 C 
ATOM      3  C   UNL     1      -7.879  -3.789 124.612  0.00  0.00    +0.000 C 
ATOM      4  C   UNL     1      -6.909  -2.783 125.231  0.00  0.00    +0.000 C 
ATOM      5  C   UNL     1      -7.760  -1.939 126.195  0.00  0.00    +0.000 C 
ENDROOT
BRANCH   2   6
ATOM      6  O   UNL     1      -9.966  -3.185 123.553  0.00  0.00    +0.000 OA
ATOM      7  H   UNL     1     -10.646  -3.882 123.545  0.00  0.00    +0.000 HD
ENDBRANCH   2   6
BRANCH   4   8
ATOM      8  O   UNL     1      -6.282  -1.974 124.240  0.00  0.00    +0.000 OA
ATOM      9  H   UNL     1      -6.330  -1.040 124.486  0.00  0.00    +0.000 HD
ENDBRANCH   4   8
BRANCH   5  10
ATOM     10  C   UNL     1      -7.897  -2.619 127.540  0.00  0.00    +0.000 C 
ATOM     11  C   UNL     1      -6.941  -2.572 128.483  0.00  0.00    +0.000 C 
BRANCH  11  12
ATOM     12  C   UNL     1      -7.073  -3.217 129.834  0.00  0.00    +0.000 C 
ATOM     13  F   UNL     1      -8.375  -3.556 130.046  0.00  0.00    +0.000 F 
ATOM     14  F   UNL     1      -6.367  -4.380 129.853  0.00  0.00    +0.000 F 
BRANCH  12  15
ATOM     15  C   UNL     1      -6.595  -2.300 130.964  0.00  0.00    +0.000 C 
BRANCH  15  16
ATOM     16  O   UNL     1      -5.730  -3.036 131.836  0.00  0.00    +0.000 OA
BRANCH  16  17
ATOM     17  C   UNL     1      -6.364  -3.692 132.852  0.00  0.00    +0.000 A 
ATOM     18  C   UNL     1      -7.508  -3.073 133.355  0.00  0.00    +0.000 A 
ATOM     19  C   UNL     1      -8.156  -3.597 134.472  0.00  0.00    +0.000 A 
ATOM     20  C   UNL     1      -7.695  -4.777 135.052  0.00  0.00    +0.000 A 
ATOM     21  C   UNL     1      -6.550  -5.396 134.552  0.00  0.00    +0.000 A 
ATOM     22  C   UNL     1      -5.872  -4.845 133.462  0.00  0.00    +0.000 A 
ENDBRANCH  16  17
ENDBRANCH  15  16
ENDBRANCH  12  15
ENDBRANCH  11  12
ENDBRANCH   5  10
BRANCH   1  23
ATOM     23  C   UNL     1      -9.213  -0.642 124.536  0.00  0.00    +0.000 C 
BRANCH  23  25
ATOM     24  C   UNL     1      -9.321   1.837 124.610  0.00  0.00    +0.000 C 
ATOM     25  C   UNL     1      -9.219   0.672 125.261  0.00  0.00    +0.000 C 
BRANCH  24  26
ATOM     26  C   UNL     1      -9.373   1.905 123.110  0.00  0.00    +0.000 C 
BRANCH  26  27
ATOM     27  C   UNL     1      -8.439   2.967 122.572  0.00  0.00    +0.000 C 
BRANCH  27  28
ATOM     28  C   UNL     1      -6.969   2.616 122.820  0.00  0.00    +0.000 C 
BRANCH  28  29
ATOM     29  C   UNL     1      -6.104   3.640 122.130  0.00  0.00    +0.000 C 
ATOM     30  O   UNL     1      -5.467   4.502 122.736  0.00  0.00    +0.000 OA
BRANCH  29  31
ATOM     31  O   UNL     1      -6.109   3.494 120.775  0.00  0.00    +0.000 OA
BRANCH  31  33
ATOM     32  C   UNL     1      -5.412   5.314 119.328  0.00  0.00    +0.000 C 
ATOM     33  C   UNL     1      -6.589   4.645 120.038  0.00  0.00    +0.000 C 
ATOM     34  C   UNL     1      -7.618   4.232 118.984  0.00  0.00    +0.000 C 
ENDBRANCH  31  33
ENDBRANCH  29  31
ENDBRANCH  28  29
ENDBRANCH  27  28
ENDBRANCH  26  27
ENDBRANCH  24  26
ENDBRANCH  23  25
ENDBRANCH   1  23
TORSDOF 15
ENDMDL
MODEL 6
REMARK VINA RESULT:      -7.1      4.645      7.230
REMARK  Name = Tafluprost
REMARK  17 active torsions:
REMARK  status: ('A' for Active; 'I' for Inactive)
REMARK    1  A    between atoms: C_1  and  C_2
REMARK    2  A    between atoms: C_2  and  C_3
REMARK    3  A    between atoms: C_2  and  O_4
REMARK    4  A    between atoms: O_4  and  C_5
REMARK    5  A    between atoms: C_5  and  C_7
REMARK    6  A    between atoms: C_7  and  C_8
REMARK    7  A    between atoms: C_8  and  C_9
REMARK    8  A    between atoms: C_9  and  C_10
REMARK    9  A    between atoms: C_11  and  C_12
REMARK   10  A    between atoms: C_12  and  C_13
REMARK   11  A    between atoms: C_14  and  O_15
REMARK   12  A    between atoms: C_17  and  O_18
REMARK   13  A    between atoms: C_19  and  C_20
REMARK   14  A    between atoms: C_21  and  C_22
REMARK   15  A    between atoms: C_22  and  C_25
REMARK   16  A    between atoms: C_25  and  O_26
REMARK   17  A    between atoms: O_26  and  C_27
REMARK                            x       y       z     vdW  Elec       q    Type
REMARK                         _______ _______ _______ _____ _____    ______ ____
ROOT
ATOM      1  C   UNL     1      -7.502  -0.967 129.358  0.00  0.00    +0.000 C 
ATOM      2  C   UNL     1      -6.328  -0.990 130.357  0.00  0.00    +0.000 C 
ATOM      3  C   UNL     1      -5.418   0.195 130.018  0.00  0.00    +0.000 C 
ATOM      4  C   UNL     1      -6.083   0.936 128.858  0.00  0.00    +0.000 C 
ATOM      5  C   UNL     1      -7.560   0.508 128.896  0.00  0.00    +0.000 C 
ENDROOT
BRANCH   2   6
ATOM      6  O   UNL     1      -5.574  -2.191 130.369  0.00  0.00    +0.000 OA
ATOM      7  H   UNL     1      -4.978  -2.204 129.601  0.00  0.00    +0.000 HD
ENDBRANCH   2   6
BRANCH   4   8
ATOM      8  O   UNL     1      -5.475   0.617 127.609  0.00  0.00    +0.000 OA
ATOM      9  H   UNL     1      -6.103   0.152 127.038  0.00  0.00    +0.000 HD
ENDBRANCH   4   8
BRANCH   5  10
ATOM     10  C   UNL     1      -8.348   1.353 129.873  0.00  0.00    +0.000 C 
ATOM     11  C   UNL     1      -9.031   2.450 129.505  0.00  0.00    +0.000 C 
BRANCH  11  12
ATOM     12  C   UNL     1      -9.842   3.282 130.458  0.00  0.00    +0.000 C 
ATOM     13  F   UNL     1     -11.166   3.119 130.185  0.00  0.00    +0.000 F 
ATOM     14  F   UNL     1      -9.654   2.830 131.728  0.00  0.00    +0.000 F 
BRANCH  12  15
ATOM     15  C   UNL     1      -9.484   4.770 130.378  0.00  0.00    +0.000 C 
BRANCH  15  16
ATOM     16  O   UNL     1     -10.626   5.551 130.746  0.00  0.00    +0.000 OA
BRANCH  16  17
ATOM     17  C   UNL     1     -11.093   6.380 129.767  0.00  0.00    +0.000 A 
ATOM     18  C   UNL     1     -10.233   7.406 129.377  0.00  0.00    +0.000 A 
ATOM     19  C   UNL     1     -10.663   8.377 128.474  0.00  0.00    +0.000 A 
ATOM     20  C   UNL     1     -11.937   8.290 127.915  0.00  0.00    +0.000 A 
ATOM     21  C   UNL     1     -12.799   7.266 128.305  0.00  0.00    +0.000 A 
ATOM     22  C   UNL     1     -12.385   6.319 129.245  0.00  0.00    +0.000 A 
ENDBRANCH  16  17
ENDBRANCH  15  16
ENDBRANCH  12  15
ENDBRANCH  11  12
ENDBRANCH   5  10
BRANCH   1  23
ATOM     23  C   UNL     1      -7.362  -1.943 128.191  0.00  0.00    +0.000 C 
BRANCH  23  25
ATOM     24  C   UNL     1      -9.020  -3.635 127.446  0.00  0.00    +0.000 C 
ATOM     25  C   UNL     1      -8.171  -3.194 128.382  0.00  0.00    +0.000 C 
BRANCH  24  26
ATOM     26  C   UNL     1      -9.262  -2.873 126.174  0.00  0.00    +0.000 C 
BRANCH  26  27
ATOM     27  C   UNL     1      -8.613  -3.555 124.989  0.00  0.00    +0.000 C 
BRANCH  27  28
ATOM     28  C   UNL     1      -9.277  -3.161 123.667  0.00  0.00    +0.000 C 
BRANCH  28  29
ATOM     29  C   UNL     1      -8.746  -1.815 123.242  0.00  0.00    +0.000 C 
ATOM     30  O   UNL     1      -7.625  -1.656 122.760  0.00  0.00    +0.000 OA
BRANCH  29  31
ATOM     31  O   UNL     1      -9.648  -0.813 123.449  0.00  0.00    +0.000 OA
BRANCH  31  33
ATOM     32  C   UNL     1      -9.593   1.597 123.168  0.00  0.00    +0.000 C 
ATOM     33  C   UNL     1      -9.090   0.409 123.989  0.00  0.00    +0.000 C 
ATOM     34  C   UNL     1      -9.516   0.613 125.443  0.00  0.00    +0.000 C 
ENDBRANCH  31  33
ENDBRANCH  29  31
ENDBRANCH  28  29
ENDBRANCH  27  28
ENDBRANCH  26  27
ENDBRANCH  24  26
ENDBRANCH  23  25
ENDBRANCH   1  23
TORSDOF 15
ENDMDL
MODEL 7
REMARK VINA RESULT:      -7.1      4.639      7.722
REMARK  Name = Tafluprost
REMARK  17 active torsions:
REMARK  status: ('A' for Active; 'I' for Inactive)
REMARK    1  A    between atoms: C_1  and  C_2
REMARK    2  A    between atoms: C_2  and  C_3
REMARK    3  A    between atoms: C_2  and  O_4
REMARK    4  A    between atoms: O_4  and  C_5
REMARK    5  A    between atoms: C_5  and  C_7
REMARK    6  A    between atoms: C_7  and  C_8
REMARK    7  A    between atoms: C_8  and  C_9
REMARK    8  A    between atoms: C_9  and  C_10
REMARK    9  A    between atoms: C_11  and  C_12
REMARK   10  A    between atoms: C_12  and  C_13
REMARK   11  A    between atoms: C_14  and  O_15
REMARK   12  A    between atoms: C_17  and  O_18
REMARK   13  A    between atoms: C_19  and  C_20
REMARK   14  A    between atoms: C_21  and  C_22
REMARK   15  A    between atoms: C_22  and  C_25
REMARK   16  A    between atoms: C_25  and  O_26
REMARK   17  A    between atoms: O_26  and  C_27
REMARK                            x       y       z     vdW  Elec       q    Type
REMARK                         _______ _______ _______ _____ _____    ______ ____
ROOT
ATOM      1  C   UNL     1      -6.941   0.936 128.190  0.00  0.00    +0.000 C 
ATOM      2  C   UNL     1      -5.660   0.309 127.605  0.00  0.00    +0.000 C 
ATOM      3  C   UNL     1      -6.026  -1.093 127.105  0.00  0.00    +0.000 C 
ATOM      4  C   UNL     1      -7.524  -1.266 127.353  0.00  0.00    +0.000 C 
ATOM      5  C   UNL     1      -8.081   0.162 127.486  0.00  0.00    +0.000 C 
ENDROOT
BRANCH   2   6
ATOM      6  O   UNL     1      -4.565   0.233 128.502  0.00  0.00    +0.000 OA
ATOM      7  H   UNL     1      -3.799   0.689 128.114  0.00  0.00    +0.000 HD
ENDBRANCH   2   6
BRANCH   4   8
ATOM      8  O   UNL     1      -7.781  -2.041 128.521  0.00  0.00    +0.000 OA
ATOM      9  H   UNL     1      -7.087  -2.703 128.646  0.00  0.00    +0.000 HD
ENDBRANCH   4   8
BRANCH   5  10
ATOM     10  C   UNL     1      -8.384   0.758 126.129  0.00  0.00    +0.000 C 
ATOM     11  C   UNL     1      -9.606   0.717 125.570  0.00  0.00    +0.000 C 
BRANCH  11  12
ATOM     12  C   UNL     1      -9.930   1.330 124.237  0.00  0.00    +0.000 C 
ATOM     13  F   UNL     1     -11.282   1.409 124.094  0.00  0.00    +0.000 F 
ATOM     14  F   UNL     1      -9.465   2.609 124.201  0.00  0.00    +0.000 F 
BRANCH  12  15
ATOM     15  C   UNL     1      -9.340   0.530 123.072  0.00  0.00    +0.000 C 
BRANCH  15  16
ATOM     16  O   UNL     1      -9.788  -0.827 123.155  0.00  0.00    +0.000 OA
BRANCH  16  17
ATOM     17  C   UNL     1      -8.848  -1.715 123.594  0.00  0.00    +0.000 A 
ATOM     18  C   UNL     1      -7.532  -1.434 123.234  0.00  0.00    +0.000 A 
ATOM     19  C   UNL     1      -6.514  -2.342 123.526  0.00  0.00    +0.000 A 
ATOM     20  C   UNL     1      -6.806  -3.507 124.233  0.00  0.00    +0.000 A 
ATOM     21  C   UNL     1      -8.123  -3.791 124.591  0.00  0.00    +0.000 A 
ATOM     22  C   UNL     1      -9.149  -2.905 124.257  0.00  0.00    +0.000 A 
ENDBRANCH  16  17
ENDBRANCH  15  16
ENDBRANCH  12  15
ENDBRANCH  11  12
ENDBRANCH   5  10
BRANCH   1  23
ATOM     23  C   UNL     1      -7.040   0.871 129.713  0.00  0.00    +0.000 C 
BRANCH  23  25
ATOM     24  C   UNL     1      -8.850   2.304 130.629  0.00  0.00    +0.000 C 
ATOM     25  C   UNL     1      -8.437   1.100 130.213  0.00  0.00    +0.000 C 
BRANCH  24  26
ATOM     26  C   UNL     1      -7.924   3.485 130.680  0.00  0.00    +0.000 C 
BRANCH  26  27
ATOM     27  C   UNL     1      -8.467   4.648 129.878  0.00  0.00    +0.000 C 
BRANCH  27  28
ATOM     28  C   UNL     1      -9.941   4.919 130.189  0.00  0.00    +0.000 C 
BRANCH  28  29
ATOM     29  C   UNL     1     -10.419   6.051 129.315  0.00  0.00    +0.000 C 
ATOM     30  O   UNL     1      -9.659   6.871 128.801  0.00  0.00    +0.000 OA
BRANCH  29  31
ATOM     31  O   UNL     1     -11.774   6.052 129.163  0.00  0.00    +0.000 OA
BRANCH  31  33
ATOM     32  C   UNL     1     -13.652   7.053 127.997  0.00  0.00    +0.000 C 
ATOM     33  C   UNL     1     -12.341   7.315 128.739  0.00  0.00    +0.000 C 
ATOM     34  C   UNL     1     -12.637   8.215 129.939  0.00  0.00    +0.000 C 
ENDBRANCH  31  33
ENDBRANCH  29  31
ENDBRANCH  28  29
ENDBRANCH  27  28
ENDBRANCH  26  27
ENDBRANCH  24  26
ENDBRANCH  23  25
ENDBRANCH   1  23
TORSDOF 15
ENDMDL
MODEL 8
REMARK VINA RESULT:      -7.0      4.936      7.258
REMARK  Name = Tafluprost
REMARK  17 active torsions:
REMARK  status: ('A' for Active; 'I' for Inactive)
REMARK    1  A    between atoms: C_1  and  C_2
REMARK    2  A    between atoms: C_2  and  C_3
REMARK    3  A    between atoms: C_2  and  O_4
REMARK    4  A    between atoms: O_4  and  C_5
REMARK    5  A    between atoms: C_5  and  C_7
REMARK    6  A    between atoms: C_7  and  C_8
REMARK    7  A    between atoms: C_8  and  C_9
REMARK    8  A    between atoms: C_9  and  C_10
REMARK    9  A    between atoms: C_11  and  C_12
REMARK   10  A    between atoms: C_12  and  C_13
REMARK   11  A    between atoms: C_14  and  O_15
REMARK   12  A    between atoms: C_17  and  O_18
REMARK   13  A    between atoms: C_19  and  C_20
REMARK   14  A    between atoms: C_21  and  C_22
REMARK   15  A    between atoms: C_22  and  C_25
REMARK   16  A    between atoms: C_25  and  O_26
REMARK   17  A    between atoms: O_26  and  C_27
REMARK                            x       y       z     vdW  Elec       q    Type
REMARK                         _______ _______ _______ _____ _____    ______ ____
ROOT
ATOM      1  C   UNL     1      -6.835  -0.193 130.170  0.00  0.00    +0.000 C 
ATOM      2  C   UNL     1      -5.606   0.733 130.271  0.00  0.00    +0.000 C 
ATOM      3  C   UNL     1      -5.688   1.727 129.108  0.00  0.00    +0.000 C 
ATOM      4  C   UNL     1      -6.983   1.414 128.359  0.00  0.00    +0.000 C 
ATOM      5  C   UNL     1      -7.856   0.642 129.362  0.00  0.00    +0.000 C 
ENDROOT
BRANCH   2   6
ATOM      6  O   UNL     1      -4.353   0.071 130.256  0.00  0.00    +0.000 OA
ATOM      7  H   UNL     1      -4.413  -0.742 130.786  0.00  0.00    +0.000 HD
ENDBRANCH   2   6
BRANCH   4   8
ATOM      8  O   UNL     1      -6.741   0.654 127.178  0.00  0.00    +0.000 OA
ATOM      9  H   UNL     1      -5.845   0.815 126.851  0.00  0.00    +0.000 HD
ENDBRANCH   4   8
BRANCH   5  10
ATOM     10  C   UNL     1      -8.618   1.587 130.264  0.00  0.00    +0.000 C 
ATOM     11  C   UNL     1      -9.313   2.640 129.799  0.00  0.00    +0.000 C 
BRANCH  11  12
ATOM     12  C   UNL     1     -10.099   3.571 130.679  0.00  0.00    +0.000 C 
ATOM     13  F   UNL     1     -11.428   3.416 130.426  0.00  0.00    +0.000 F 
ATOM     14  F   UNL     1      -9.914   3.227 131.983  0.00  0.00    +0.000 F 
BRANCH  12  15
ATOM     15  C   UNL     1      -9.707   5.037 130.467  0.00  0.00    +0.000 C 
BRANCH  15  16
ATOM     16  O   UNL     1     -10.283   5.508 129.244  0.00  0.00    +0.000 OA
BRANCH  16  17
ATOM     17  C   UNL     1     -11.145   6.558 129.384  0.00  0.00    +0.000 A 
ATOM     18  C   UNL     1     -11.120   7.504 128.360  0.00  0.00    +0.000 A 
ATOM     19  C   UNL     1     -11.871   8.674 128.467  0.00  0.00    +0.000 A 
ATOM     20  C   UNL     1     -12.694   8.872 129.575  0.00  0.00    +0.000 A 
ATOM     21  C   UNL     1     -12.717   7.929 130.601  0.00  0.00    +0.000 A 
ATOM     22  C   UNL     1     -11.929   6.778 130.516  0.00  0.00    +0.000 A 
ENDBRANCH  16  17
ENDBRANCH  15  16
ENDBRANCH  12  15
ENDBRANCH  11  12
ENDBRANCH   5  10
BRANCH   1  23
ATOM     23  C   UNL     1      -6.553  -1.553 129.534  0.00  0.00    +0.000 C 
BRANCH  23  25
ATOM     24  C   UNL     1      -8.279  -3.173 128.784  0.00  0.00    +0.000 C 
ATOM     25  C   UNL     1      -7.647  -2.549 129.787  0.00  0.00    +0.000 C 
BRANCH  24  26
ATOM     26  C   UNL     1      -7.976  -2.868 127.345  0.00  0.00    +0.000 C 
BRANCH  26  27
ATOM     27  C   UNL     1      -9.085  -3.348 126.433  0.00  0.00    +0.000 C 
BRANCH  27  28
ATOM     28  C   UNL     1      -8.552  -3.789 125.068  0.00  0.00    +0.000 C 
BRANCH  28  29
ATOM     29  C   UNL     1      -8.844  -2.705 124.061  0.00  0.00    +0.000 C 
ATOM     30  O   UNL     1      -9.869  -2.679 123.380  0.00  0.00    +0.000 OA
BRANCH  29  31
ATOM     31  O   UNL     1      -7.853  -1.771 124.002  0.00  0.00    +0.000 OA
BRANCH  31  33
ATOM     32  C   UNL     1      -6.036  -2.030 122.415  0.00  0.00    +0.000 C 
ATOM     33  C   UNL     1      -6.518  -2.306 123.839  0.00  0.00    +0.000 C 
ATOM     34  C   UNL     1      -5.540  -1.651 124.815  0.00  0.00    +0.000 C 
ENDBRANCH  31  33
ENDBRANCH  29  31
ENDBRANCH  28  29
ENDBRANCH  27  28
ENDBRANCH  26  27
ENDBRANCH  24  26
ENDBRANCH  23  25
ENDBRANCH   1  23
TORSDOF 15
ENDMDL
MODEL 9
REMARK VINA RESULT:      -7.0      5.717      9.517
REMARK  Name = Tafluprost
REMARK  17 active torsions:
REMARK  status: ('A' for Active; 'I' for Inactive)
REMARK    1  A    between atoms: C_1  and  C_2
REMARK    2  A    between atoms: C_2  and  C_3
REMARK    3  A    between atoms: C_2  and  O_4
REMARK    4  A    between atoms: O_4  and  C_5
REMARK    5  A    between atoms: C_5  and  C_7
REMARK    6  A    between atoms: C_7  and  C_8
REMARK    7  A    between atoms: C_8  and  C_9
REMARK    8  A    between atoms: C_9  and  C_10
REMARK    9  A    between atoms: C_11  and  C_12
REMARK   10  A    between atoms: C_12  and  C_13
REMARK   11  A    between atoms: C_14  and  O_15
REMARK   12  A    between atoms: C_17  and  O_18
REMARK   13  A    between atoms: C_19  and  C_20
REMARK   14  A    between atoms: C_21  and  C_22
REMARK   15  A    between atoms: C_22  and  C_25
REMARK   16  A    between atoms: C_25  and  O_26
REMARK   17  A    between atoms: O_26  and  C_27
REMARK                            x       y       z     vdW  Elec       q    Type
REMARK                         _______ _______ _______ _____ _____    ______ ____
ROOT
ATOM      1  C   UNL     1      -7.703   2.895 131.240  0.00  0.00    +0.000 C 
ATOM      2  C   UNL     1      -8.229   1.690 132.045  0.00  0.00    +0.000 C 
ATOM      3  C   UNL     1      -9.755   1.679 131.901  0.00  0.00    +0.000 C 
ATOM      4  C   UNL     1     -10.114   2.843 130.979  0.00  0.00    +0.000 C 
ATOM      5  C   UNL     1      -8.822   3.163 130.207  0.00  0.00    +0.000 C 
ENDROOT
BRANCH   2   6
ATOM      6  O   UNL     1      -7.871   1.681 133.416  0.00  0.00    +0.000 OA
ATOM      7  H   UNL     1      -8.243   0.888 133.840  0.00  0.00    +0.000 HD
ENDBRANCH   2   6
BRANCH   4   8
ATOM      8  O   UNL     1     -10.582   3.973 131.710  0.00  0.00    +0.000 OA
ATOM      9  H   UNL     1     -10.421   4.787 131.213  0.00  0.00    +0.000 HD
ENDBRANCH   4   8
BRANCH   5  10
ATOM     10  C   UNL     1      -8.672   2.265 128.999  0.00  0.00    +0.000 C 
ATOM     11  C   UNL     1      -7.788   2.506 128.015  0.00  0.00    +0.000 C 
BRANCH  11  12
ATOM     12  C   UNL     1      -7.606   1.608 126.824  0.00  0.00    +0.000 C 
ATOM     13  F   UNL     1      -7.059   2.322 125.801  0.00  0.00    +0.000 F 
ATOM     14  F   UNL     1      -6.713   0.627 127.127  0.00  0.00    +0.000 F 
BRANCH  12  15
ATOM     15  C   UNL     1      -8.926   0.984 126.361  0.00  0.00    +0.000 C 
BRANCH  15  16
ATOM     16  O   UNL     1      -8.806   0.585 124.991  0.00  0.00    +0.000 OA
BRANCH  16  17
ATOM     17  C   UNL     1      -8.874  -0.762 124.779  0.00  0.00    +0.000 A 
ATOM     18  C   UNL     1      -8.831  -1.170 123.446  0.00  0.00    +0.000 A 
ATOM     19  C   UNL     1      -9.018  -2.512 123.117  0.00  0.00    +0.000 A 
ATOM     20  C   UNL     1      -9.190  -3.458 124.126  0.00  0.00    +0.000 A 
ATOM     21  C   UNL     1      -9.237  -3.051 125.459  0.00  0.00    +0.000 A 
ATOM     22  C   UNL     1      -9.096  -1.700 125.787  0.00  0.00    +0.000 A 
ENDBRANCH  16  17
ENDBRANCH  15  16
ENDBRANCH  12  15
ENDBRANCH  11  12
ENDBRANCH   5  10
BRANCH   1  23
ATOM     23  C   UNL     1      -7.374   4.126 132.084  0.00  0.00    +0.000 C 
BRANCH  23  25
ATOM     24  C   UNL     1      -6.856   6.292 130.986  0.00  0.00    +0.000 C 
ATOM     25  C   UNL     1      -6.450   5.079 131.383  0.00  0.00    +0.000 C 
BRANCH  24  26
ATOM     26  C   UNL     1      -8.275   6.749 131.161  0.00  0.00    +0.000 C 
BRANCH  26  27
ATOM     27  C   UNL     1      -9.099   6.484 129.919  0.00  0.00    +0.000 C 
BRANCH  27  28
ATOM     28  C   UNL     1     -10.198   7.532 129.727  0.00  0.00    +0.000 C 
BRANCH  28  29
ATOM     29  C   UNL     1     -11.530   6.829 129.656  0.00  0.00    +0.000 C 
ATOM     30  O   UNL     1     -11.641   5.613 129.499  0.00  0.00    +0.000 OA
BRANCH  29  31
ATOM     31  O   UNL     1     -12.579   7.689 129.791  0.00  0.00    +0.000 OA
BRANCH  31  33
ATOM     32  C   UNL     1     -13.860   7.927 127.744  0.00  0.00    +0.000 C 
ATOM     33  C   UNL     1     -12.807   8.558 128.656  0.00  0.00    +0.000 C 
ATOM     34  C   UNL     1     -13.315   9.928 129.105  0.00  0.00    +0.000 C 
ENDBRANCH  31  33
ENDBRANCH  29  31
ENDBRANCH  28  29
ENDBRANCH  27  28
ENDBRANCH  26  27
ENDBRANCH  24  26
ENDBRANCH  23  25
ENDBRANCH   1  23
TORSDOF 15
ENDMDL
