MODEL 1
REMARK VINA RESULT:      -9.6      0.000      0.000
REMARK  Name = Talazoparib
REMARK  3 active torsions:
REMARK  status: ('A' for Active; 'I' for Inactive)
REMARK    1  A    between atoms: C_1  and  N_2
REMARK    2  A    between atoms: C_6  and  C_7
REMARK    3  A    between atoms: C_8  and  C_22
REMARK                            x       y       z     vdW  Elec       q    Type
REMARK                         _______ _______ _______ _____ _____    ______ ____
ROOT
ATOM      1  C   UNL     1      -7.725   2.339 124.130  0.00  0.00    +0.000 C 
ATOM      2  C   UNL     1      -8.777   2.334 123.022  0.00  0.00    +0.000 C 
ATOM      3  N   UNL     1      -9.363   1.068 122.658  0.00  0.00    +0.000 N 
ATOM      4  C   UNL     1      -9.017  -0.112 123.261  0.00  0.00    +0.000 A 
ATOM      5  C   UNL     1      -8.131  -0.168 124.342  0.00  0.00    +0.000 A 
ATOM      6  C   UNL     1      -7.535   1.062 124.908  0.00  0.00    +0.000 A 
ATOM      7  N   UNL     1      -6.674   1.030 125.883  0.00  0.00    +0.000 NA
ATOM      8  N   UNL     1      -6.304  -0.185 126.381  0.00  0.00    +0.000 N 
ATOM      9  C   UNL     1      -6.760  -1.408 125.957  0.00  0.00    +0.000 A 
ATOM     10  O   UNL     1      -6.372  -2.471 126.442  0.00  0.00    +0.000 OA
ATOM     11  C   UNL     1      -7.751  -1.393 124.879  0.00  0.00    +0.000 A 
ATOM     12  C   UNL     1      -8.290  -2.581 124.382  0.00  0.00    +0.000 A 
ATOM     13  C   UNL     1      -9.206  -2.521 123.344  0.00  0.00    +0.000 A 
ATOM     14  F   UNL     1      -9.755  -3.648 122.876  0.00  0.00    +0.000 F 
ATOM     15  C   UNL     1      -9.565  -1.304 122.778  0.00  0.00    +0.000 A 
ATOM     16  H   UNL     1      -9.998   1.071 121.865  0.00  0.00    +0.000 HD
ATOM     17  H   UNL     1      -5.567  -0.179 127.081  0.00  0.00    +0.000 HD
ENDROOT
BRANCH   2  18
ATOM     18  C   UNL     1      -8.155   2.953 121.791  0.00  0.00    +0.000 A 
ATOM     19  C   UNL     1      -8.974   3.522 120.813  0.00  0.00    +0.000 A 
ATOM     20  C   UNL     1      -8.392   4.182 119.738  0.00  0.00    +0.000 A 
ATOM     21  C   UNL     1      -7.006   4.289 119.660  0.00  0.00    +0.000 A 
ATOM     22  F   UNL     1      -6.456   4.928 118.621  0.00  0.00    +0.000 F 
ATOM     23  C   UNL     1      -6.179   3.746 120.632  0.00  0.00    +0.000 A 
ATOM     24  C   UNL     1      -6.753   3.060 121.689  0.00  0.00    +0.000 A 
ENDBRANCH   2  18
BRANCH   1  30
ATOM     25  C   UNL     1      -5.095   4.157 124.924  0.00  0.00    +0.000 C 
ATOM     26  N   UNL     1      -6.490   4.356 125.226  0.00  0.00    +0.000 N 
ATOM     27  N   UNL     1      -6.811   5.343 126.088  0.00  0.00    +0.000 NA
ATOM     28  C   UNL     1      -8.138   5.250 126.137  0.00  0.00    +0.000 A 
ATOM     29  N   UNL     1      -8.664   4.248 125.393  0.00  0.00    +0.000 NA
ATOM     30  C   UNL     1      -7.620   3.684 124.805  0.00  0.00    +0.000 A 
ENDBRANCH   1  30
TORSDOF 2
ENDMDL
MODEL 2
REMARK VINA RESULT:      -8.7      7.376     10.605
REMARK  Name = Talazoparib
REMARK  3 active torsions:
REMARK  status: ('A' for Active; 'I' for Inactive)
REMARK    1  A    between atoms: C_1  and  N_2
REMARK    2  A    between atoms: C_6  and  C_7
REMARK    3  A    between atoms: C_8  and  C_22
REMARK                            x       y       z     vdW  Elec       q    Type
REMARK                         _______ _______ _______ _____ _____    ______ ____
ROOT
ATOM      1  C   UNL     1      -9.276   4.735 130.340  0.00  0.00    +0.000 C 
ATOM      2  C   UNL     1      -9.941   4.726 131.716  0.00  0.00    +0.000 C 
ATOM      3  N   UNL     1     -10.976   5.699 131.968  0.00  0.00    +0.000 N 
ATOM      4  C   UNL     1     -11.376   6.616 131.033  0.00  0.00    +0.000 A 
ATOM      5  C   UNL     1     -10.876   6.622 129.728  0.00  0.00    +0.000 A 
ATOM      6  C   UNL     1      -9.893   5.610 129.279  0.00  0.00    +0.000 A 
ATOM      7  N   UNL     1      -9.380   5.624 128.084  0.00  0.00    +0.000 NA
ATOM      8  N   UNL     1      -9.756   6.619 127.229  0.00  0.00    +0.000 N 
ATOM      9  C   UNL     1     -10.646   7.628 127.501  0.00  0.00    +0.000 A 
ATOM     10  O   UNL     1     -10.930   8.505 126.685  0.00  0.00    +0.000 OA
ATOM     11  C   UNL     1     -11.256   7.614 128.832  0.00  0.00    +0.000 A 
ATOM     12  C   UNL     1     -12.185   8.588 129.206  0.00  0.00    +0.000 A 
ATOM     13  C   UNL     1     -12.717   8.551 130.485  0.00  0.00    +0.000 A 
ATOM     14  F   UNL     1     -13.631   9.459 130.850  0.00  0.00    +0.000 F 
ATOM     15  C   UNL     1     -12.317   7.584 131.398  0.00  0.00    +0.000 A 
ATOM     16  H   UNL     1     -11.348   5.732 132.913  0.00  0.00    +0.000 HD
ATOM     17  H   UNL     1      -9.272   6.650 126.335  0.00  0.00    +0.000 HD
ENDROOT
BRANCH   2  18
ATOM     18  C   UNL     1      -8.857   4.889 132.756  0.00  0.00    +0.000 A 
ATOM     19  C   UNL     1      -8.736   3.950 133.783  0.00  0.00    +0.000 A 
ATOM     20  C   UNL     1      -7.672   4.048 134.671  0.00  0.00    +0.000 A 
ATOM     21  C   UNL     1      -6.731   5.062 134.516  0.00  0.00    +0.000 A 
ATOM     22  F   UNL     1      -5.711   5.146 135.376  0.00  0.00    +0.000 F 
ATOM     23  C   UNL     1      -6.827   5.990 133.490  0.00  0.00    +0.000 A 
ATOM     24  C   UNL     1      -7.901   5.917 132.621  0.00  0.00    +0.000 A 
ENDBRANCH   2  18
BRANCH   1  30
ATOM     25  C   UNL     1      -6.180   3.630 130.556  0.00  0.00    +0.000 C 
ATOM     26  N   UNL     1      -7.352   3.013 129.986  0.00  0.00    +0.000 N 
ATOM     27  N   UNL     1      -7.183   1.870 129.289  0.00  0.00    +0.000 NA
ATOM     28  C   UNL     1      -8.428   1.583 128.918  0.00  0.00    +0.000 A 
ATOM     29  N   UNL     1      -9.358   2.490 129.303  0.00  0.00    +0.000 NA
ATOM     30  C   UNL     1      -8.678   3.394 129.992  0.00  0.00    +0.000 A 
ENDBRANCH   1  30
TORSDOF 2
ENDMDL
MODEL 3
REMARK VINA RESULT:      -8.3      4.834      7.296
REMARK  Name = Talazoparib
REMARK  3 active torsions:
REMARK  status: ('A' for Active; 'I' for Inactive)
REMARK    1  A    between atoms: C_1  and  N_2
REMARK    2  A    between atoms: C_6  and  C_7
REMARK    3  A    between atoms: C_8  and  C_22
REMARK                            x       y       z     vdW  Elec       q    Type
REMARK                         _______ _______ _______ _____ _____    ______ ____
ROOT
ATOM      1  C   UNL     1      -7.193   1.426 128.632  0.00  0.00    +0.000 C 
ATOM      2  C   UNL     1      -6.864   0.634 129.896  0.00  0.00    +0.000 C 
ATOM      3  N   UNL     1      -7.127  -0.784 129.889  0.00  0.00    +0.000 N 
ATOM      4  C   UNL     1      -7.651  -1.436 128.804  0.00  0.00    +0.000 A 
ATOM      5  C   UNL     1      -7.889  -0.792 127.586  0.00  0.00    +0.000 A 
ATOM      6  C   UNL     1      -7.561   0.639 127.400  0.00  0.00    +0.000 A 
ATOM      7  N   UNL     1      -7.816   1.270 126.291  0.00  0.00    +0.000 NA
ATOM      8  N   UNL     1      -8.422   0.583 125.279  0.00  0.00    +0.000 N 
ATOM      9  C   UNL     1      -8.793  -0.737 125.305  0.00  0.00    +0.000 A 
ATOM     10  O   UNL     1      -9.351  -1.293 124.359  0.00  0.00    +0.000 OA
ATOM     11  C   UNL     1      -8.489  -1.474 126.534  0.00  0.00    +0.000 A 
ATOM     12  C   UNL     1      -8.813  -2.826 126.659  0.00  0.00    +0.000 A 
ATOM     13  C   UNL     1      -8.531  -3.476 127.850  0.00  0.00    +0.000 A 
ATOM     14  F   UNL     1      -8.807  -4.780 127.978  0.00  0.00    +0.000 F 
ATOM     15  C   UNL     1      -7.964  -2.794 128.919  0.00  0.00    +0.000 A 
ATOM     16  H   UNL     1      -6.980  -1.279 130.763  0.00  0.00    +0.000 HD
ATOM     17  H   UNL     1      -8.685   1.127 124.461  0.00  0.00    +0.000 HD
ENDROOT
BRANCH   2  18
ATOM     18  C   UNL     1      -7.621   1.261 131.045  0.00  0.00    +0.000 A 
ATOM     19  C   UNL     1      -6.918   1.887 132.078  0.00  0.00    +0.000 A 
ATOM     20  C   UNL     1      -7.622   2.553 133.073  0.00  0.00    +0.000 A 
ATOM     21  C   UNL     1      -9.012   2.608 133.019  0.00  0.00    +0.000 A 
ATOM     22  F   UNL     1      -9.680   3.252 133.982  0.00  0.00    +0.000 F 
ATOM     23  C   UNL     1      -9.724   2.008 131.990  0.00  0.00    +0.000 A 
ATOM     24  C   UNL     1      -9.029   1.316 131.013  0.00  0.00    +0.000 A 
ENDBRANCH   2  18
BRANCH   1  30
ATOM     25  C   UNL     1      -8.000   4.558 129.256  0.00  0.00    +0.000 C 
ATOM     26  N   UNL     1      -6.797   4.001 128.689  0.00  0.00    +0.000 N 
ATOM     27  N   UNL     1      -5.887   4.859 128.181  0.00  0.00    +0.000 NA
ATOM     28  C   UNL     1      -4.934   4.034 127.756  0.00  0.00    +0.000 A 
ATOM     29  N   UNL     1      -5.203   2.717 127.929  0.00  0.00    +0.000 NA
ATOM     30  C   UNL     1      -6.382   2.694 128.532  0.00  0.00    +0.000 A 
ENDBRANCH   1  30
TORSDOF 2
ENDMDL
MODEL 4
REMARK VINA RESULT:      -8.3      4.011      7.440
REMARK  Name = Talazoparib
REMARK  3 active torsions:
REMARK  status: ('A' for Active; 'I' for Inactive)
REMARK    1  A    between atoms: C_1  and  N_2
REMARK    2  A    between atoms: C_6  and  C_7
REMARK    3  A    between atoms: C_8  and  C_22
REMARK                            x       y       z     vdW  Elec       q    Type
REMARK                         _______ _______ _______ _____ _____    ______ ____
ROOT
ATOM      1  C   UNL     1      -6.841  -0.189 128.100  0.00  0.00    +0.000 C 
ATOM      2  C   UNL     1      -5.514  -0.930 127.941  0.00  0.00    +0.000 C 
ATOM      3  N   UNL     1      -5.162  -1.405 126.625  0.00  0.00    +0.000 N 
ATOM      4  C   UNL     1      -5.963  -1.218 125.530  0.00  0.00    +0.000 A 
ATOM      5  C   UNL     1      -7.144  -0.471 125.585  0.00  0.00    +0.000 A 
ATOM      6  C   UNL     1      -7.581   0.180 126.840  0.00  0.00    +0.000 A 
ATOM      7  N   UNL     1      -8.699   0.841 126.925  0.00  0.00    +0.000 NA
ATOM      8  N   UNL     1      -9.495   0.914 125.819  0.00  0.00    +0.000 N 
ATOM      9  C   UNL     1      -9.231   0.357 124.593  0.00  0.00    +0.000 A 
ATOM     10  O   UNL     1     -10.002   0.450 123.638  0.00  0.00    +0.000 OA
ATOM     11  C   UNL     1      -7.964  -0.367 124.467  0.00  0.00    +0.000 A 
ATOM     12  C   UNL     1      -7.593  -0.960 123.259  0.00  0.00    +0.000 A 
ATOM     13  C   UNL     1      -6.398  -1.657 123.193  0.00  0.00    +0.000 A 
ATOM     14  F   UNL     1      -6.012  -2.206 122.035  0.00  0.00    +0.000 F 
ATOM     15  C   UNL     1      -5.589  -1.797 124.314  0.00  0.00    +0.000 A 
ATOM     16  H   UNL     1      -4.318  -1.965 126.554  0.00  0.00    +0.000 HD
ATOM     17  H   UNL     1     -10.398   1.362 125.945  0.00  0.00    +0.000 HD
ENDROOT
BRANCH   2  18
ATOM     18  C   UNL     1      -5.521  -2.103 128.894  0.00  0.00    +0.000 A 
ATOM     19  C   UNL     1      -6.685  -2.858 129.056  0.00  0.00    +0.000 A 
ATOM     20  C   UNL     1      -6.651  -3.996 129.851  0.00  0.00    +0.000 A 
ATOM     21  C   UNL     1      -5.459  -4.383 130.457  0.00  0.00    +0.000 A 
ATOM     22  F   UNL     1      -5.439  -5.482 131.220  0.00  0.00    +0.000 F 
ATOM     23  C   UNL     1      -4.290  -3.655 130.291  0.00  0.00    +0.000 A 
ATOM     24  C   UNL     1      -4.325  -2.503 129.526  0.00  0.00    +0.000 A 
ENDBRANCH   2  18
BRANCH   1  30
ATOM     25  C   UNL     1      -8.429  -0.395 130.979  0.00  0.00    +0.000 C 
ATOM     26  N   UNL     1      -7.612   0.663 130.439  0.00  0.00    +0.000 N 
ATOM     27  N   UNL     1      -7.579   1.834 131.108  0.00  0.00    +0.000 NA
ATOM     28  C   UNL     1      -6.756   2.562 130.357  0.00  0.00    +0.000 A 
ATOM     29  N   UNL     1      -6.304   1.938 129.243  0.00  0.00    +0.000 NA
ATOM     30  C   UNL     1      -6.838   0.727 129.298  0.00  0.00    +0.000 A 
ENDBRANCH   1  30
TORSDOF 2
ENDMDL
MODEL 5
REMARK VINA RESULT:      -8.2      3.869      6.323
REMARK  Name = Talazoparib
REMARK  3 active torsions:
REMARK  status: ('A' for Active; 'I' for Inactive)
REMARK    1  A    between atoms: C_1  and  N_2
REMARK    2  A    between atoms: C_6  and  C_7
REMARK    3  A    between atoms: C_8  and  C_22
REMARK                            x       y       z     vdW  Elec       q    Type
REMARK                         _______ _______ _______ _____ _____    ______ ____
ROOT
ATOM      1  C   UNL     1      -8.025  -0.289 126.592  0.00  0.00    +0.000 C 
ATOM      2  C   UNL     1      -8.163  -1.804 126.448  0.00  0.00    +0.000 C 
ATOM      3  N   UNL     1      -8.082  -2.603 127.646  0.00  0.00    +0.000 N 
ATOM      4  C   UNL     1      -7.889  -2.060 128.889  0.00  0.00    +0.000 A 
ATOM      5  C   UNL     1      -7.846  -0.680 129.104  0.00  0.00    +0.000 A 
ATOM      6  C   UNL     1      -8.031   0.276 127.990  0.00  0.00    +0.000 A 
ATOM      7  N   UNL     1      -7.949   1.563 128.159  0.00  0.00    +0.000 NA
ATOM      8  N   UNL     1      -7.665   2.036 129.407  0.00  0.00    +0.000 N 
ATOM      9  C   UNL     1      -7.460   1.279 130.533  0.00  0.00    +0.000 A 
ATOM     10  O   UNL     1      -7.193   1.771 131.629  0.00  0.00    +0.000 OA
ATOM     11  C   UNL     1      -7.576  -0.172 130.370  0.00  0.00    +0.000 A 
ATOM     12  C   UNL     1      -7.398  -1.033 131.455  0.00  0.00    +0.000 A 
ATOM     13  C   UNL     1      -7.491  -2.400 131.249  0.00  0.00    +0.000 A 
ATOM     14  F   UNL     1      -7.354  -3.239 132.284  0.00  0.00    +0.000 F 
ATOM     15  C   UNL     1      -7.726  -2.917 129.982  0.00  0.00    +0.000 A 
ATOM     16  H   UNL     1      -8.094  -3.611 127.523  0.00  0.00    +0.000 HD
ATOM     17  H   UNL     1      -7.523   3.039 129.486  0.00  0.00    +0.000 HD
ENDROOT
BRANCH   2  18
ATOM     18  C   UNL     1      -7.105  -2.276 125.478  0.00  0.00    +0.000 A 
ATOM     19  C   UNL     1      -5.884  -1.602 125.402  0.00  0.00    +0.000 A 
ATOM     20  C   UNL     1      -4.879  -2.106 124.586  0.00  0.00    +0.000 A 
ATOM     21  C   UNL     1      -5.090  -3.284 123.875  0.00  0.00    +0.000 A 
ATOM     22  F   UNL     1      -4.115  -3.761 123.093  0.00  0.00    +0.000 F 
ATOM     23  C   UNL     1      -6.289  -3.976 123.954  0.00  0.00    +0.000 A 
ATOM     24  C   UNL     1      -7.306  -3.462 124.740  0.00  0.00    +0.000 A 
ENDBRANCH   2  18
BRANCH   1  30
ATOM     25  C   UNL     1      -6.814   1.937 124.487  0.00  0.00    +0.000 C 
ATOM     26  N   UNL     1      -8.164   1.464 124.668  0.00  0.00    +0.000 N 
ATOM     27  N   UNL     1      -9.148   2.103 124.003  0.00  0.00    +0.000 NA
ATOM     28  C   UNL     1     -10.228   1.429 124.387  0.00  0.00    +0.000 A 
ATOM     29  N   UNL     1      -9.991   0.437 125.278  0.00  0.00    +0.000 NA
ATOM     30  C   UNL     1      -8.678   0.449 125.451  0.00  0.00    +0.000 A 
ENDBRANCH   1  30
TORSDOF 2
ENDMDL
MODEL 6
REMARK VINA RESULT:      -8.0      4.034      6.111
REMARK  Name = Talazoparib
REMARK  3 active torsions:
REMARK  status: ('A' for Active; 'I' for Inactive)
REMARK    1  A    between atoms: C_1  and  N_2
REMARK    2  A    between atoms: C_6  and  C_7
REMARK    3  A    between atoms: C_8  and  C_22
REMARK                            x       y       z     vdW  Elec       q    Type
REMARK                         _______ _______ _______ _____ _____    ______ ____
ROOT
ATOM      1  C   UNL     1      -7.142   1.563 126.878  0.00  0.00    +0.000 C 
ATOM      2  C   UNL     1      -6.770   1.121 128.292  0.00  0.00    +0.000 C 
ATOM      3  N   UNL     1      -7.060  -0.241 128.668  0.00  0.00    +0.000 N 
ATOM      4  C   UNL     1      -7.649  -1.137 127.816  0.00  0.00    +0.000 A 
ATOM      5  C   UNL     1      -7.932  -0.827 126.482  0.00  0.00    +0.000 A 
ATOM      6  C   UNL     1      -7.584   0.494 125.912  0.00  0.00    +0.000 A 
ATOM      7  N   UNL     1      -7.879   0.820 124.688  0.00  0.00    +0.000 NA
ATOM      8  N   UNL     1      -8.546  -0.088 123.918  0.00  0.00    +0.000 N 
ATOM      9  C   UNL     1      -8.942  -1.343 124.305  0.00  0.00    +0.000 A 
ATOM     10  O   UNL     1      -9.555  -2.109 123.562  0.00  0.00    +0.000 OA
ATOM     11  C   UNL     1      -8.595  -1.741 125.671  0.00  0.00    +0.000 A 
ATOM     12  C   UNL     1      -8.939  -3.002 126.161  0.00  0.00    +0.000 A 
ATOM     13  C   UNL     1      -8.614  -3.326 127.468  0.00  0.00    +0.000 A 
ATOM     14  F   UNL     1      -8.909  -4.542 127.945  0.00  0.00    +0.000 F 
ATOM     15  C   UNL     1      -7.983  -2.407 128.296  0.00  0.00    +0.000 A 
ATOM     16  H   UNL     1      -6.882  -0.494 129.636  0.00  0.00    +0.000 HD
ATOM     17  H   UNL     1      -8.836   0.231 122.997  0.00  0.00    +0.000 HD
ENDROOT
BRANCH   2  18
ATOM     18  C   UNL     1      -7.457   2.050 129.265  0.00  0.00    +0.000 A 
ATOM     19  C   UNL     1      -8.830   2.283 129.149  0.00  0.00    +0.000 A 
ATOM     20  C   UNL     1      -9.473   3.052 130.111  0.00  0.00    +0.000 A 
ATOM     21  C   UNL     1      -8.750   3.562 131.186  0.00  0.00    +0.000 A 
ATOM     22  F   UNL     1      -9.379   4.301 132.107  0.00  0.00    +0.000 F 
ATOM     23  C   UNL     1      -7.391   3.324 131.326  0.00  0.00    +0.000 A 
ATOM     24  C   UNL     1      -6.739   2.585 130.355  0.00  0.00    +0.000 A 
ENDBRANCH   2  18
BRANCH   1  30
ATOM     25  C   UNL     1      -8.027   4.571 125.865  0.00  0.00    +0.000 C 
ATOM     26  N   UNL     1      -6.732   3.938 125.886  0.00  0.00    +0.000 N 
ATOM     27  N   UNL     1      -5.713   4.575 125.270  0.00  0.00    +0.000 NA
ATOM     28  C   UNL     1      -4.698   3.739 125.476  0.00  0.00    +0.000 A 
ATOM     29  N   UNL     1      -5.022   2.606 126.144  0.00  0.00    +0.000 NA
ATOM     30  C   UNL     1      -6.312   2.735 126.415  0.00  0.00    +0.000 A 
ENDBRANCH   1  30
TORSDOF 2
ENDMDL
MODEL 7
REMARK VINA RESULT:      -8.0      4.511      7.624
REMARK  Name = Talazoparib
REMARK  3 active torsions:
REMARK  status: ('A' for Active; 'I' for Inactive)
REMARK    1  A    between atoms: C_1  and  N_2
REMARK    2  A    between atoms: C_6  and  C_7
REMARK    3  A    between atoms: C_8  and  C_22
REMARK                            x       y       z     vdW  Elec       q    Type
REMARK                         _______ _______ _______ _____ _____    ______ ____
ROOT
ATOM      1  C   UNL     1      -5.901  -1.313 128.225  0.00  0.00    +0.000 C 
ATOM      2  C   UNL     1      -5.519  -1.377 126.747  0.00  0.00    +0.000 C 
ATOM      3  N   UNL     1      -5.159  -0.144 126.092  0.00  0.00    +0.000 N 
ATOM      4  C   UNL     1      -5.146   1.064 126.738  0.00  0.00    +0.000 A 
ATOM      5  C   UNL     1      -5.395   1.182 128.109  0.00  0.00    +0.000 A 
ATOM      6  C   UNL     1      -5.665  -0.009 128.944  0.00  0.00    +0.000 A 
ATOM      7  N   UNL     1      -5.945   0.081 130.212  0.00  0.00    +0.000 NA
ATOM      8  N   UNL     1      -6.004   1.322 130.775  0.00  0.00    +0.000 N 
ATOM      9  C   UNL     1      -5.787   2.515 130.133  0.00  0.00    +0.000 A 
ATOM     10  O   UNL     1      -5.870   3.604 130.700  0.00  0.00    +0.000 OA
ATOM     11  C   UNL     1      -5.443   2.434 128.711  0.00  0.00    +0.000 A 
ATOM     12  C   UNL     1      -5.190   3.588 127.967  0.00  0.00    +0.000 A 
ATOM     13  C   UNL     1      -4.895   3.465 126.618  0.00  0.00    +0.000 A 
ATOM     14  F   UNL     1      -4.619   4.558 125.896  0.00  0.00    +0.000 F 
ATOM     15  C   UNL     1      -4.878   2.221 126.001  0.00  0.00    +0.000 A 
ATOM     16  H   UNL     1      -4.988  -0.192 125.092  0.00  0.00    +0.000 HD
ATOM     17  H   UNL     1      -6.308   1.362 131.744  0.00  0.00    +0.000 HD
ENDROOT
BRANCH   2  18
ATOM     18  C   UNL     1      -6.671  -2.006 125.997  0.00  0.00    +0.000 A 
ATOM     19  C   UNL     1      -7.983  -1.636 126.306  0.00  0.00    +0.000 A 
ATOM     20  C   UNL     1      -9.028  -2.137 125.540  0.00  0.00    +0.000 A 
ATOM     21  C   UNL     1      -8.758  -2.980 124.467  0.00  0.00    +0.000 A 
ATOM     22  F   UNL     1      -9.772  -3.457 123.736  0.00  0.00    +0.000 F 
ATOM     23  C   UNL     1      -7.460  -3.342 124.135  0.00  0.00    +0.000 A 
ATOM     24  C   UNL     1      -6.417  -2.871 124.913  0.00  0.00    +0.000 A 
ENDBRANCH   2  18
BRANCH   1  30
ATOM     25  C   UNL     1      -8.051  -3.383 129.620  0.00  0.00    +0.000 C 
ATOM     26  N   UNL     1      -6.610  -3.413 129.597  0.00  0.00    +0.000 N 
ATOM     27  N   UNL     1      -5.988  -4.323 130.375  0.00  0.00    +0.000 NA
ATOM     28  C   UNL     1      -4.706  -4.081 130.118  0.00  0.00    +0.000 A 
ATOM     29  N   UNL     1      -4.483  -3.055 129.262  0.00  0.00    +0.000 NA
ATOM     30  C   UNL     1      -5.691  -2.635 128.921  0.00  0.00    +0.000 A 
ENDBRANCH   1  30
TORSDOF 2
ENDMDL
MODEL 8
REMARK VINA RESULT:      -7.9      3.831      6.154
REMARK  Name = Talazoparib
REMARK  3 active torsions:
REMARK  status: ('A' for Active; 'I' for Inactive)
REMARK    1  A    between atoms: C_1  and  N_2
REMARK    2  A    between atoms: C_6  and  C_7
REMARK    3  A    between atoms: C_8  and  C_22
REMARK                            x       y       z     vdW  Elec       q    Type
REMARK                         _______ _______ _______ _____ _____    ______ ____
ROOT
ATOM      1  C   UNL     1      -6.658  -0.420 127.698  0.00  0.00    +0.000 C 
ATOM      2  C   UNL     1      -7.778  -1.428 127.443  0.00  0.00    +0.000 C 
ATOM      3  N   UNL     1      -7.736  -2.676 128.164  0.00  0.00    +0.000 N 
ATOM      4  C   UNL     1      -6.744  -2.985 129.055  0.00  0.00    +0.000 A 
ATOM      5  C   UNL     1      -5.741  -2.076 129.405  0.00  0.00    +0.000 A 
ATOM      6  C   UNL     1      -5.714  -0.710 128.837  0.00  0.00    +0.000 A 
ATOM      7  N   UNL     1      -4.765   0.137 129.112  0.00  0.00    +0.000 NA
ATOM      8  N   UNL     1      -3.757  -0.265 129.939  0.00  0.00    +0.000 N 
ATOM      9  C   UNL     1      -3.639  -1.497 130.533  0.00  0.00    +0.000 A 
ATOM     10  O   UNL     1      -2.693  -1.800 131.259  0.00  0.00    +0.000 OA
ATOM     11  C   UNL     1      -4.712  -2.456 130.259  0.00  0.00    +0.000 A 
ATOM     12  C   UNL     1      -4.695  -3.732 130.824  0.00  0.00    +0.000 A 
ATOM     13  C   UNL     1      -5.717  -4.616 130.516  0.00  0.00    +0.000 A 
ATOM     14  F   UNL     1      -5.733  -5.834 131.072  0.00  0.00    +0.000 F 
ATOM     15  C   UNL     1      -6.730  -4.258 129.636  0.00  0.00    +0.000 A 
ATOM     16  H   UNL     1      -8.442  -3.366 127.921  0.00  0.00    +0.000 HD
ATOM     17  H   UNL     1      -2.990   0.389 130.064  0.00  0.00    +0.000 HD
ENDROOT
BRANCH   2  18
ATOM     18  C   UNL     1      -7.806  -1.724 125.961  0.00  0.00    +0.000 A 
ATOM     19  C   UNL     1      -8.927  -1.372 125.205  0.00  0.00    +0.000 A 
ATOM     20  C   UNL     1      -8.902  -1.550 123.828  0.00  0.00    +0.000 A 
ATOM     21  C   UNL     1      -7.757  -2.054 123.216  0.00  0.00    +0.000 A 
ATOM     22  F   UNL     1      -7.743  -2.221 121.889  0.00  0.00    +0.000 F 
ATOM     23  C   UNL     1      -6.629  -2.390 123.950  0.00  0.00    +0.000 A 
ATOM     24  C   UNL     1      -6.660  -2.245 125.326  0.00  0.00    +0.000 A 
ENDBRANCH   2  18
BRANCH   1  30
ATOM     25  C   UNL     1      -8.530   1.705 129.381  0.00  0.00    +0.000 C 
ATOM     26  N   UNL     1      -7.967   1.804 128.057  0.00  0.00    +0.000 N 
ATOM     27  N   UNL     1      -8.357   2.841 127.287  0.00  0.00    +0.000 NA
ATOM     28  C   UNL     1      -7.666   2.632 126.169  0.00  0.00    +0.000 A 
ATOM     29  N   UNL     1      -6.901   1.514 126.175  0.00  0.00    +0.000 NA
ATOM     30  C   UNL     1      -7.083   0.991 127.378  0.00  0.00    +0.000 A 
ENDBRANCH   1  30
TORSDOF 2
ENDMDL
MODEL 9
REMARK VINA RESULT:      -7.8      3.907      7.198
REMARK  Name = Talazoparib
REMARK  3 active torsions:
REMARK  status: ('A' for Active; 'I' for Inactive)
REMARK    1  A    between atoms: C_1  and  N_2
REMARK    2  A    between atoms: C_6  and  C_7
REMARK    3  A    between atoms: C_8  and  C_22
REMARK                            x       y       z     vdW  Elec       q    Type
REMARK                         _______ _______ _______ _____ _____    ______ ____
ROOT
ATOM      1  C   UNL     1      -7.366   0.057 127.801  0.00  0.00    +0.000 C 
ATOM      2  C   UNL     1      -5.968  -0.545 127.925  0.00  0.00    +0.000 C 
ATOM      3  N   UNL     1      -5.381  -1.130 126.744  0.00  0.00    +0.000 N 
ATOM      4  C   UNL     1      -6.023  -1.164 125.535  0.00  0.00    +0.000 A 
ATOM      5  C   UNL     1      -7.263  -0.552 125.328  0.00  0.00    +0.000 A 
ATOM      6  C   UNL     1      -7.941   0.191 126.414  0.00  0.00    +0.000 A 
ATOM      7  N   UNL     1      -9.115   0.728 126.257  0.00  0.00    +0.000 NA
ATOM      8  N   UNL     1      -9.740   0.582 125.053  0.00  0.00    +0.000 N 
ATOM      9  C   UNL     1      -9.246  -0.083 123.959  0.00  0.00    +0.000 A 
ATOM     10  O   UNL     1      -9.870  -0.190 122.904  0.00  0.00    +0.000 OA
ATOM     11  C   UNL     1      -7.912  -0.672 124.105  0.00  0.00    +0.000 A 
ATOM     12  C   UNL     1      -7.312  -1.358 123.048  0.00  0.00    +0.000 A 
ATOM     13  C   UNL     1      -6.060  -1.922 123.239  0.00  0.00    +0.000 A 
ATOM     14  F   UNL     1      -5.456  -2.558 122.228  0.00  0.00    +0.000 F 
ATOM     15  C   UNL     1      -5.419  -1.837 124.469  0.00  0.00    +0.000 A 
ATOM     16  H   UNL     1      -4.487  -1.598 126.864  0.00  0.00    +0.000 HD
ATOM     17  H   UNL     1     -10.690   0.939 124.993  0.00  0.00    +0.000 HD
ENDROOT
BRANCH   2  18
ATOM     18  C   UNL     1      -6.008  -1.591 129.015  0.00  0.00    +0.000 A 
ATOM     19  C   UNL     1      -5.129  -1.498 130.097  0.00  0.00    +0.000 A 
ATOM     20  C   UNL     1      -5.245  -2.401 131.146  0.00  0.00    +0.000 A 
ATOM     21  C   UNL     1      -6.245  -3.369 131.120  0.00  0.00    +0.000 A 
ATOM     22  F   UNL     1      -6.348  -4.233 132.136  0.00  0.00    +0.000 F 
ATOM     23  C   UNL     1      -7.138  -3.463 130.062  0.00  0.00    +0.000 A 
ATOM     24  C   UNL     1      -7.007  -2.586 128.999  0.00  0.00    +0.000 A 
ENDBRANCH   2  18
BRANCH   1  30
ATOM     25  C   UNL     1      -6.281   3.154 128.085  0.00  0.00    +0.000 C 
ATOM     26  N   UNL     1      -7.056   2.351 128.998  0.00  0.00    +0.000 N 
ATOM     27  N   UNL     1      -7.272   2.841 130.237  0.00  0.00    +0.000 NA
ATOM     28  C   UNL     1      -7.997   1.875 130.796  0.00  0.00    +0.000 A 
ATOM     29  N   UNL     1      -8.216   0.799 130.003  0.00  0.00    +0.000 NA
ATOM     30  C   UNL     1      -7.628   1.103 128.856  0.00  0.00    +0.000 A 
ENDBRANCH   1  30
TORSDOF 2
ENDMDL
