MODEL 1
REMARK VINA RESULT:      -6.1      0.000      0.000
REMARK  Name = Talbutal
REMARK  6 active torsions:
REMARK  status: ('A' for Active; 'I' for Inactive)
REMARK    1  A    between atoms: C_1  and  C_2
REMARK    2  A    between atoms: C_2  and  C_3
REMARK    3  A    between atoms: C_3  and  C_4
REMARK    4  A    between atoms: C_3  and  C_5
REMARK    5  A    between atoms: C_5  and  C_6
REMARK    6  A    between atoms: C_6  and  C_7
REMARK                            x       y       z     vdW  Elec       q    Type
REMARK                         _______ _______ _______ _____ _____    ______ ____
ROOT
ATOM      1  C   UNL     1      -9.680   6.363 130.528  0.00  0.00    +0.000 C 
ATOM      2  C   UNL     1      -9.341   5.260 129.533  0.00  0.00    +0.000 C 
ATOM      3  O   UNL     1      -8.924   5.484 128.396  0.00  0.00    +0.000 OA
ATOM      4  N   UNL     1      -9.552   3.971 129.934  0.00  0.00    +0.000 N 
ATOM      5  C   UNL     1      -9.996   3.558 131.150  0.00  0.00    +0.000 C 
ATOM      6  O   UNL     1     -10.100   2.373 131.427  0.00  0.00    +0.000 OA
ATOM      7  N   UNL     1     -10.293   4.527 132.053  0.00  0.00    +0.000 N 
ATOM      8  C   UNL     1     -10.052   5.857 131.915  0.00  0.00    +0.000 C 
ATOM      9  O   UNL     1     -10.161   6.588 132.901  0.00  0.00    +0.000 OA
ATOM     10  H   UNL     1      -9.327   3.248 129.265  0.00  0.00    +0.000 HD
ATOM     11  H   UNL     1     -10.549   4.219 132.981  0.00  0.00    +0.000 HD
ENDROOT
BRANCH   1  12
ATOM     12  C   UNL     1     -10.883   7.180 129.941  0.00  0.00    +0.000 C 
ATOM     13  C   UNL     1     -11.995   6.278 129.375  0.00  0.00    +0.000 C 
BRANCH  12  15
ATOM     14  C   UNL     1     -11.216   8.127 127.587  0.00  0.00    +0.000 C 
ATOM     15  C   UNL     1     -10.397   8.181 128.864  0.00  0.00    +0.000 C 
ENDBRANCH  12  15
ENDBRANCH   1  12
BRANCH   1  16
ATOM     16  C   UNL     1      -8.407   7.230 130.672  0.00  0.00    +0.000 C 
BRANCH  16  17
ATOM     17  C   UNL     1      -7.258   6.464 131.283  0.00  0.00    +0.000 C 
ATOM     18  C   UNL     1      -5.984   6.839 131.149  0.00  0.00    +0.000 C 
ENDBRANCH  16  17
ENDBRANCH   1  16
TORSDOF 4
ENDMDL
MODEL 2
REMARK VINA RESULT:      -5.9      9.233     11.039
REMARK  Name = Talbutal
REMARK  6 active torsions:
REMARK  status: ('A' for Active; 'I' for Inactive)
REMARK    1  A    between atoms: C_1  and  C_2
REMARK    2  A    between atoms: C_2  and  C_3
REMARK    3  A    between atoms: C_3  and  C_4
REMARK    4  A    between atoms: C_3  and  C_5
REMARK    5  A    between atoms: C_5  and  C_6
REMARK    6  A    between atoms: C_6  and  C_7
REMARK                            x       y       z     vdW  Elec       q    Type
REMARK                         _______ _______ _______ _____ _____    ______ ____
ROOT
ATOM      1  C   UNL     1      -6.873  -2.035 124.745  0.00  0.00    +0.000 C 
ATOM      2  C   UNL     1      -7.925  -2.989 124.192  0.00  0.00    +0.000 C 
ATOM      3  O   UNL     1      -7.867  -4.210 124.334  0.00  0.00    +0.000 OA
ATOM      4  N   UNL     1      -8.952  -2.439 123.479  0.00  0.00    +0.000 N 
ATOM      5  C   UNL     1      -9.164  -1.118 123.241  0.00  0.00    +0.000 C 
ATOM      6  O   UNL     1     -10.147  -0.724 122.633  0.00  0.00    +0.000 OA
ATOM      7  N   UNL     1      -8.242  -0.252 123.736  0.00  0.00    +0.000 N 
ATOM      8  C   UNL     1      -7.212  -0.562 124.567  0.00  0.00    +0.000 C 
ATOM      9  O   UNL     1      -6.596   0.352 125.117  0.00  0.00    +0.000 OA
ATOM     10  H   UNL     1      -9.642  -3.080 123.114  0.00  0.00    +0.000 HD
ATOM     11  H   UNL     1      -8.439   0.732 123.626  0.00  0.00    +0.000 HD
ENDROOT
BRANCH   1  12
ATOM     12  C   UNL     1      -5.520  -2.342 124.012  0.00  0.00    +0.000 C 
ATOM     13  C   UNL     1      -5.672  -2.398 122.482  0.00  0.00    +0.000 C 
BRANCH  12  15
ATOM     14  C   UNL     1      -4.308  -4.522 123.444  0.00  0.00    +0.000 C 
ATOM     15  C   UNL     1      -4.891  -3.653 124.543  0.00  0.00    +0.000 C 
ENDBRANCH  12  15
ENDBRANCH   1  12
BRANCH   1  16
ATOM     16  C   UNL     1      -6.784  -2.314 126.264  0.00  0.00    +0.000 C 
BRANCH  16  17
ATOM     17  C   UNL     1      -8.138  -2.286 126.932  0.00  0.00    +0.000 C 
ATOM     18  C   UNL     1      -8.563  -3.252 127.750  0.00  0.00    +0.000 C 
ENDBRANCH  16  17
ENDBRANCH   1  16
TORSDOF 4
ENDMDL
MODEL 3
REMARK VINA RESULT:      -5.8      9.315     10.677
REMARK  Name = Talbutal
REMARK  6 active torsions:
REMARK  status: ('A' for Active; 'I' for Inactive)
REMARK    1  A    between atoms: C_1  and  C_2
REMARK    2  A    between atoms: C_2  and  C_3
REMARK    3  A    between atoms: C_3  and  C_4
REMARK    4  A    between atoms: C_3  and  C_5
REMARK    5  A    between atoms: C_5  and  C_6
REMARK    6  A    between atoms: C_6  and  C_7
REMARK                            x       y       z     vdW  Elec       q    Type
REMARK                         _______ _______ _______ _____ _____    ______ ____
ROOT
ATOM      1  C   UNL     1      -6.527  -1.900 124.517  0.00  0.00    +0.000 C 
ATOM      2  C   UNL     1      -6.914  -2.005 123.047  0.00  0.00    +0.000 C 
ATOM      3  O   UNL     1      -6.181  -1.631 122.130  0.00  0.00    +0.000 OA
ATOM      4  N   UNL     1      -8.151  -2.508 122.762  0.00  0.00    +0.000 N 
ATOM      5  C   UNL     1      -9.068  -2.969 123.652  0.00  0.00    +0.000 C 
ATOM      6  O   UNL     1     -10.131  -3.451 123.288  0.00  0.00    +0.000 OA
ATOM      7  N   UNL     1      -8.736  -2.894 124.966  0.00  0.00    +0.000 N 
ATOM      8  C   UNL     1      -7.525  -2.542 125.471  0.00  0.00    +0.000 C 
ATOM      9  O   UNL     1      -7.298  -2.737 126.666  0.00  0.00    +0.000 OA
ATOM     10  H   UNL     1      -8.399  -2.569 121.784  0.00  0.00    +0.000 HD
ATOM     11  H   UNL     1      -9.384  -3.307 125.622  0.00  0.00    +0.000 HD
ENDROOT
BRANCH   1  12
ATOM     12  C   UNL     1      -6.390  -0.377 124.866  0.00  0.00    +0.000 C 
ATOM     13  C   UNL     1      -5.336  -0.109 125.955  0.00  0.00    +0.000 C 
BRANCH  12  15
ATOM     14  C   UNL     1      -8.395   1.060 124.188  0.00  0.00    +0.000 C 
ATOM     15  C   UNL     1      -7.758   0.218 125.279  0.00  0.00    +0.000 C 
ENDBRANCH  12  15
ENDBRANCH   1  12
BRANCH   1  16
ATOM     16  C   UNL     1      -5.183  -2.652 124.671  0.00  0.00    +0.000 C 
BRANCH  16  17
ATOM     17  C   UNL     1      -5.243  -4.054 124.113  0.00  0.00    +0.000 C 
ATOM     18  C   UNL     1      -4.217  -4.627 123.480  0.00  0.00    +0.000 C 
ENDBRANCH  16  17
ENDBRANCH   1  16
TORSDOF 4
ENDMDL
MODEL 4
REMARK VINA RESULT:      -5.6      9.143     10.695
REMARK  Name = Talbutal
REMARK  6 active torsions:
REMARK  status: ('A' for Active; 'I' for Inactive)
REMARK    1  A    between atoms: C_1  and  C_2
REMARK    2  A    between atoms: C_2  and  C_3
REMARK    3  A    between atoms: C_3  and  C_4
REMARK    4  A    between atoms: C_3  and  C_5
REMARK    5  A    between atoms: C_5  and  C_6
REMARK    6  A    between atoms: C_6  and  C_7
REMARK                            x       y       z     vdW  Elec       q    Type
REMARK                         _______ _______ _______ _____ _____    ______ ____
ROOT
ATOM      1  C   UNL     1      -7.146  -2.088 125.411  0.00  0.00    +0.000 C 
ATOM      2  C   UNL     1      -7.216  -0.659 124.883  0.00  0.00    +0.000 C 
ATOM      3  O   UNL     1      -6.487   0.245 125.291  0.00  0.00    +0.000 OA
ATOM      4  N   UNL     1      -8.166  -0.388 123.941  0.00  0.00    +0.000 N 
ATOM      5  C   UNL     1      -9.037  -1.270 123.384  0.00  0.00    +0.000 C 
ATOM      6  O   UNL     1      -9.816  -0.936 122.504  0.00  0.00    +0.000 OA
ATOM      7  N   UNL     1      -8.982  -2.550 123.833  0.00  0.00    +0.000 N 
ATOM      8  C   UNL     1      -8.049  -3.068 124.673  0.00  0.00    +0.000 C 
ATOM      9  O   UNL     1      -7.986  -4.290 124.815  0.00  0.00    +0.000 OA
ATOM     10  H   UNL     1      -8.207   0.562 123.601  0.00  0.00    +0.000 HD
ATOM     11  H   UNL     1      -9.575  -3.221 123.366  0.00  0.00    +0.000 HD
ENDROOT
BRANCH   1  12
ATOM     12  C   UNL     1      -7.552  -2.057 126.925  0.00  0.00    +0.000 C 
ATOM     13  C   UNL     1      -6.368  -2.347 127.864  0.00  0.00    +0.000 C 
BRANCH  12  15
ATOM     14  C   UNL     1      -8.627  -3.699 128.567  0.00  0.00    +0.000 C 
ATOM     15  C   UNL     1      -8.717  -3.038 127.204  0.00  0.00    +0.000 C 
ENDBRANCH  12  15
ENDBRANCH   1  12
BRANCH   1  16
ATOM     16  C   UNL     1      -5.685  -2.556 125.212  0.00  0.00    +0.000 C 
BRANCH  16  17
ATOM     17  C   UNL     1      -5.351  -2.791 123.759  0.00  0.00    +0.000 C 
ATOM     18  C   UNL     1      -4.470  -3.710 123.357  0.00  0.00    +0.000 C 
ENDBRANCH  16  17
ENDBRANCH   1  16
TORSDOF 4
ENDMDL
MODEL 5
REMARK VINA RESULT:      -5.6      6.816      8.207
REMARK  Name = Talbutal
REMARK  6 active torsions:
REMARK  status: ('A' for Active; 'I' for Inactive)
REMARK    1  A    between atoms: C_1  and  C_2
REMARK    2  A    between atoms: C_2  and  C_3
REMARK    3  A    between atoms: C_3  and  C_4
REMARK    4  A    between atoms: C_3  and  C_5
REMARK    5  A    between atoms: C_5  and  C_6
REMARK    6  A    between atoms: C_6  and  C_7
REMARK                            x       y       z     vdW  Elec       q    Type
REMARK                         _______ _______ _______ _____ _____    ______ ____
ROOT
ATOM      1  C   UNL     1      -7.468   1.872 124.436  0.00  0.00    +0.000 C 
ATOM      2  C   UNL     1      -7.576   0.473 123.840  0.00  0.00    +0.000 C 
ATOM      3  O   UNL     1      -6.644  -0.332 123.842  0.00  0.00    +0.000 OA
ATOM      4  N   UNL     1      -8.760   0.136 123.250  0.00  0.00    +0.000 N 
ATOM      5  C   UNL     1      -9.879   0.903 123.171  0.00  0.00    +0.000 C 
ATOM      6  O   UNL     1     -10.910   0.485 122.666  0.00  0.00    +0.000 OA
ATOM      7  N   UNL     1      -9.806   2.148 123.707  0.00  0.00    +0.000 N 
ATOM      8  C   UNL     1      -8.778   2.649 124.440  0.00  0.00    +0.000 C 
ATOM      9  O   UNL     1      -8.942   3.705 125.053  0.00  0.00    +0.000 OA
ATOM     10  H   UNL     1      -8.819  -0.792 122.855  0.00  0.00    +0.000 HD
ATOM     11  H   UNL     1     -10.659   2.689 123.718  0.00  0.00    +0.000 HD
ENDROOT
BRANCH   1  12
ATOM     12  C   UNL     1      -6.404   2.665 123.600  0.00  0.00    +0.000 C 
ATOM     13  C   UNL     1      -5.769   3.823 124.391  0.00  0.00    +0.000 C 
BRANCH  12  15
ATOM     14  C   UNL     1      -5.975   3.581 121.249  0.00  0.00    +0.000 C 
ATOM     15  C   UNL     1      -7.019   3.187 122.278  0.00  0.00    +0.000 C 
ENDBRANCH  12  15
ENDBRANCH   1  12
BRANCH   1  16
ATOM     16  C   UNL     1      -7.028   1.689 125.907  0.00  0.00    +0.000 C 
BRANCH  16  17
ATOM     17  C   UNL     1      -8.078   0.988 126.737  0.00  0.00    +0.000 C 
ATOM     18  C   UNL     1      -8.420   1.389 127.963  0.00  0.00    +0.000 C 
ENDBRANCH  16  17
ENDBRANCH   1  16
TORSDOF 4
ENDMDL
MODEL 6
REMARK VINA RESULT:      -5.5      8.737     10.091
REMARK  Name = Talbutal
REMARK  6 active torsions:
REMARK  status: ('A' for Active; 'I' for Inactive)
REMARK    1  A    between atoms: C_1  and  C_2
REMARK    2  A    between atoms: C_2  and  C_3
REMARK    3  A    between atoms: C_3  and  C_4
REMARK    4  A    between atoms: C_3  and  C_5
REMARK    5  A    between atoms: C_5  and  C_6
REMARK    6  A    between atoms: C_6  and  C_7
REMARK                            x       y       z     vdW  Elec       q    Type
REMARK                         _______ _______ _______ _____ _____    ______ ____
ROOT
ATOM      1  C   UNL     1      -7.327  -1.834 124.553  0.00  0.00    +0.000 C 
ATOM      2  C   UNL     1      -8.484  -2.814 124.404  0.00  0.00    +0.000 C 
ATOM      3  O   UNL     1      -9.031  -3.051 123.327  0.00  0.00    +0.000 OA
ATOM      4  N   UNL     1      -8.941  -3.418 125.541  0.00  0.00    +0.000 N 
ATOM      5  C   UNL     1      -8.444  -3.271 126.798  0.00  0.00    +0.000 C 
ATOM      6  O   UNL     1      -8.893  -3.901 127.743  0.00  0.00    +0.000 OA
ATOM      7  N   UNL     1      -7.405  -2.410 126.947  0.00  0.00    +0.000 N 
ATOM      8  C   UNL     1      -6.720  -1.795 125.949  0.00  0.00    +0.000 C 
ATOM      9  O   UNL     1      -5.661  -1.224 126.216  0.00  0.00    +0.000 OA
ATOM     10  H   UNL     1      -9.711  -4.063 125.432  0.00  0.00    +0.000 HD
ATOM     11  H   UNL     1      -6.986  -2.359 127.865  0.00  0.00    +0.000 HD
ENDROOT
BRANCH   1  12
ATOM     12  C   UNL     1      -7.862  -0.406 124.186  0.00  0.00    +0.000 C 
ATOM     13  C   UNL     1      -6.871   0.397 123.325  0.00  0.00    +0.000 C 
BRANCH  12  15
ATOM     14  C   UNL     1      -9.735   0.505 125.672  0.00  0.00    +0.000 C 
ATOM     15  C   UNL     1      -8.236   0.387 125.463  0.00  0.00    +0.000 C 
ENDBRANCH  12  15
ENDBRANCH   1  12
BRANCH   1  16
ATOM     16  C   UNL     1      -6.224  -2.307 123.576  0.00  0.00    +0.000 C 
BRANCH  16  17
ATOM     17  C   UNL     1      -5.627  -3.633 123.984  0.00  0.00    +0.000 C 
ATOM     18  C   UNL     1      -4.408  -4.026 123.608  0.00  0.00    +0.000 C 
ENDBRANCH  16  17
ENDBRANCH   1  16
TORSDOF 4
ENDMDL
MODEL 7
REMARK VINA RESULT:      -5.5      8.600     10.336
REMARK  Name = Talbutal
REMARK  6 active torsions:
REMARK  status: ('A' for Active; 'I' for Inactive)
REMARK    1  A    between atoms: C_1  and  C_2
REMARK    2  A    between atoms: C_2  and  C_3
REMARK    3  A    between atoms: C_3  and  C_4
REMARK    4  A    between atoms: C_3  and  C_5
REMARK    5  A    between atoms: C_5  and  C_6
REMARK    6  A    between atoms: C_6  and  C_7
REMARK                            x       y       z     vdW  Elec       q    Type
REMARK                         _______ _______ _______ _____ _____    ______ ____
ROOT
ATOM      1  C   UNL     1      -7.441  -1.590 124.910  0.00  0.00    +0.000 C 
ATOM      2  C   UNL     1      -6.949  -1.609 126.351  0.00  0.00    +0.000 C 
ATOM      3  O   UNL     1      -6.013  -0.915 126.752  0.00  0.00    +0.000 OA
ATOM      4  N   UNL     1      -7.566  -2.472 127.211  0.00  0.00    +0.000 N 
ATOM      5  C   UNL     1      -8.612  -3.294 126.929  0.00  0.00    +0.000 C 
ATOM      6  O   UNL     1      -9.129  -3.992 127.788  0.00  0.00    +0.000 OA
ATOM      7  N   UNL     1      -9.072  -3.282 125.652  0.00  0.00    +0.000 N 
ATOM      8  C   UNL     1      -8.690  -2.427 124.667  0.00  0.00    +0.000 C 
ATOM      9  O   UNL     1      -9.351  -2.381 123.629  0.00  0.00    +0.000 OA
ATOM     10  H   UNL     1      -7.229  -2.480 128.163  0.00  0.00    +0.000 HD
ATOM     11  H   UNL     1      -9.896  -3.834 125.461  0.00  0.00    +0.000 HD
ENDROOT
BRANCH   1  12
ATOM     12  C   UNL     1      -6.281  -2.126 124.002  0.00  0.00    +0.000 C 
ATOM     13  C   UNL     1      -6.462  -1.751 122.520  0.00  0.00    +0.000 C 
BRANCH  12  15
ATOM     14  C   UNL     1      -4.732  -4.154 123.805  0.00  0.00    +0.000 C 
ATOM     15  C   UNL     1      -6.123  -3.659 124.157  0.00  0.00    +0.000 C 
ENDBRANCH  12  15
ENDBRANCH   1  12
BRANCH   1  16
ATOM     16  C   UNL     1      -7.795  -0.118 124.587  0.00  0.00    +0.000 C 
BRANCH  16  17
ATOM     17  C   UNL     1      -8.969   0.380 125.396  0.00  0.00    +0.000 C 
ATOM     18  C   UNL     1      -9.939   1.135 124.877  0.00  0.00    +0.000 C 
ENDBRANCH  16  17
ENDBRANCH   1  16
TORSDOF 4
ENDMDL
MODEL 8
REMARK VINA RESULT:      -5.5      8.997     10.841
REMARK  Name = Talbutal
REMARK  6 active torsions:
REMARK  status: ('A' for Active; 'I' for Inactive)
REMARK    1  A    between atoms: C_1  and  C_2
REMARK    2  A    between atoms: C_2  and  C_3
REMARK    3  A    between atoms: C_3  and  C_4
REMARK    4  A    between atoms: C_3  and  C_5
REMARK    5  A    between atoms: C_5  and  C_6
REMARK    6  A    between atoms: C_6  and  C_7
REMARK                            x       y       z     vdW  Elec       q    Type
REMARK                         _______ _______ _______ _____ _____    ______ ____
ROOT
ATOM      1  C   UNL     1      -6.734  -1.906 124.202  0.00  0.00    +0.000 C 
ATOM      2  C   UNL     1      -6.091  -0.769 124.987  0.00  0.00    +0.000 C 
ATOM      3  O   UNL     1      -5.132  -0.931 125.743  0.00  0.00    +0.000 OA
ATOM      4  N   UNL     1      -6.646   0.471 124.856  0.00  0.00    +0.000 N 
ATOM      5  C   UNL     1      -7.693   0.816 124.062  0.00  0.00    +0.000 C 
ATOM      6  O   UNL     1      -8.081   1.971 123.975  0.00  0.00    +0.000 OA
ATOM      7  N   UNL     1      -8.272  -0.182 123.346  0.00  0.00    +0.000 N 
ATOM      8  C   UNL     1      -7.818  -1.457 123.232  0.00  0.00    +0.000 C 
ATOM      9  O   UNL     1      -8.310  -2.191 122.373  0.00  0.00    +0.000 OA
ATOM     10  H   UNL     1      -6.214   1.217 125.384  0.00  0.00    +0.000 HD
ATOM     11  H   UNL     1      -8.999   0.087 122.698  0.00  0.00    +0.000 HD
ENDROOT
BRANCH   1  12
ATOM     12  C   UNL     1      -7.355  -2.908 125.237  0.00  0.00    +0.000 C 
ATOM     13  C   UNL     1      -8.133  -4.052 124.564  0.00  0.00    +0.000 C 
BRANCH  12  15
ATOM     14  C   UNL     1      -8.120  -2.690 127.669  0.00  0.00    +0.000 C 
ATOM     15  C   UNL     1      -8.256  -2.163 126.252  0.00  0.00    +0.000 C 
ENDBRANCH  12  15
ENDBRANCH   1  12
BRANCH   1  16
ATOM     16  C   UNL     1      -5.603  -2.559 123.372  0.00  0.00    +0.000 C 
BRANCH  16  17
ATOM     17  C   UNL     1      -4.899  -3.661 124.127  0.00  0.00    +0.000 C 
ATOM     18  C   UNL     1      -4.348  -4.716 123.523  0.00  0.00    +0.000 C 
ENDBRANCH  16  17
ENDBRANCH   1  16
TORSDOF 4
ENDMDL
MODEL 9
REMARK VINA RESULT:      -5.4      8.235     10.099
REMARK  Name = Talbutal
REMARK  6 active torsions:
REMARK  status: ('A' for Active; 'I' for Inactive)
REMARK    1  A    between atoms: C_1  and  C_2
REMARK    2  A    between atoms: C_2  and  C_3
REMARK    3  A    between atoms: C_3  and  C_4
REMARK    4  A    between atoms: C_3  and  C_5
REMARK    5  A    between atoms: C_5  and  C_6
REMARK    6  A    between atoms: C_6  and  C_7
REMARK                            x       y       z     vdW  Elec       q    Type
REMARK                         _______ _______ _______ _____ _____    ______ ____
ROOT
ATOM      1  C   UNL     1      -6.890  -1.660 125.742  0.00  0.00    +0.000 C 
ATOM      2  C   UNL     1      -5.672  -1.592 126.656  0.00  0.00    +0.000 C 
ATOM      3  O   UNL     1      -5.280  -2.547 127.326  0.00  0.00    +0.000 OA
ATOM      4  N   UNL     1      -5.025  -0.393 126.744  0.00  0.00    +0.000 N 
ATOM      5  C   UNL     1      -5.325   0.748 126.069  0.00  0.00    +0.000 C 
ATOM      6  O   UNL     1      -4.646   1.758 126.180  0.00  0.00    +0.000 OA
ATOM      7  N   UNL     1      -6.400   0.703 125.242  0.00  0.00    +0.000 N 
ATOM      8  C   UNL     1      -7.115  -0.404 124.911  0.00  0.00    +0.000 C 
ATOM      9  O   UNL     1      -7.917  -0.339 123.978  0.00  0.00    +0.000 OA
ATOM     10  H   UNL     1      -4.221  -0.358 127.356  0.00  0.00    +0.000 HD
ATOM     11  H   UNL     1      -6.577   1.525 124.682  0.00  0.00    +0.000 HD
ENDROOT
BRANCH   1  12
ATOM     12  C   UNL     1      -8.149  -1.909 126.644  0.00  0.00    +0.000 C 
ATOM     13  C   UNL     1      -7.946  -1.433 128.094  0.00  0.00    +0.000 C 
BRANCH  12  15
ATOM     14  C   UNL     1      -8.912  -3.948 127.989  0.00  0.00    +0.000 C 
ATOM     15  C   UNL     1      -8.558  -3.403 126.617  0.00  0.00    +0.000 C 
ENDBRANCH  12  15
ENDBRANCH   1  12
BRANCH   1  16
ATOM     16  C   UNL     1      -6.638  -2.830 124.763  0.00  0.00    +0.000 C 
BRANCH  16  17
ATOM     17  C   UNL     1      -5.397  -2.623 123.929  0.00  0.00    +0.000 C 
ATOM     18  C   UNL     1      -4.589  -3.624 123.571  0.00  0.00    +0.000 C 
ENDBRANCH  16  17
ENDBRANCH   1  16
TORSDOF 4
ENDMDL
