MODEL 1
REMARK VINA RESULT:      -7.3      0.000      0.000
REMARK  Name = Tamoxifen
REMARK  11 active torsions:
REMARK  status: ('A' for Active; 'I' for Inactive)
REMARK    1  A    between atoms: C_1  and  C_2
REMARK    2  A    between atoms: C_2  and  C_3
REMARK    3  A    between atoms: C_3  and  C_23
REMARK    4  A    between atoms: C_4  and  C_5
REMARK    5  A    between atoms: C_4  and  C_11
REMARK    6  A    between atoms: C_14  and  O_15
REMARK    7  A    between atoms: O_15  and  C_16
REMARK    8  A    between atoms: C_16  and  C_17
REMARK    9  A    between atoms: C_17  and  N_18
REMARK   10  A    between atoms: N_18  and  C_19
REMARK   11  A    between atoms: N_18  and  C_20
REMARK                            x       y       z     vdW  Elec       q    Type
REMARK                         _______ _______ _______ _____ _____    ______ ____
ROOT
ATOM      1  C   UNL     1      -6.939   0.438 124.057  0.00  0.00    +0.000 C 
ATOM      2  C   UNL     1      -6.902   1.819 123.983  0.00  0.00    +0.000 C 
ENDROOT
BRANCH   2   3
ATOM      3  C   UNL     1      -7.185   2.569 122.722  0.00  0.00    +0.000 A 
ATOM      4  C   UNL     1      -6.126   3.042 121.922  0.00  0.00    +0.000 A 
ATOM      5  C   UNL     1      -6.391   3.805 120.787  0.00  0.00    +0.000 A 
ATOM      6  C   UNL     1      -7.699   3.954 120.343  0.00  0.00    +0.000 A 
ATOM      7  C   UNL     1      -8.752   3.491 121.130  0.00  0.00    +0.000 A 
ATOM      8  C   UNL     1      -8.485   2.935 122.378  0.00  0.00    +0.000 A 
ENDBRANCH   2   3
BRANCH   2   9
ATOM      9  C   UNL     1      -6.578   2.673 125.171  0.00  0.00    +0.000 A 
ATOM     10  C   UNL     1      -7.636   3.249 125.901  0.00  0.00    +0.000 A 
ATOM     11  C   UNL     1      -7.379   4.117 126.954  0.00  0.00    +0.000 A 
ATOM     12  C   UNL     1      -6.072   4.332 127.372  0.00  0.00    +0.000 A 
ATOM     13  C   UNL     1      -5.013   3.763 126.655  0.00  0.00    +0.000 A 
ATOM     14  C   UNL     1      -5.268   2.994 125.528  0.00  0.00    +0.000 A 
BRANCH  12  15
ATOM     15  O   UNL     1      -5.943   5.094 128.501  0.00  0.00    +0.000 OA
BRANCH  15  16
ATOM     16  C   UNL     1      -4.957   4.613 129.412  0.00  0.00    +0.000 C 
BRANCH  16  17
ATOM     17  C   UNL     1      -4.119   5.779 129.931  0.00  0.00    +0.000 C 
BRANCH  17  18
ATOM     18  N   UNL     1      -4.105   6.926 129.000  0.00  0.00    +0.000 NA
ATOM     19  C   UNL     1      -4.095   8.205 129.716  0.00  0.00    +0.000 C 
ATOM     20  C   UNL     1      -2.927   6.843 128.136  0.00  0.00    +0.000 C 
ENDBRANCH  17  18
ENDBRANCH  16  17
ENDBRANCH  15  16
ENDBRANCH  12  15
ENDBRANCH   2   9
BRANCH   1  21
ATOM     21  C   UNL     1      -6.809  -0.272 125.399  0.00  0.00    +0.000 A 
ATOM     22  C   UNL     1      -5.595  -0.869 125.799  0.00  0.00    +0.000 A 
ATOM     23  C   UNL     1      -5.541  -1.781 126.859  0.00  0.00    +0.000 A 
ATOM     24  C   UNL     1      -6.662  -1.990 127.653  0.00  0.00    +0.000 A 
ATOM     25  C   UNL     1      -7.841  -1.314 127.360  0.00  0.00    +0.000 A 
ATOM     26  C   UNL     1      -7.921  -0.481 126.236  0.00  0.00    +0.000 A 
ENDBRANCH   1  21
BRANCH   1  28
ATOM     27  C   UNL     1      -8.045  -1.713 122.885  0.00  0.00    +0.000 C 
ATOM     28  C   UNL     1      -7.046  -0.558 122.879  0.00  0.00    +0.000 C 
ENDBRANCH   1  28
TORSDOF 8
ENDMDL
MODEL 2
REMARK VINA RESULT:      -7.1      1.397      1.793
REMARK  Name = Tamoxifen
REMARK  11 active torsions:
REMARK  status: ('A' for Active; 'I' for Inactive)
REMARK    1  A    between atoms: C_1  and  C_2
REMARK    2  A    between atoms: C_2  and  C_3
REMARK    3  A    between atoms: C_3  and  C_23
REMARK    4  A    between atoms: C_4  and  C_5
REMARK    5  A    between atoms: C_4  and  C_11
REMARK    6  A    between atoms: C_14  and  O_15
REMARK    7  A    between atoms: O_15  and  C_16
REMARK    8  A    between atoms: C_16  and  C_17
REMARK    9  A    between atoms: C_17  and  N_18
REMARK   10  A    between atoms: N_18  and  C_19
REMARK   11  A    between atoms: N_18  and  C_20
REMARK                            x       y       z     vdW  Elec       q    Type
REMARK                         _______ _______ _______ _____ _____    ______ ____
ROOT
ATOM      1  C   UNL     1      -7.004   0.424 124.012  0.00  0.00    +0.000 C 
ATOM      2  C   UNL     1      -6.918   1.802 123.935  0.00  0.00    +0.000 C 
ENDROOT
BRANCH   2   3
ATOM      3  C   UNL     1      -7.187   2.561 122.676  0.00  0.00    +0.000 A 
ATOM      4  C   UNL     1      -6.119   2.996 121.866  0.00  0.00    +0.000 A 
ATOM      5  C   UNL     1      -6.368   3.767 120.733  0.00  0.00    +0.000 A 
ATOM      6  C   UNL     1      -7.674   3.961 120.301  0.00  0.00    +0.000 A 
ATOM      7  C   UNL     1      -8.735   3.535 121.097  0.00  0.00    +0.000 A 
ATOM      8  C   UNL     1      -8.477   2.971 122.344  0.00  0.00    +0.000 A 
ENDBRANCH   2   3
BRANCH   2   9
ATOM      9  C   UNL     1      -6.553   2.646 125.119  0.00  0.00    +0.000 A 
ATOM     10  C   UNL     1      -7.583   3.159 125.930  0.00  0.00    +0.000 A 
ATOM     11  C   UNL     1      -7.293   4.016 126.984  0.00  0.00    +0.000 A 
ATOM     12  C   UNL     1      -5.973   4.280 127.320  0.00  0.00    +0.000 A 
ATOM     13  C   UNL     1      -4.940   3.773 126.521  0.00  0.00    +0.000 A 
ATOM     14  C   UNL     1      -5.236   3.017 125.397  0.00  0.00    +0.000 A 
BRANCH  12  15
ATOM     15  O   UNL     1      -5.801   5.024 128.455  0.00  0.00    +0.000 OA
BRANCH  15  16
ATOM     16  C   UNL     1      -5.662   4.243 129.640  0.00  0.00    +0.000 C 
BRANCH  16  17
ATOM     17  C   UNL     1      -6.637   4.741 130.705  0.00  0.00    +0.000 C 
BRANCH  17  18
ATOM     18  N   UNL     1      -7.578   5.753 130.184  0.00  0.00    +0.000 NA
ATOM     19  C   UNL     1      -8.940   5.222 130.074  0.00  0.00    +0.000 C 
ATOM     20  C   UNL     1      -7.582   6.921 131.066  0.00  0.00    +0.000 C 
ENDBRANCH  17  18
ENDBRANCH  16  17
ENDBRANCH  15  16
ENDBRANCH  12  15
ENDBRANCH   2   9
BRANCH   1  21
ATOM     21  C   UNL     1      -6.886  -0.289 125.353  0.00  0.00    +0.000 A 
ATOM     22  C   UNL     1      -5.631  -0.653 125.883  0.00  0.00    +0.000 A 
ATOM     23  C   UNL     1      -5.517  -1.570 126.935  0.00  0.00    +0.000 A 
ATOM     24  C   UNL     1      -6.656  -2.015 127.593  0.00  0.00    +0.000 A 
ATOM     25  C   UNL     1      -7.904  -1.571 127.175  0.00  0.00    +0.000 A 
ATOM     26  C   UNL     1      -8.021  -0.734 126.056  0.00  0.00    +0.000 A 
ENDBRANCH   1  21
BRANCH   1  28
ATOM     27  C   UNL     1      -6.265  -1.800 122.695  0.00  0.00    +0.000 C 
ATOM     28  C   UNL     1      -7.158  -0.569 122.836  0.00  0.00    +0.000 C 
ENDBRANCH   1  28
TORSDOF 8
ENDMDL
MODEL 3
REMARK VINA RESULT:      -7.0      5.152      7.043
REMARK  Name = Tamoxifen
REMARK  11 active torsions:
REMARK  status: ('A' for Active; 'I' for Inactive)
REMARK    1  A    between atoms: C_1  and  C_2
REMARK    2  A    between atoms: C_2  and  C_3
REMARK    3  A    between atoms: C_3  and  C_23
REMARK    4  A    between atoms: C_4  and  C_5
REMARK    5  A    between atoms: C_4  and  C_11
REMARK    6  A    between atoms: C_14  and  O_15
REMARK    7  A    between atoms: O_15  and  C_16
REMARK    8  A    between atoms: C_16  and  C_17
REMARK    9  A    between atoms: C_17  and  N_18
REMARK   10  A    between atoms: N_18  and  C_19
REMARK   11  A    between atoms: N_18  and  C_20
REMARK                            x       y       z     vdW  Elec       q    Type
REMARK                         _______ _______ _______ _____ _____    ______ ____
ROOT
ATOM      1  C   UNL     1      -5.665  -1.191 129.823  0.00  0.00    +0.000 C 
ATOM      2  C   UNL     1      -6.996  -1.017 129.489  0.00  0.00    +0.000 C 
ENDROOT
BRANCH   2   3
ATOM      3  C   UNL     1      -7.711  -1.905 128.523  0.00  0.00    +0.000 A 
ATOM      4  C   UNL     1      -8.263  -3.127 128.953  0.00  0.00    +0.000 A 
ATOM      5  C   UNL     1      -8.863  -3.988 128.036  0.00  0.00    +0.000 A 
ATOM      6  C   UNL     1      -9.076  -3.566 126.730  0.00  0.00    +0.000 A 
ATOM      7  C   UNL     1      -8.533  -2.359 126.296  0.00  0.00    +0.000 A 
ATOM      8  C   UNL     1      -7.733  -1.615 127.160  0.00  0.00    +0.000 A 
ENDBRANCH   2   3
BRANCH   2   9
ATOM      9  C   UNL     1      -7.830   0.079 130.081  0.00  0.00    +0.000 A 
ATOM     10  C   UNL     1      -7.854   1.333 129.440  0.00  0.00    +0.000 A 
ATOM     11  C   UNL     1      -8.542   2.401 130.001  0.00  0.00    +0.000 A 
ATOM     12  C   UNL     1      -9.311   2.208 131.141  0.00  0.00    +0.000 A 
ATOM     13  C   UNL     1      -9.296   0.965 131.785  0.00  0.00    +0.000 A 
ATOM     14  C   UNL     1      -8.511  -0.066 131.290  0.00  0.00    +0.000 A 
BRANCH  12  15
ATOM     15  O   UNL     1     -10.054   3.290 131.528  0.00  0.00    +0.000 OA
BRANCH  15  16
ATOM     16  C   UNL     1      -9.934   4.413 130.659  0.00  0.00    +0.000 C 
BRANCH  16  17
ATOM     17  C   UNL     1     -11.305   5.051 130.444  0.00  0.00    +0.000 C 
BRANCH  17  18
ATOM     18  N   UNL     1     -11.402   5.764 129.154  0.00  0.00    +0.000 NA
ATOM     19  C   UNL     1     -12.631   6.558 129.064  0.00  0.00    +0.000 C 
ATOM     20  C   UNL     1     -10.243   6.642 128.990  0.00  0.00    +0.000 C 
ENDBRANCH  17  18
ENDBRANCH  16  17
ENDBRANCH  15  16
ENDBRANCH  12  15
ENDBRANCH   2   9
BRANCH   1  21
ATOM     21  C   UNL     1      -5.028  -0.368 130.935  0.00  0.00    +0.000 A 
ATOM     22  C   UNL     1      -5.159  -0.738 132.290  0.00  0.00    +0.000 A 
ATOM     23  C   UNL     1      -4.861   0.154 133.326  0.00  0.00    +0.000 A 
ATOM     24  C   UNL     1      -4.264   1.376 133.039  0.00  0.00    +0.000 A 
ATOM     25  C   UNL     1      -4.002   1.714 131.717  0.00  0.00    +0.000 A 
ATOM     26  C   UNL     1      -4.397   0.863 130.675  0.00  0.00    +0.000 A 
ENDBRANCH   1  21
BRANCH   1  28
ATOM     27  C   UNL     1      -4.490  -3.593 129.553  0.00  0.00    +0.000 C 
ATOM     28  C   UNL     1      -4.646  -2.132 129.139  0.00  0.00    +0.000 C 
ENDBRANCH   1  28
TORSDOF 8
ENDMDL
MODEL 4
REMARK VINA RESULT:      -7.0      3.520      6.641
REMARK  Name = Tamoxifen
REMARK  11 active torsions:
REMARK  status: ('A' for Active; 'I' for Inactive)
REMARK    1  A    between atoms: C_1  and  C_2
REMARK    2  A    between atoms: C_2  and  C_3
REMARK    3  A    between atoms: C_3  and  C_23
REMARK    4  A    between atoms: C_4  and  C_5
REMARK    5  A    between atoms: C_4  and  C_11
REMARK    6  A    between atoms: C_14  and  O_15
REMARK    7  A    between atoms: O_15  and  C_16
REMARK    8  A    between atoms: C_16  and  C_17
REMARK    9  A    between atoms: C_17  and  N_18
REMARK   10  A    between atoms: N_18  and  C_19
REMARK   11  A    between atoms: N_18  and  C_20
REMARK                            x       y       z     vdW  Elec       q    Type
REMARK                         _______ _______ _______ _____ _____    ______ ____
ROOT
ATOM      1  C   UNL     1      -7.835  -1.907 127.995  0.00  0.00    +0.000 C 
ATOM      2  C   UNL     1      -7.597  -0.558 128.190  0.00  0.00    +0.000 C 
ENDROOT
BRANCH   2   3
ATOM      3  C   UNL     1      -7.343   0.033 129.539  0.00  0.00    +0.000 A 
ATOM      4  C   UNL     1      -6.059  -0.033 130.114  0.00  0.00    +0.000 A 
ATOM      5  C   UNL     1      -5.841   0.451 131.402  0.00  0.00    +0.000 A 
ATOM      6  C   UNL     1      -6.845   1.157 132.054  0.00  0.00    +0.000 A 
ATOM      7  C   UNL     1      -8.118   1.225 131.493  0.00  0.00    +0.000 A 
ATOM      8  C   UNL     1      -8.387   0.537 130.312  0.00  0.00    +0.000 A 
ENDBRANCH   2   3
BRANCH   2   9
ATOM      9  C   UNL     1      -7.571   0.420 127.054  0.00  0.00    +0.000 A 
ATOM     10  C   UNL     1      -8.792   0.849 126.502  0.00  0.00    +0.000 A 
ATOM     11  C   UNL     1      -8.812   1.685 125.392  0.00  0.00    +0.000 A 
ATOM     12  C   UNL     1      -7.624   2.200 124.891  0.00  0.00    +0.000 A 
ATOM     13  C   UNL     1      -6.404   1.780 125.434  0.00  0.00    +0.000 A 
ATOM     14  C   UNL     1      -6.382   0.850 126.463  0.00  0.00    +0.000 A 
BRANCH  12  15
ATOM     15  O   UNL     1      -7.768   3.118 123.887  0.00  0.00    +0.000 OA
BRANCH  15  16
ATOM     16  C   UNL     1      -6.543   3.479 123.255  0.00  0.00    +0.000 C 
BRANCH  16  17
ATOM     17  C   UNL     1      -6.432   2.780 121.902  0.00  0.00    +0.000 C 
BRANCH  17  18
ATOM     18  N   UNL     1      -5.691   3.582 120.908  0.00  0.00    +0.000 NA
ATOM     19  C   UNL     1      -6.594   4.253 119.969  0.00  0.00    +0.000 C 
ATOM     20  C   UNL     1      -4.875   4.584 121.596  0.00  0.00    +0.000 C 
ENDBRANCH  17  18
ENDBRANCH  16  17
ENDBRANCH  15  16
ENDBRANCH  12  15
ENDBRANCH   2   9
BRANCH   1  21
ATOM     21  C   UNL     1      -7.921  -2.486 126.589  0.00  0.00    +0.000 A 
ATOM     22  C   UNL     1      -6.774  -2.627 125.781  0.00  0.00    +0.000 A 
ATOM     23  C   UNL     1      -6.870  -2.853 124.403  0.00  0.00    +0.000 A 
ATOM     24  C   UNL     1      -8.108  -3.113 123.828  0.00  0.00    +0.000 A 
ATOM     25  C   UNL     1      -9.246  -3.109 124.625  0.00  0.00    +0.000 A 
ATOM     26  C   UNL     1      -9.158  -2.780 125.985  0.00  0.00    +0.000 A 
ENDBRANCH   1  21
BRANCH   1  28
ATOM     27  C   UNL     1      -6.960  -3.708 129.788  0.00  0.00    +0.000 C 
ATOM     28  C   UNL     1      -8.098  -2.975 129.082  0.00  0.00    +0.000 C 
ENDBRANCH   1  28
TORSDOF 8
ENDMDL
MODEL 5
REMARK VINA RESULT:      -7.0      3.177      6.784
REMARK  Name = Tamoxifen
REMARK  11 active torsions:
REMARK  status: ('A' for Active; 'I' for Inactive)
REMARK    1  A    between atoms: C_1  and  C_2
REMARK    2  A    between atoms: C_2  and  C_3
REMARK    3  A    between atoms: C_3  and  C_23
REMARK    4  A    between atoms: C_4  and  C_5
REMARK    5  A    between atoms: C_4  and  C_11
REMARK    6  A    between atoms: C_14  and  O_15
REMARK    7  A    between atoms: O_15  and  C_16
REMARK    8  A    between atoms: C_16  and  C_17
REMARK    9  A    between atoms: C_17  and  N_18
REMARK   10  A    between atoms: N_18  and  C_19
REMARK   11  A    between atoms: N_18  and  C_20
REMARK                            x       y       z     vdW  Elec       q    Type
REMARK                         _______ _______ _______ _____ _____    ______ ____
ROOT
ATOM      1  C   UNL     1      -7.887  -2.830 126.794  0.00  0.00    +0.000 C 
ATOM      2  C   UNL     1      -7.402  -1.832 127.620  0.00  0.00    +0.000 C 
ENDROOT
BRANCH   2   3
ATOM      3  C   UNL     1      -7.296  -1.989 129.102  0.00  0.00    +0.000 A 
ATOM      4  C   UNL     1      -7.925  -1.067 129.962  0.00  0.00    +0.000 A 
ATOM      5  C   UNL     1      -7.764  -1.172 131.342  0.00  0.00    +0.000 A 
ATOM      6  C   UNL     1      -7.129  -2.284 131.882  0.00  0.00    +0.000 A 
ATOM      7  C   UNL     1      -6.503  -3.199 131.038  0.00  0.00    +0.000 A 
ATOM      8  C   UNL     1      -6.471  -2.960 129.666  0.00  0.00    +0.000 A 
ENDBRANCH   2   3
BRANCH   2   9
ATOM      9  C   UNL     1      -6.938  -0.510 127.087  0.00  0.00    +0.000 A 
ATOM     10  C   UNL     1      -7.902   0.449 126.722  0.00  0.00    +0.000 A 
ATOM     11  C   UNL     1      -7.519   1.652 126.143  0.00  0.00    +0.000 A 
ATOM     12  C   UNL     1      -6.172   1.967 126.026  0.00  0.00    +0.000 A 
ATOM     13  C   UNL     1      -5.205   1.020 126.386  0.00  0.00    +0.000 A 
ATOM     14  C   UNL     1      -5.592  -0.228 126.852  0.00  0.00    +0.000 A 
BRANCH  12  15
ATOM     15  O   UNL     1      -5.909   3.229 125.569  0.00  0.00    +0.000 OA
BRANCH  15  16
ATOM     16  C   UNL     1      -6.796   3.667 124.542  0.00  0.00    +0.000 C 
BRANCH  16  17
ATOM     17  C   UNL     1      -6.082   3.636 123.193  0.00  0.00    +0.000 C 
BRANCH  17  18
ATOM     18  N   UNL     1      -6.909   3.032 122.128  0.00  0.00    +0.000 NA
ATOM     19  C   UNL     1      -8.326   2.987 122.502  0.00  0.00    +0.000 C 
ATOM     20  C   UNL     1      -6.757   3.801 120.893  0.00  0.00    +0.000 C 
ENDBRANCH  17  18
ENDBRANCH  16  17
ENDBRANCH  15  16
ENDBRANCH  12  15
ENDBRANCH   2   9
BRANCH   1  21
ATOM     21  C   UNL     1      -7.819  -2.687 125.279  0.00  0.00    +0.000 A 
ATOM     22  C   UNL     1      -6.597  -2.805 124.584  0.00  0.00    +0.000 A 
ATOM     23  C   UNL     1      -6.461  -2.372 123.261  0.00  0.00    +0.000 A 
ATOM     24  C   UNL     1      -7.581  -1.968 122.544  0.00  0.00    +0.000 A 
ATOM     25  C   UNL     1      -8.824  -1.965 123.165  0.00  0.00    +0.000 A 
ATOM     26  C   UNL     1      -8.941  -2.300 124.522  0.00  0.00    +0.000 A 
ENDBRANCH   1  21
BRANCH   1  28
ATOM     27  C   UNL     1      -9.729  -4.151 128.239  0.00  0.00    +0.000 C 
ATOM     28  C   UNL     1      -8.588  -4.140 127.224  0.00  0.00    +0.000 C 
ENDBRANCH   1  28
TORSDOF 8
ENDMDL
MODEL 6
REMARK VINA RESULT:      -6.8      5.900      9.647
REMARK  Name = Tamoxifen
REMARK  11 active torsions:
REMARK  status: ('A' for Active; 'I' for Inactive)
REMARK    1  A    between atoms: C_1  and  C_2
REMARK    2  A    between atoms: C_2  and  C_3
REMARK    3  A    between atoms: C_3  and  C_23
REMARK    4  A    between atoms: C_4  and  C_5
REMARK    5  A    between atoms: C_4  and  C_11
REMARK    6  A    between atoms: C_14  and  O_15
REMARK    7  A    between atoms: O_15  and  C_16
REMARK    8  A    between atoms: C_16  and  C_17
REMARK    9  A    between atoms: C_17  and  N_18
REMARK   10  A    between atoms: N_18  and  C_19
REMARK   11  A    between atoms: N_18  and  C_20
REMARK                            x       y       z     vdW  Elec       q    Type
REMARK                         _______ _______ _______ _____ _____    ______ ____
ROOT
ATOM      1  C   UNL     1      -2.988   5.258 131.999  0.00  0.00    +0.000 C 
ATOM      2  C   UNL     1      -3.803   6.285 132.441  0.00  0.00    +0.000 C 
ENDROOT
BRANCH   2   3
ATOM      3  C   UNL     1      -3.271   7.501 133.127  0.00  0.00    +0.000 A 
ATOM      4  C   UNL     1      -2.778   8.585 132.374  0.00  0.00    +0.000 A 
ATOM      5  C   UNL     1      -2.214   9.686 133.015  0.00  0.00    +0.000 A 
ATOM      6  C   UNL     1      -2.295   9.797 134.398  0.00  0.00    +0.000 A 
ATOM      7  C   UNL     1      -2.779   8.729 135.150  0.00  0.00    +0.000 A 
ATOM      8  C   UNL     1      -3.124   7.540 134.513  0.00  0.00    +0.000 A 
ENDBRANCH   2   3
BRANCH   2   9
ATOM      9  C   UNL     1      -5.290   6.258 132.260  0.00  0.00    +0.000 A 
ATOM     10  C   UNL     1      -5.847   6.888 131.131  0.00  0.00    +0.000 A 
ATOM     11  C   UNL     1      -7.225   6.962 130.970  0.00  0.00    +0.000 A 
ATOM     12  C   UNL     1      -8.064   6.310 131.864  0.00  0.00    +0.000 A 
ATOM     13  C   UNL     1      -7.520   5.679 132.989  0.00  0.00    +0.000 A 
ATOM     14  C   UNL     1      -6.151   5.711 133.213  0.00  0.00    +0.000 A 
BRANCH  12  15
ATOM     15  O   UNL     1      -9.391   6.333 131.534  0.00  0.00    +0.000 OA
BRANCH  15  16
ATOM     16  C   UNL     1      -9.676   7.051 130.336  0.00  0.00    +0.000 C 
BRANCH  16  17
ATOM     17  C   UNL     1     -11.170   7.358 130.259  0.00  0.00    +0.000 C 
BRANCH  17  18
ATOM     18  N   UNL     1     -11.570   7.900 128.945  0.00  0.00    +0.000 NA
ATOM     19  C   UNL     1     -12.589   8.945 129.076  0.00  0.00    +0.000 C 
ATOM     20  C   UNL     1     -10.398   8.448 128.262  0.00  0.00    +0.000 C 
ENDBRANCH  17  18
ENDBRANCH  16  17
ENDBRANCH  15  16
ENDBRANCH  12  15
ENDBRANCH   2   9
BRANCH   1  21
ATOM     21  C   UNL     1      -3.557   4.121 131.158  0.00  0.00    +0.000 A 
ATOM     22  C   UNL     1      -3.998   2.920 131.751  0.00  0.00    +0.000 A 
ATOM     23  C   UNL     1      -4.222   1.766 130.991  0.00  0.00    +0.000 A 
ATOM     24  C   UNL     1      -4.176   1.830 129.603  0.00  0.00    +0.000 A 
ATOM     25  C   UNL     1      -3.871   3.037 128.985  0.00  0.00    +0.000 A 
ATOM     26  C   UNL     1      -3.545   4.164 129.751  0.00  0.00    +0.000 A 
ENDBRANCH   1  21
BRANCH   1  28
ATOM     27  C   UNL     1      -0.439   6.108 131.938  0.00  0.00    +0.000 C 
ATOM     28  C   UNL     1      -1.486   5.059 132.306  0.00  0.00    +0.000 C 
ENDBRANCH   1  28
TORSDOF 8
ENDMDL
MODEL 7
REMARK VINA RESULT:      -6.8      2.924      6.097
REMARK  Name = Tamoxifen
REMARK  11 active torsions:
REMARK  status: ('A' for Active; 'I' for Inactive)
REMARK    1  A    between atoms: C_1  and  C_2
REMARK    2  A    between atoms: C_2  and  C_3
REMARK    3  A    between atoms: C_3  and  C_23
REMARK    4  A    between atoms: C_4  and  C_5
REMARK    5  A    between atoms: C_4  and  C_11
REMARK    6  A    between atoms: C_14  and  O_15
REMARK    7  A    between atoms: O_15  and  C_16
REMARK    8  A    between atoms: C_16  and  C_17
REMARK    9  A    between atoms: C_17  and  N_18
REMARK   10  A    between atoms: N_18  and  C_19
REMARK   11  A    between atoms: N_18  and  C_20
REMARK                            x       y       z     vdW  Elec       q    Type
REMARK                         _______ _______ _______ _____ _____    ______ ____
ROOT
ATOM      1  C   UNL     1      -7.893  -2.871 126.853  0.00  0.00    +0.000 C 
ATOM      2  C   UNL     1      -7.387  -1.891 127.688  0.00  0.00    +0.000 C 
ENDROOT
BRANCH   2   3
ATOM      3  C   UNL     1      -7.277  -2.066 129.168  0.00  0.00    +0.000 A 
ATOM      4  C   UNL     1      -7.924  -1.170 130.041  0.00  0.00    +0.000 A 
ATOM      5  C   UNL     1      -7.759  -1.291 131.419  0.00  0.00    +0.000 A 
ATOM      6  C   UNL     1      -7.101  -2.397 131.943  0.00  0.00    +0.000 A 
ATOM      7  C   UNL     1      -6.457  -3.287 131.086  0.00  0.00    +0.000 A 
ATOM      8  C   UNL     1      -6.431  -3.028 129.717  0.00  0.00    +0.000 A 
ENDBRANCH   2   3
BRANCH   2   9
ATOM      9  C   UNL     1      -6.904  -0.571 127.167  0.00  0.00    +0.000 A 
ATOM     10  C   UNL     1      -7.853   0.408 126.816  0.00  0.00    +0.000 A 
ATOM     11  C   UNL     1      -7.452   1.610 126.248  0.00  0.00    +0.000 A 
ATOM     12  C   UNL     1      -6.100   1.905 126.130  0.00  0.00    +0.000 A 
ATOM     13  C   UNL     1      -5.148   0.939 126.478  0.00  0.00    +0.000 A 
ATOM     14  C   UNL     1      -5.553  -0.308 126.931  0.00  0.00    +0.000 A 
BRANCH  12  15
ATOM     15  O   UNL     1      -5.819   3.168 125.686  0.00  0.00    +0.000 OA
BRANCH  15  16
ATOM     16  C   UNL     1      -4.451   3.541 125.837  0.00  0.00    +0.000 C 
BRANCH  16  17
ATOM     17  C   UNL     1      -4.311   4.546 126.978  0.00  0.00    +0.000 C 
BRANCH  17  18
ATOM     18  N   UNL     1      -2.939   4.596 127.523  0.00  0.00    +0.000 NA
ATOM     19  C   UNL     1      -2.939   4.645 128.988  0.00  0.00    +0.000 C 
ATOM     20  C   UNL     1      -2.190   3.421 127.076  0.00  0.00    +0.000 C 
ENDBRANCH  17  18
ENDBRANCH  16  17
ENDBRANCH  15  16
ENDBRANCH  12  15
ENDBRANCH   2   9
BRANCH   1  21
ATOM     21  C   UNL     1      -7.830  -2.712 125.339  0.00  0.00    +0.000 A 
ATOM     22  C   UNL     1      -6.613  -2.841 124.638  0.00  0.00    +0.000 A 
ATOM     23  C   UNL     1      -6.476  -2.395 123.318  0.00  0.00    +0.000 A 
ATOM     24  C   UNL     1      -7.593  -1.965 122.612  0.00  0.00    +0.000 A 
ATOM     25  C   UNL     1      -8.833  -1.950 123.239  0.00  0.00    +0.000 A 
ATOM     26  C   UNL     1      -8.949  -2.299 124.592  0.00  0.00    +0.000 A 
ENDBRANCH   1  21
BRANCH   1  28
ATOM     27  C   UNL     1      -9.749  -4.178 128.292  0.00  0.00    +0.000 C 
ATOM     28  C   UNL     1      -8.614  -4.174 127.271  0.00  0.00    +0.000 C 
ENDBRANCH   1  28
TORSDOF 8
ENDMDL
MODEL 8
REMARK VINA RESULT:      -6.7      5.368      7.400
REMARK  Name = Tamoxifen
REMARK  11 active torsions:
REMARK  status: ('A' for Active; 'I' for Inactive)
REMARK    1  A    between atoms: C_1  and  C_2
REMARK    2  A    between atoms: C_2  and  C_3
REMARK    3  A    between atoms: C_3  and  C_23
REMARK    4  A    between atoms: C_4  and  C_5
REMARK    5  A    between atoms: C_4  and  C_11
REMARK    6  A    between atoms: C_14  and  O_15
REMARK    7  A    between atoms: O_15  and  C_16
REMARK    8  A    between atoms: C_16  and  C_17
REMARK    9  A    between atoms: C_17  and  N_18
REMARK   10  A    between atoms: N_18  and  C_19
REMARK   11  A    between atoms: N_18  and  C_20
REMARK                            x       y       z     vdW  Elec       q    Type
REMARK                         _______ _______ _______ _____ _____    ______ ____
ROOT
ATOM      1  C   UNL     1      -6.003  -2.240 130.812  0.00  0.00    +0.000 C 
ATOM      2  C   UNL     1      -7.053  -1.648 130.133  0.00  0.00    +0.000 C 
ENDROOT
BRANCH   2   3
ATOM      3  C   UNL     1      -7.701  -2.273 128.940  0.00  0.00    +0.000 A 
ATOM      4  C   UNL     1      -8.511  -3.415 129.087  0.00  0.00    +0.000 A 
ATOM      5  C   UNL     1      -9.053  -4.040 127.965  0.00  0.00    +0.000 A 
ATOM      6  C   UNL     1      -8.941  -3.440 126.717  0.00  0.00    +0.000 A 
ATOM      7  C   UNL     1      -8.140  -2.310 126.564  0.00  0.00    +0.000 A 
ATOM      8  C   UNL     1      -7.414  -1.829 127.650  0.00  0.00    +0.000 A 
ENDBRANCH   2   3
BRANCH   2   9
ATOM      9  C   UNL     1      -7.628  -0.327 130.548  0.00  0.00    +0.000 A 
ATOM     10  C   UNL     1      -8.750  -0.314 131.398  0.00  0.00    +0.000 A 
ATOM     11  C   UNL     1      -9.367   0.884 131.736  0.00  0.00    +0.000 A 
ATOM     12  C   UNL     1      -8.808   2.090 131.333  0.00  0.00    +0.000 A 
ATOM     13  C   UNL     1      -7.691   2.087 130.489  0.00  0.00    +0.000 A 
ATOM     14  C   UNL     1      -7.150   0.887 130.053  0.00  0.00    +0.000 A 
BRANCH  12  15
ATOM     15  O   UNL     1      -9.417   3.207 131.835  0.00  0.00    +0.000 OA
BRANCH  15  16
ATOM     16  C   UNL     1      -9.558   4.262 130.887  0.00  0.00    +0.000 C 
BRANCH  16  17
ATOM     17  C   UNL     1     -11.025   4.404 130.484  0.00  0.00    +0.000 C 
BRANCH  17  18
ATOM     18  N   UNL     1     -11.448   5.815 130.375  0.00  0.00    +0.000 NA
ATOM     19  C   UNL     1     -11.530   6.460 131.688  0.00  0.00    +0.000 C 
ATOM     20  C   UNL     1     -10.503   6.547 129.532  0.00  0.00    +0.000 C 
ENDBRANCH  17  18
ENDBRANCH  16  17
ENDBRANCH  15  16
ENDBRANCH  12  15
ENDBRANCH   2   9
BRANCH   1  21
ATOM     21  C   UNL     1      -5.489  -1.648 132.117  0.00  0.00    +0.000 A 
ATOM     22  C   UNL     1      -4.338  -0.834 132.151  0.00  0.00    +0.000 A 
ATOM     23  C   UNL     1      -3.677  -0.546 133.351  0.00  0.00    +0.000 A 
ATOM     24  C   UNL     1      -4.245  -0.922 134.563  0.00  0.00    +0.000 A 
ATOM     25  C   UNL     1      -5.450  -1.614 134.566  0.00  0.00    +0.000 A 
ATOM     26  C   UNL     1      -6.056  -1.991 133.359  0.00  0.00    +0.000 A 
ENDBRANCH   1  21
BRANCH   1  28
ATOM     27  C   UNL     1      -5.479  -4.874 130.909  0.00  0.00    +0.000 C 
ATOM     28  C   UNL     1      -5.185  -3.476 130.371  0.00  0.00    +0.000 C 
ENDBRANCH   1  28
TORSDOF 8
ENDMDL
MODEL 9
REMARK VINA RESULT:      -6.7      1.867      5.437
REMARK  Name = Tamoxifen
REMARK  11 active torsions:
REMARK  status: ('A' for Active; 'I' for Inactive)
REMARK    1  A    between atoms: C_1  and  C_2
REMARK    2  A    between atoms: C_2  and  C_3
REMARK    3  A    between atoms: C_3  and  C_23
REMARK    4  A    between atoms: C_4  and  C_5
REMARK    5  A    between atoms: C_4  and  C_11
REMARK    6  A    between atoms: C_14  and  O_15
REMARK    7  A    between atoms: O_15  and  C_16
REMARK    8  A    between atoms: C_16  and  C_17
REMARK    9  A    between atoms: C_17  and  N_18
REMARK   10  A    between atoms: N_18  and  C_19
REMARK   11  A    between atoms: N_18  and  C_20
REMARK                            x       y       z     vdW  Elec       q    Type
REMARK                         _______ _______ _______ _____ _____    ______ ____
ROOT
ATOM      1  C   UNL     1      -8.263  -1.127 126.214  0.00  0.00    +0.000 C 
ATOM      2  C   UNL     1      -7.583  -0.765 127.363  0.00  0.00    +0.000 C 
ENDROOT
BRANCH   2   3
ATOM      3  C   UNL     1      -7.131  -1.759 128.383  0.00  0.00    +0.000 A 
ATOM      4  C   UNL     1      -7.988  -2.141 129.433  0.00  0.00    +0.000 A 
ATOM      5  C   UNL     1      -7.539  -3.010 130.425  0.00  0.00    +0.000 A 
ATOM      6  C   UNL     1      -6.308  -3.640 130.287  0.00  0.00    +0.000 A 
ATOM      7  C   UNL     1      -5.454  -3.266 129.251  0.00  0.00    +0.000 A 
ATOM      8  C   UNL     1      -5.818  -2.226 128.399  0.00  0.00    +0.000 A 
ENDBRANCH   2   3
BRANCH   2   9
ATOM      9  C   UNL     1      -7.242   0.662 127.671  0.00  0.00    +0.000 A 
ATOM     10  C   UNL     1      -8.208   1.469 128.301  0.00  0.00    +0.000 A 
ATOM     11  C   UNL     1      -7.966   2.818 128.525  0.00  0.00    +0.000 A 
ATOM     12  C   UNL     1      -6.719   3.356 128.237  0.00  0.00    +0.000 A 
ATOM     13  C   UNL     1      -5.750   2.561 127.612  0.00  0.00    +0.000 A 
ATOM     14  C   UNL     1      -6.037   1.246 127.278  0.00  0.00    +0.000 A 
BRANCH  12  15
ATOM     15  O   UNL     1      -6.545   4.656 128.624  0.00  0.00    +0.000 OA
BRANCH  15  16
ATOM     16  C   UNL     1      -5.919   4.801 129.896  0.00  0.00    +0.000 C 
BRANCH  16  17
ATOM     17  C   UNL     1      -4.505   5.351 129.719  0.00  0.00    +0.000 C 
BRANCH  17  18
ATOM     18  N   UNL     1      -4.495   6.715 129.151  0.00  0.00    +0.000 NA
ATOM     19  C   UNL     1      -4.581   7.739 130.195  0.00  0.00    +0.000 C 
ATOM     20  C   UNL     1      -3.271   6.914 128.375  0.00  0.00    +0.000 C 
ENDBRANCH  17  18
ENDBRANCH  16  17
ENDBRANCH  15  16
ENDBRANCH  12  15
ENDBRANCH   2   9
BRANCH   1  21
ATOM     21  C   UNL     1      -8.554  -0.100 125.126  0.00  0.00    +0.000 A 
ATOM     22  C   UNL     1      -7.594   0.220 124.143  0.00  0.00    +0.000 A 
ATOM     23  C   UNL     1      -7.716   1.363 123.345  0.00  0.00    +0.000 A 
ATOM     24  C   UNL     1      -8.881   2.120 123.389  0.00  0.00    +0.000 A 
ATOM     25  C   UNL     1      -9.901   1.751 124.258  0.00  0.00    +0.000 A 
ATOM     26  C   UNL     1      -9.734   0.668 125.131  0.00  0.00    +0.000 A 
ENDBRANCH   1  21
BRANCH   1  28
ATOM     27  C   UNL     1      -8.071  -3.567 125.103  0.00  0.00    +0.000 C 
ATOM     28  C   UNL     1      -8.859  -2.514 125.879  0.00  0.00    +0.000 C 
ENDBRANCH   1  28
TORSDOF 8
ENDMDL
