MODEL 1
REMARK VINA RESULT:      -5.7      0.000      0.000
REMARK  Name = Tapentadol
REMARK  10 active torsions:
REMARK  status: ('A' for Active; 'I' for Inactive)
REMARK    1  A    between atoms: C_1  and  C_2
REMARK    2  A    between atoms: C_2  and  C_3
REMARK    3  A    between atoms: C_3  and  C_4
REMARK    4  A    between atoms: C_3  and  C_10
REMARK    5  A    between atoms: C_4  and  C_5
REMARK    6  A    between atoms: C_4  and  C_6
REMARK    7  A    between atoms: C_6  and  N_7
REMARK    8  A    between atoms: N_7  and  C_8
REMARK    9  A    between atoms: N_7  and  C_9
REMARK   10  A    between atoms: C_12  and  O_13
REMARK                            x       y       z     vdW  Elec       q    Type
REMARK                         _______ _______ _______ _____ _____    ______ ____
ROOT
ATOM      1  C   UNL     1      -7.702  -2.824 125.076  0.00  0.00    +0.000 C 
ENDROOT
BRANCH   1   2
ATOM      2  C   UNL     1      -7.830  -2.912 126.623  0.00  0.00    +0.000 A 
ATOM      3  C   UNL     1      -6.922  -2.313 127.496  0.00  0.00    +0.000 A 
ATOM      4  C   UNL     1      -7.022  -2.228 128.868  0.00  0.00    +0.000 A 
ATOM      5  C   UNL     1      -7.993  -2.978 129.486  0.00  0.00    +0.000 A 
ATOM      6  C   UNL     1      -8.850  -3.728 128.678  0.00  0.00    +0.000 A 
ATOM      7  C   UNL     1      -8.803  -3.678 127.267  0.00  0.00    +0.000 A 
BRANCH   4   8
ATOM      8  O   UNL     1      -6.180  -1.470 129.619  0.00  0.00    +0.000 OA
ATOM      9  H   UNL     1      -5.413  -1.220 129.072  0.00  0.00    +0.000 HD
ENDBRANCH   4   8
ENDBRANCH   1   2
BRANCH   1  11
ATOM     10  C   UNL     1      -5.449  -2.803 123.791  0.00  0.00    +0.000 C 
ATOM     11  C   UNL     1      -6.421  -2.042 124.692  0.00  0.00    +0.000 C 
ENDBRANCH   1  11
BRANCH   1  12
ATOM     12  C   UNL     1      -9.014  -2.335 124.293  0.00  0.00    +0.000 C 
ATOM     13  C   UNL     1      -9.619  -3.342 123.292  0.00  0.00    +0.000 C 
BRANCH  12  14
ATOM     14  C   UNL     1      -8.904  -0.939 123.595  0.00  0.00    +0.000 C 
BRANCH  14  15
ATOM     15  N   UNL     1      -9.747   0.118 124.193  0.00  0.00    +0.000 NA
ATOM     16  C   UNL     1      -9.479   0.428 125.584  0.00  0.00    +0.000 C 
ATOM     17  C   UNL     1      -9.812   1.372 123.446  0.00  0.00    +0.000 C 
ENDBRANCH  14  15
ENDBRANCH  12  14
ENDBRANCH   1  12
TORSDOF 6
ENDMDL
MODEL 2
REMARK VINA RESULT:      -5.5      2.594      4.530
REMARK  Name = Tapentadol
REMARK  10 active torsions:
REMARK  status: ('A' for Active; 'I' for Inactive)
REMARK    1  A    between atoms: C_1  and  C_2
REMARK    2  A    between atoms: C_2  and  C_3
REMARK    3  A    between atoms: C_3  and  C_4
REMARK    4  A    between atoms: C_3  and  C_10
REMARK    5  A    between atoms: C_4  and  C_5
REMARK    6  A    between atoms: C_4  and  C_6
REMARK    7  A    between atoms: C_6  and  N_7
REMARK    8  A    between atoms: N_7  and  C_8
REMARK    9  A    between atoms: N_7  and  C_9
REMARK   10  A    between atoms: C_12  and  O_13
REMARK                            x       y       z     vdW  Elec       q    Type
REMARK                         _______ _______ _______ _____ _____    ______ ____
ROOT
ATOM      1  C   UNL     1      -8.824  -2.317 125.906  0.00  0.00    +0.000 C 
ENDROOT
BRANCH   1   2
ATOM      2  C   UNL     1      -8.615  -0.800 126.170  0.00  0.00    +0.000 A 
ATOM      3  C   UNL     1      -9.073   0.192 125.303  0.00  0.00    +0.000 A 
ATOM      4  C   UNL     1      -9.050   1.555 125.514  0.00  0.00    +0.000 A 
ATOM      5  C   UNL     1      -8.321   2.025 126.580  0.00  0.00    +0.000 A 
ATOM      6  C   UNL     1      -7.703   1.087 127.411  0.00  0.00    +0.000 A 
ATOM      7  C   UNL     1      -7.868  -0.306 127.241  0.00  0.00    +0.000 A 
BRANCH   4   8
ATOM      8  O   UNL     1      -9.681   2.435 124.693  0.00  0.00    +0.000 OA
ATOM      9  H   UNL     1      -9.190   3.277 124.701  0.00  0.00    +0.000 HD
ENDBRANCH   4   8
ENDBRANCH   1   2
BRANCH   1  11
ATOM     10  C   UNL     1      -9.171  -3.998 127.851  0.00  0.00    +0.000 C 
ATOM     11  C   UNL     1      -8.187  -3.149 127.047  0.00  0.00    +0.000 C 
ENDBRANCH   1  11
BRANCH   1  12
ATOM     12  C   UNL     1      -8.432  -2.831 124.438  0.00  0.00    +0.000 C 
ATOM     13  C   UNL     1      -9.584  -3.427 123.600  0.00  0.00    +0.000 C 
BRANCH  12  14
ATOM     14  C   UNL     1      -7.207  -3.802 124.367  0.00  0.00    +0.000 C 
BRANCH  14  15
ATOM     15  N   UNL     1      -5.921  -3.148 124.040  0.00  0.00    +0.000 NA
ATOM     16  C   UNL     1      -4.805  -4.038 123.792  0.00  0.00    +0.000 C 
ATOM     17  C   UNL     1      -5.971  -2.160 122.965  0.00  0.00    +0.000 C 
ENDBRANCH  14  15
ENDBRANCH  12  14
ENDBRANCH   1  12
TORSDOF 6
ENDMDL
MODEL 3
REMARK VINA RESULT:      -5.5      1.242      2.213
REMARK  Name = Tapentadol
REMARK  10 active torsions:
REMARK  status: ('A' for Active; 'I' for Inactive)
REMARK    1  A    between atoms: C_1  and  C_2
REMARK    2  A    between atoms: C_2  and  C_3
REMARK    3  A    between atoms: C_3  and  C_4
REMARK    4  A    between atoms: C_3  and  C_10
REMARK    5  A    between atoms: C_4  and  C_5
REMARK    6  A    between atoms: C_4  and  C_6
REMARK    7  A    between atoms: C_6  and  N_7
REMARK    8  A    between atoms: N_7  and  C_8
REMARK    9  A    between atoms: N_7  and  C_9
REMARK   10  A    between atoms: C_12  and  O_13
REMARK                            x       y       z     vdW  Elec       q    Type
REMARK                         _______ _______ _______ _____ _____    ______ ____
ROOT
ATOM      1  C   UNL     1      -8.834  -1.625 125.304  0.00  0.00    +0.000 C 
ENDROOT
BRANCH   1   2
ATOM      2  C   UNL     1      -8.515  -2.344 126.645  0.00  0.00    +0.000 A 
ATOM      3  C   UNL     1      -7.497  -1.931 127.504  0.00  0.00    +0.000 A 
ATOM      4  C   UNL     1      -7.225  -2.419 128.765  0.00  0.00    +0.000 A 
ATOM      5  C   UNL     1      -7.869  -3.568 129.158  0.00  0.00    +0.000 A 
ATOM      6  C   UNL     1      -8.798  -4.128 128.278  0.00  0.00    +0.000 A 
ATOM      7  C   UNL     1      -9.151  -3.518 127.054  0.00  0.00    +0.000 A 
BRANCH   4   8
ATOM      8  O   UNL     1      -6.327  -1.834 129.600  0.00  0.00    +0.000 OA
ATOM      9  H   UNL     1      -6.640  -1.937 130.517  0.00  0.00    +0.000 HD
ENDBRANCH   4   8
ENDBRANCH   1   2
BRANCH   1  11
ATOM     10  C   UNL     1      -9.442  -3.168 123.309  0.00  0.00    +0.000 C 
ATOM     11  C   UNL     1      -8.338  -2.480 124.111  0.00  0.00    +0.000 C 
ENDBRANCH   1  11
BRANCH   1  12
ATOM     12  C   UNL     1      -8.400  -0.084 125.216  0.00  0.00    +0.000 C 
ATOM     13  C   UNL     1      -9.283   0.913 125.997  0.00  0.00    +0.000 C 
BRANCH  12  14
ATOM     14  C   UNL     1      -8.172   0.474 123.772  0.00  0.00    +0.000 C 
BRANCH  14  15
ATOM     15  N   UNL     1      -9.286   1.291 123.245  0.00  0.00    +0.000 NA
ATOM     16  C   UNL     1      -8.906   2.507 122.555  0.00  0.00    +0.000 C 
ATOM     17  C   UNL     1     -10.257   0.577 122.419  0.00  0.00    +0.000 C 
ENDBRANCH  14  15
ENDBRANCH  12  14
ENDBRANCH   1  12
TORSDOF 6
ENDMDL
MODEL 4
REMARK VINA RESULT:      -5.5      2.754      5.248
REMARK  Name = Tapentadol
REMARK  10 active torsions:
REMARK  status: ('A' for Active; 'I' for Inactive)
REMARK    1  A    between atoms: C_1  and  C_2
REMARK    2  A    between atoms: C_2  and  C_3
REMARK    3  A    between atoms: C_3  and  C_4
REMARK    4  A    between atoms: C_3  and  C_10
REMARK    5  A    between atoms: C_4  and  C_5
REMARK    6  A    between atoms: C_4  and  C_6
REMARK    7  A    between atoms: C_6  and  N_7
REMARK    8  A    between atoms: N_7  and  C_8
REMARK    9  A    between atoms: N_7  and  C_9
REMARK   10  A    between atoms: C_12  and  O_13
REMARK                            x       y       z     vdW  Elec       q    Type
REMARK                         _______ _______ _______ _____ _____    ______ ____
ROOT
ATOM      1  C   UNL     1      -6.716  -1.647 124.318  0.00  0.00    +0.000 C 
ENDROOT
BRANCH   1   2
ATOM      2  C   UNL     1      -7.549  -0.408 123.883  0.00  0.00    +0.000 A 
ATOM      3  C   UNL     1      -8.802  -0.510 123.279  0.00  0.00    +0.000 A 
ATOM      4  C   UNL     1      -9.665   0.522 122.978  0.00  0.00    +0.000 A 
ATOM      5  C   UNL     1      -9.186   1.806 123.080  0.00  0.00    +0.000 A 
ATOM      6  C   UNL     1      -7.878   1.980 123.538  0.00  0.00    +0.000 A 
ATOM      7  C   UNL     1      -7.073   0.902 123.969  0.00  0.00    +0.000 A 
BRANCH   4   8
ATOM      8  O   UNL     1     -10.939   0.313 122.554  0.00  0.00    +0.000 OA
ATOM      9  H   UNL     1     -11.160   0.984 121.883  0.00  0.00    +0.000 HD
ENDBRANCH   4   8
ENDBRANCH   1   2
BRANCH   1  11
ATOM     10  C   UNL     1      -4.846  -3.198 123.411  0.00  0.00    +0.000 C 
ATOM     11  C   UNL     1      -6.024  -2.282 123.086  0.00  0.00    +0.000 C 
ENDBRANCH   1  11
BRANCH   1  12
ATOM     12  C   UNL     1      -7.476  -2.709 125.249  0.00  0.00    +0.000 C 
ATOM     13  C   UNL     1      -8.417  -3.693 124.522  0.00  0.00    +0.000 C 
BRANCH  12  14
ATOM     14  C   UNL     1      -8.233  -2.109 126.480  0.00  0.00    +0.000 C 
BRANCH  14  15
ATOM     15  N   UNL     1      -7.892  -2.733 127.776  0.00  0.00    +0.000 NA
ATOM     16  C   UNL     1      -7.639  -1.818 128.872  0.00  0.00    +0.000 C 
ATOM     17  C   UNL     1      -8.816  -3.764 128.242  0.00  0.00    +0.000 C 
ENDBRANCH  14  15
ENDBRANCH  12  14
ENDBRANCH   1  12
TORSDOF 6
ENDMDL
MODEL 5
REMARK VINA RESULT:      -5.4      8.716     11.041
REMARK  Name = Tapentadol
REMARK  10 active torsions:
REMARK  status: ('A' for Active; 'I' for Inactive)
REMARK    1  A    between atoms: C_1  and  C_2
REMARK    2  A    between atoms: C_2  and  C_3
REMARK    3  A    between atoms: C_3  and  C_4
REMARK    4  A    between atoms: C_3  and  C_10
REMARK    5  A    between atoms: C_4  and  C_5
REMARK    6  A    between atoms: C_4  and  C_6
REMARK    7  A    between atoms: C_6  and  N_7
REMARK    8  A    between atoms: N_7  and  C_8
REMARK    9  A    between atoms: N_7  and  C_9
REMARK   10  A    between atoms: C_12  and  O_13
REMARK                            x       y       z     vdW  Elec       q    Type
REMARK                         _______ _______ _______ _____ _____    ______ ____
ROOT
ATOM      1  C   UNL     1      -8.609   6.181 131.708  0.00  0.00    +0.000 C 
ENDROOT
BRANCH   1   2
ATOM      2  C   UNL     1      -9.851   6.779 130.988  0.00  0.00    +0.000 A 
ATOM      3  C   UNL     1     -11.151   6.637 131.473  0.00  0.00    +0.000 A 
ATOM      4  C   UNL     1     -12.291   7.236 130.979  0.00  0.00    +0.000 A 
ATOM      5  C   UNL     1     -12.204   7.873 129.765  0.00  0.00    +0.000 A 
ATOM      6  C   UNL     1     -10.954   7.923 129.143  0.00  0.00    +0.000 A 
ATOM      7  C   UNL     1      -9.782   7.419 129.749  0.00  0.00    +0.000 A 
BRANCH   4   8
ATOM      8  O   UNL     1     -13.486   7.182 131.625  0.00  0.00    +0.000 OA
ATOM      9  H   UNL     1     -14.008   6.447 131.254  0.00  0.00    +0.000 HD
ENDBRANCH   4   8
ENDBRANCH   1   2
BRANCH   1  11
ATOM     10  C   UNL     1      -6.027   6.379 131.850  0.00  0.00    +0.000 C 
ATOM     11  C   UNL     1      -7.313   6.831 131.161  0.00  0.00    +0.000 C 
ENDBRANCH   1  11
BRANCH   1  12
ATOM     12  C   UNL     1      -8.546   4.580 131.779  0.00  0.00    +0.000 C 
ATOM     13  C   UNL     1      -9.043   3.828 130.525  0.00  0.00    +0.000 C 
BRANCH  12  14
ATOM     14  C   UNL     1      -9.202   3.933 133.043  0.00  0.00    +0.000 C 
BRANCH  14  15
ATOM     15  N   UNL     1      -8.259   3.645 134.146  0.00  0.00    +0.000 NA
ATOM     16  C   UNL     1      -7.053   2.932 133.776  0.00  0.00    +0.000 C 
ATOM     17  C   UNL     1      -7.882   4.792 134.969  0.00  0.00    +0.000 C 
ENDBRANCH  14  15
ENDBRANCH  12  14
ENDBRANCH   1  12
TORSDOF 6
ENDMDL
MODEL 6
REMARK VINA RESULT:      -5.3      2.478      4.988
REMARK  Name = Tapentadol
REMARK  10 active torsions:
REMARK  status: ('A' for Active; 'I' for Inactive)
REMARK    1  A    between atoms: C_1  and  C_2
REMARK    2  A    between atoms: C_2  and  C_3
REMARK    3  A    between atoms: C_3  and  C_4
REMARK    4  A    between atoms: C_3  and  C_10
REMARK    5  A    between atoms: C_4  and  C_5
REMARK    6  A    between atoms: C_4  and  C_6
REMARK    7  A    between atoms: C_6  and  N_7
REMARK    8  A    between atoms: N_7  and  C_8
REMARK    9  A    between atoms: N_7  and  C_9
REMARK   10  A    between atoms: C_12  and  O_13
REMARK                            x       y       z     vdW  Elec       q    Type
REMARK                         _______ _______ _______ _____ _____    ______ ____
ROOT
ATOM      1  C   UNL     1      -7.021  -1.691 124.360  0.00  0.00    +0.000 C 
ENDROOT
BRANCH   1   2
ATOM      2  C   UNL     1      -8.169  -0.764 123.872  0.00  0.00    +0.000 A 
ATOM      3  C   UNL     1      -8.513   0.424 124.519  0.00  0.00    +0.000 A 
ATOM      4  C   UNL     1      -9.422   1.369 124.091  0.00  0.00    +0.000 A 
ATOM      5  C   UNL     1     -10.238   1.039 123.035  0.00  0.00    +0.000 A 
ATOM      6  C   UNL     1     -10.051  -0.206 122.431  0.00  0.00    +0.000 A 
ATOM      7  C   UNL     1      -9.015  -1.088 122.810  0.00  0.00    +0.000 A 
BRANCH   4   8
ATOM      8  O   UNL     1      -9.561   2.578 124.694  0.00  0.00    +0.000 OA
ATOM      9  H   UNL     1      -9.226   2.512 125.607  0.00  0.00    +0.000 HD
ENDBRANCH   4   8
ENDBRANCH   1   2
BRANCH   1  11
ATOM     10  C   UNL     1      -4.978  -3.044 123.510  0.00  0.00    +0.000 C 
ATOM     11  C   UNL     1      -6.211  -2.218 123.149  0.00  0.00    +0.000 C 
ENDBRANCH   1  11
BRANCH   1  12
ATOM     12  C   UNL     1      -7.442  -2.836 125.401  0.00  0.00    +0.000 C 
ATOM     13  C   UNL     1      -8.280  -3.998 124.825  0.00  0.00    +0.000 C 
BRANCH  12  14
ATOM     14  C   UNL     1      -8.120  -2.335 126.719  0.00  0.00    +0.000 C 
BRANCH  14  15
ATOM     15  N   UNL     1      -7.434  -2.752 127.961  0.00  0.00    +0.000 NA
ATOM     16  C   UNL     1      -6.598  -1.747 128.588  0.00  0.00    +0.000 C 
ATOM     17  C   UNL     1      -8.289  -3.345 128.986  0.00  0.00    +0.000 C 
ENDBRANCH  14  15
ENDBRANCH  12  14
ENDBRANCH   1  12
TORSDOF 6
ENDMDL
MODEL 7
REMARK VINA RESULT:      -5.3      1.515      2.538
REMARK  Name = Tapentadol
REMARK  10 active torsions:
REMARK  status: ('A' for Active; 'I' for Inactive)
REMARK    1  A    between atoms: C_1  and  C_2
REMARK    2  A    between atoms: C_2  and  C_3
REMARK    3  A    between atoms: C_3  and  C_4
REMARK    4  A    between atoms: C_3  and  C_10
REMARK    5  A    between atoms: C_4  and  C_5
REMARK    6  A    between atoms: C_4  and  C_6
REMARK    7  A    between atoms: C_6  and  N_7
REMARK    8  A    between atoms: N_7  and  C_8
REMARK    9  A    between atoms: N_7  and  C_9
REMARK   10  A    between atoms: C_12  and  O_13
REMARK                            x       y       z     vdW  Elec       q    Type
REMARK                         _______ _______ _______ _____ _____    ______ ____
ROOT
ATOM      1  C   UNL     1      -5.863  -1.668 125.514  0.00  0.00    +0.000 C 
ENDROOT
BRANCH   1   2
ATOM      2  C   UNL     1      -6.552  -2.245 126.783  0.00  0.00    +0.000 A 
ATOM      3  C   UNL     1      -5.885  -2.420 127.996  0.00  0.00    +0.000 A 
ATOM      4  C   UNL     1      -6.439  -2.799 129.201  0.00  0.00    +0.000 A 
ATOM      5  C   UNL     1      -7.734  -3.259 129.193  0.00  0.00    +0.000 A 
ATOM      6  C   UNL     1      -8.419  -3.254 127.975  0.00  0.00    +0.000 A 
ATOM      7  C   UNL     1      -7.862  -2.727 126.790  0.00  0.00    +0.000 A 
BRANCH   4   8
ATOM      8  O   UNL     1      -5.744  -2.770 130.368  0.00  0.00    +0.000 OA
ATOM      9  H   UNL     1      -6.015  -3.532 130.912  0.00  0.00    +0.000 HD
ENDBRANCH   4   8
ENDBRANCH   1   2
BRANCH   1  11
ATOM     10  C   UNL     1      -5.162   0.724 126.230  0.00  0.00    +0.000 C 
ATOM     11  C   UNL     1      -6.120  -0.144 125.415  0.00  0.00    +0.000 C 
ENDBRANCH   1  11
BRANCH   1  12
ATOM     12  C   UNL     1      -6.143  -2.459 124.147  0.00  0.00    +0.000 C 
ATOM     13  C   UNL     1      -4.966  -3.295 123.597  0.00  0.00    +0.000 C 
BRANCH  12  14
ATOM     14  C   UNL     1      -6.738  -1.603 122.981  0.00  0.00    +0.000 C 
BRANCH  14  15
ATOM     15  N   UNL     1      -8.192  -1.776 122.771  0.00  0.00    +0.000 NA
ATOM     16  C   UNL     1      -8.769  -2.990 123.314  0.00  0.00    +0.000 C 
ATOM     17  C   UNL     1      -9.026  -0.648 123.177  0.00  0.00    +0.000 C 
ENDBRANCH  14  15
ENDBRANCH  12  14
ENDBRANCH   1  12
TORSDOF 6
ENDMDL
MODEL 8
REMARK VINA RESULT:      -5.2      7.701     10.196
REMARK  Name = Tapentadol
REMARK  10 active torsions:
REMARK  status: ('A' for Active; 'I' for Inactive)
REMARK    1  A    between atoms: C_1  and  C_2
REMARK    2  A    between atoms: C_2  and  C_3
REMARK    3  A    between atoms: C_3  and  C_4
REMARK    4  A    between atoms: C_3  and  C_10
REMARK    5  A    between atoms: C_4  and  C_5
REMARK    6  A    between atoms: C_4  and  C_6
REMARK    7  A    between atoms: C_6  and  N_7
REMARK    8  A    between atoms: N_7  and  C_8
REMARK    9  A    between atoms: N_7  and  C_9
REMARK   10  A    between atoms: C_12  and  O_13
REMARK                            x       y       z     vdW  Elec       q    Type
REMARK                         _______ _______ _______ _____ _____    ______ ____
ROOT
ATOM      1  C   UNL     1     -10.142   5.781 130.890  0.00  0.00    +0.000 C 
ENDROOT
BRANCH   1   2
ATOM      2  C   UNL     1     -10.923   6.832 130.052  0.00  0.00    +0.000 A 
ATOM      3  C   UNL     1     -10.512   7.252 128.787  0.00  0.00    +0.000 A 
ATOM      4  C   UNL     1     -11.202   8.075 127.921  0.00  0.00    +0.000 A 
ATOM      5  C   UNL     1     -12.308   8.731 128.406  0.00  0.00    +0.000 A 
ATOM      6  C   UNL     1     -12.692   8.472 129.724  0.00  0.00    +0.000 A 
ATOM      7  C   UNL     1     -12.041   7.516 130.534  0.00  0.00    +0.000 A 
BRANCH   4   8
ATOM      8  O   UNL     1     -10.806   8.285 126.638  0.00  0.00    +0.000 OA
ATOM      9  H   UNL     1     -11.441   7.851 126.040  0.00  0.00    +0.000 HD
ENDBRANCH   4   8
ENDBRANCH   1   2
BRANCH   1  11
ATOM     10  C   UNL     1      -8.467   5.941 132.864  0.00  0.00    +0.000 C 
ATOM     11  C   UNL     1      -8.847   6.411 131.460  0.00  0.00    +0.000 C 
ENDBRANCH   1  11
BRANCH   1  12
ATOM     12  C   UNL     1      -9.910   4.358 130.185  0.00  0.00    +0.000 C 
ATOM     13  C   UNL     1     -10.275   3.118 131.030  0.00  0.00    +0.000 C 
BRANCH  12  14
ATOM     14  C   UNL     1      -8.495   4.137 129.557  0.00  0.00    +0.000 C 
BRANCH  14  15
ATOM     15  N   UNL     1      -8.506   3.509 128.219  0.00  0.00    +0.000 NA
ATOM     16  C   UNL     1      -7.681   4.148 127.213  0.00  0.00    +0.000 C 
ATOM     17  C   UNL     1      -8.234   2.074 128.193  0.00  0.00    +0.000 C 
ENDBRANCH  14  15
ENDBRANCH  12  14
ENDBRANCH   1  12
TORSDOF 6
ENDMDL
MODEL 9
REMARK VINA RESULT:      -5.2      2.858      5.369
REMARK  Name = Tapentadol
REMARK  10 active torsions:
REMARK  status: ('A' for Active; 'I' for Inactive)
REMARK    1  A    between atoms: C_1  and  C_2
REMARK    2  A    between atoms: C_2  and  C_3
REMARK    3  A    between atoms: C_3  and  C_4
REMARK    4  A    between atoms: C_3  and  C_10
REMARK    5  A    between atoms: C_4  and  C_5
REMARK    6  A    between atoms: C_4  and  C_6
REMARK    7  A    between atoms: C_6  and  N_7
REMARK    8  A    between atoms: N_7  and  C_8
REMARK    9  A    between atoms: N_7  and  C_9
REMARK   10  A    between atoms: C_12  and  O_13
REMARK                            x       y       z     vdW  Elec       q    Type
REMARK                         _______ _______ _______ _____ _____    ______ ____
ROOT
ATOM      1  C   UNL     1      -7.499  -1.850 123.732  0.00  0.00    +0.000 C 
ENDROOT
BRANCH   1   2
ATOM      2  C   UNL     1      -7.990  -0.378 123.636  0.00  0.00    +0.000 A 
ATOM      3  C   UNL     1      -9.336  -0.020 123.705  0.00  0.00    +0.000 A 
ATOM      4  C   UNL     1      -9.855   1.256 123.759  0.00  0.00    +0.000 A 
ATOM      5  C   UNL     1      -9.001   2.304 123.512  0.00  0.00    +0.000 A 
ATOM      6  C   UNL     1      -7.655   2.008 123.281  0.00  0.00    +0.000 A 
ATOM      7  C   UNL     1      -7.138   0.697 123.373  0.00  0.00    +0.000 A 
BRANCH   4   8
ATOM      8  O   UNL     1     -11.168   1.505 124.006  0.00  0.00    +0.000 OA
ATOM      9  H   UNL     1     -11.435   1.008 124.801  0.00  0.00    +0.000 HD
ENDBRANCH   4   8
ENDBRANCH   1   2
BRANCH   1  11
ATOM     10  C   UNL     1      -9.516  -3.423 123.305  0.00  0.00    +0.000 C 
ATOM     11  C   UNL     1      -8.612  -2.744 124.333  0.00  0.00    +0.000 C 
ENDBRANCH   1  11
BRANCH   1  12
ATOM     12  C   UNL     1      -6.062  -2.064 124.413  0.00  0.00    +0.000 C 
ATOM     13  C   UNL     1      -5.139  -3.098 123.732  0.00  0.00    +0.000 C 
BRANCH  12  14
ATOM     14  C   UNL     1      -6.079  -2.344 125.952  0.00  0.00    +0.000 C 
BRANCH  14  15
ATOM     15  N   UNL     1      -6.302  -1.149 126.793  0.00  0.00    +0.000 NA
ATOM     16  C   UNL     1      -7.636  -1.000 127.339  0.00  0.00    +0.000 C 
ATOM     17  C   UNL     1      -5.338  -0.948 127.873  0.00  0.00    +0.000 C 
ENDBRANCH  14  15
ENDBRANCH  12  14
ENDBRANCH   1  12
TORSDOF 6
ENDMDL
