MODEL 1
REMARK VINA RESULT:      -7.5      0.000      0.000
REMARK  Name = Tapinarof
REMARK  7 active torsions:
REMARK  status: ('A' for Active; 'I' for Inactive)
REMARK    1  A    between atoms: C_1  and  C_2
REMARK    2  A    between atoms: C_2  and  C_3
REMARK    3  A    between atoms: C_2  and  C_4
REMARK    4  A    between atoms: C_5  and  O_6
REMARK    5  A    between atoms: C_8  and  C_9
REMARK    6  A    between atoms: C_10  and  C_11
REMARK    7  A    between atoms: C_18  and  O_19
REMARK                            x       y       z     vdW  Elec       q    Type
REMARK                         _______ _______ _______ _____ _____    ______ ____
ROOT
ATOM      1  C   UNL     1     -11.697   7.625 129.797  0.00  0.00    +0.000 A 
ATOM      2  C   UNL     1     -11.568   6.854 130.964  0.00  0.00    +0.000 A 
ATOM      3  C   UNL     1     -10.321   6.467 131.448  0.00  0.00    +0.000 A 
ATOM      4  C   UNL     1      -9.145   6.852 130.802  0.00  0.00    +0.000 A 
ATOM      5  C   UNL     1      -9.245   7.643 129.659  0.00  0.00    +0.000 A 
ATOM      6  C   UNL     1     -10.498   8.010 129.164  0.00  0.00    +0.000 A 
ENDROOT
BRANCH   1   8
ATOM      7  C   UNL     1     -13.273   9.433 128.825  0.00  0.00    +0.000 C 
ATOM      8  C   UNL     1     -13.082   7.980 129.265  0.00  0.00    +0.000 C 
ATOM      9  C   UNL     1     -13.454   7.061 128.093  0.00  0.00    +0.000 C 
ENDBRANCH   1   8
BRANCH   2  10
ATOM     10  O   UNL     1     -12.620   6.408 131.721  0.00  0.00    +0.000 OA
ATOM     11  H   UNL     1     -13.390   6.239 131.162  0.00  0.00    +0.000 HD
ENDBRANCH   2  10
BRANCH   4  12
ATOM     12  C   UNL     1      -7.810   6.466 131.269  0.00  0.00    +0.000 C 
ATOM     13  C   UNL     1      -6.692   7.165 131.007  0.00  0.00    +0.000 C 
BRANCH  13  14
ATOM     14  C   UNL     1      -5.362   6.748 131.435  0.00  0.00    +0.000 A 
ATOM     15  C   UNL     1      -5.218   6.123 132.678  0.00  0.00    +0.000 A 
ATOM     16  C   UNL     1      -3.946   5.847 133.178  0.00  0.00    +0.000 A 
ATOM     17  C   UNL     1      -2.819   6.148 132.415  0.00  0.00    +0.000 A 
ATOM     18  C   UNL     1      -2.958   6.757 131.168  0.00  0.00    +0.000 A 
ATOM     19  C   UNL     1      -4.226   7.070 130.686  0.00  0.00    +0.000 A 
ENDBRANCH  13  14
ENDBRANCH   4  12
BRANCH   6  20
ATOM     20  O   UNL     1     -10.516   8.757 128.018  0.00  0.00    +0.000 OA
ATOM     21  H   UNL     1      -9.941   8.369 127.342  0.00  0.00    +0.000 HD
ENDBRANCH   6  20
TORSDOF 5
ENDMDL
MODEL 2
REMARK VINA RESULT:      -7.5      0.189      1.930
REMARK  Name = Tapinarof
REMARK  7 active torsions:
REMARK  status: ('A' for Active; 'I' for Inactive)
REMARK    1  A    between atoms: C_1  and  C_2
REMARK    2  A    between atoms: C_2  and  C_3
REMARK    3  A    between atoms: C_2  and  C_4
REMARK    4  A    between atoms: C_5  and  O_6
REMARK    5  A    between atoms: C_8  and  C_9
REMARK    6  A    between atoms: C_10  and  C_11
REMARK    7  A    between atoms: C_18  and  O_19
REMARK                            x       y       z     vdW  Elec       q    Type
REMARK                         _______ _______ _______ _____ _____    ______ ____
ROOT
ATOM      1  C   UNL     1     -11.633   7.485 129.920  0.00  0.00    +0.000 A 
ATOM      2  C   UNL     1     -10.483   7.861 129.206  0.00  0.00    +0.000 A 
ATOM      3  C   UNL     1      -9.206   7.552 129.667  0.00  0.00    +0.000 A 
ATOM      4  C   UNL     1      -9.019   6.836 130.850  0.00  0.00    +0.000 A 
ATOM      5  C   UNL     1     -10.145   6.425 131.561  0.00  0.00    +0.000 A 
ATOM      6  C   UNL     1     -11.423   6.755 131.108  0.00  0.00    +0.000 A 
ENDROOT
BRANCH   1   8
ATOM      7  C   UNL     1     -13.167   9.359 129.008  0.00  0.00    +0.000 C 
ATOM      8  C   UNL     1     -13.013   7.892 129.414  0.00  0.00    +0.000 C 
ATOM      9  C   UNL     1     -13.427   7.011 128.227  0.00  0.00    +0.000 C 
ENDBRANCH   1   8
BRANCH   2  10
ATOM     10  O   UNL     1     -10.495   8.554 128.024  0.00  0.00    +0.000 OA
ATOM     11  H   UNL     1      -9.889   8.148 127.389  0.00  0.00    +0.000 HD
ENDBRANCH   2  10
BRANCH   4  12
ATOM     12  C   UNL     1      -7.695   6.492 131.377  0.00  0.00    +0.000 C 
ATOM     13  C   UNL     1      -6.564   7.139 131.046  0.00  0.00    +0.000 C 
BRANCH  13  14
ATOM     14  C   UNL     1      -5.245   6.759 131.538  0.00  0.00    +0.000 A 
ATOM     15  C   UNL     1      -5.141   6.156 132.795  0.00  0.00    +0.000 A 
ATOM     16  C   UNL     1      -3.887   5.917 133.354  0.00  0.00    +0.000 A 
ATOM     17  C   UNL     1      -2.734   6.234 132.636  0.00  0.00    +0.000 A 
ATOM     18  C   UNL     1      -2.832   6.821 131.375  0.00  0.00    +0.000 A 
ATOM     19  C   UNL     1      -4.085   7.098 130.834  0.00  0.00    +0.000 A 
ENDBRANCH  13  14
ENDBRANCH   4  12
BRANCH   6  20
ATOM     20  O   UNL     1     -12.477   6.348 131.878  0.00  0.00    +0.000 OA
ATOM     21  H   UNL     1     -12.311   6.528 132.816  0.00  0.00    +0.000 HD
ENDBRANCH   6  20
TORSDOF 5
ENDMDL
MODEL 3
REMARK VINA RESULT:      -7.3      2.562      2.899
REMARK  Name = Tapinarof
REMARK  7 active torsions:
REMARK  status: ('A' for Active; 'I' for Inactive)
REMARK    1  A    between atoms: C_1  and  C_2
REMARK    2  A    between atoms: C_2  and  C_3
REMARK    3  A    between atoms: C_2  and  C_4
REMARK    4  A    between atoms: C_5  and  O_6
REMARK    5  A    between atoms: C_8  and  C_9
REMARK    6  A    between atoms: C_10  and  C_11
REMARK    7  A    between atoms: C_18  and  O_19
REMARK                            x       y       z     vdW  Elec       q    Type
REMARK                         _______ _______ _______ _____ _____    ______ ____
ROOT
ATOM      1  C   UNL     1     -11.841   7.573 129.774  0.00  0.00    +0.000 A 
ATOM      2  C   UNL     1     -12.112   7.057 131.052  0.00  0.00    +0.000 A 
ATOM      3  C   UNL     1     -11.101   6.543 131.860  0.00  0.00    +0.000 A 
ATOM      4  C   UNL     1      -9.771   6.541 131.438  0.00  0.00    +0.000 A 
ATOM      5  C   UNL     1      -9.471   7.076 130.187  0.00  0.00    +0.000 A 
ATOM      6  C   UNL     1     -10.490   7.570 129.370  0.00  0.00    +0.000 A 
ENDROOT
BRANCH   1   8
ATOM      7  C   UNL     1     -13.066   9.590 128.712  0.00  0.00    +0.000 C 
ATOM      8  C   UNL     1     -12.982   8.073 128.894  0.00  0.00    +0.000 C 
ATOM      9  C   UNL     1     -12.911   7.419 127.506  0.00  0.00    +0.000 C 
ENDBRANCH   1   8
BRANCH   2  10
ATOM     10  O   UNL     1     -13.359   6.999 131.617  0.00  0.00    +0.000 OA
ATOM     11  H   UNL     1     -13.506   7.765 132.188  0.00  0.00    +0.000 HD
ENDBRANCH   2  10
BRANCH   4  12
ATOM     12  C   UNL     1      -8.673   6.007 132.251  0.00  0.00    +0.000 C 
ATOM     13  C   UNL     1      -8.777   5.730 133.563  0.00  0.00    +0.000 C 
BRANCH  13  14
ATOM     14  C   UNL     1      -7.667   5.245 134.374  0.00  0.00    +0.000 A 
ATOM     15  C   UNL     1      -6.997   4.084 133.976  0.00  0.00    +0.000 A 
ATOM     16  C   UNL     1      -6.032   3.516 134.806  0.00  0.00    +0.000 A 
ATOM     17  C   UNL     1      -5.699   4.134 136.010  0.00  0.00    +0.000 A 
ATOM     18  C   UNL     1      -6.353   5.301 136.404  0.00  0.00    +0.000 A 
ATOM     19  C   UNL     1      -7.346   5.846 135.595  0.00  0.00    +0.000 A 
ENDBRANCH  13  14
ENDBRANCH   4  12
BRANCH   6  20
ATOM     20  O   UNL     1     -10.123   8.045 128.141  0.00  0.00    +0.000 OA
ATOM     21  H   UNL     1      -9.157   8.083 128.058  0.00  0.00    +0.000 HD
ENDBRANCH   6  20
TORSDOF 5
ENDMDL
MODEL 4
REMARK VINA RESULT:      -7.2      1.311      2.761
REMARK  Name = Tapinarof
REMARK  7 active torsions:
REMARK  status: ('A' for Active; 'I' for Inactive)
REMARK    1  A    between atoms: C_1  and  C_2
REMARK    2  A    between atoms: C_2  and  C_3
REMARK    3  A    between atoms: C_2  and  C_4
REMARK    4  A    between atoms: C_5  and  O_6
REMARK    5  A    between atoms: C_8  and  C_9
REMARK    6  A    between atoms: C_10  and  C_11
REMARK    7  A    between atoms: C_18  and  O_19
REMARK                            x       y       z     vdW  Elec       q    Type
REMARK                         _______ _______ _______ _____ _____    ______ ____
ROOT
ATOM      1  C   UNL     1     -10.561   6.755 130.900  0.00  0.00    +0.000 A 
ATOM      2  C   UNL     1      -9.654   7.369 130.020  0.00  0.00    +0.000 A 
ATOM      3  C   UNL     1      -8.281   7.338 130.248  0.00  0.00    +0.000 A 
ATOM      4  C   UNL     1      -7.748   6.673 131.354  0.00  0.00    +0.000 A 
ATOM      5  C   UNL     1      -8.625   6.029 132.226  0.00  0.00    +0.000 A 
ATOM      6  C   UNL     1     -10.003   6.081 132.006  0.00  0.00    +0.000 A 
ENDROOT
BRANCH   1   8
ATOM      7  C   UNL     1     -12.640   8.276 130.665  0.00  0.00    +0.000 C 
ATOM      8  C   UNL     1     -12.061   6.860 130.648  0.00  0.00    +0.000 C 
ATOM      9  C   UNL     1     -12.425   6.200 129.310  0.00  0.00    +0.000 C 
ENDBRANCH   1   8
BRANCH   2  10
ATOM     10  O   UNL     1     -10.013   8.048 128.885  0.00  0.00    +0.000 OA
ATOM     11  H   UNL     1      -9.232   8.422 128.455  0.00  0.00    +0.000 HD
ENDBRANCH   2  10
BRANCH   4  12
ATOM     12  C   UNL     1      -6.312   6.617 131.640  0.00  0.00    +0.000 C 
ATOM     13  C   UNL     1      -5.366   7.139 130.838  0.00  0.00    +0.000 C 
BRANCH  13  14
ATOM     14  C   UNL     1      -3.937   7.036 131.106  0.00  0.00    +0.000 A 
ATOM     15  C   UNL     1      -3.082   6.652 130.068  0.00  0.00    +0.000 A 
ATOM     16  C   UNL     1      -1.735   6.403 130.328  0.00  0.00    +0.000 A 
ATOM     17  C   UNL     1      -1.230   6.586 131.615  0.00  0.00    +0.000 A 
ATOM     18  C   UNL     1      -2.076   6.985 132.650  0.00  0.00    +0.000 A 
ATOM     19  C   UNL     1      -3.429   7.194 132.399  0.00  0.00    +0.000 A 
ENDBRANCH  13  14
ENDBRANCH   4  12
BRANCH   6  20
ATOM     20  O   UNL     1     -10.800   5.456 132.924  0.00  0.00    +0.000 OA
ATOM     21  H   UNL     1     -11.565   6.007 133.152  0.00  0.00    +0.000 HD
ENDBRANCH   6  20
TORSDOF 5
ENDMDL
MODEL 5
REMARK VINA RESULT:      -7.0      2.360      3.416
REMARK  Name = Tapinarof
REMARK  7 active torsions:
REMARK  status: ('A' for Active; 'I' for Inactive)
REMARK    1  A    between atoms: C_1  and  C_2
REMARK    2  A    between atoms: C_2  and  C_3
REMARK    3  A    between atoms: C_2  and  C_4
REMARK    4  A    between atoms: C_5  and  O_6
REMARK    5  A    between atoms: C_8  and  C_9
REMARK    6  A    between atoms: C_10  and  C_11
REMARK    7  A    between atoms: C_18  and  O_19
REMARK                            x       y       z     vdW  Elec       q    Type
REMARK                         _______ _______ _______ _____ _____    ______ ____
ROOT
ATOM      1  C   UNL     1     -11.667   7.383 129.834  0.00  0.00    +0.000 A 
ATOM      2  C   UNL     1     -10.302   7.143 129.602  0.00  0.00    +0.000 A 
ATOM      3  C   UNL     1      -9.478   6.608 130.589  0.00  0.00    +0.000 A 
ATOM      4  C   UNL     1      -9.983   6.267 131.845  0.00  0.00    +0.000 A 
ATOM      5  C   UNL     1     -11.340   6.467 132.090  0.00  0.00    +0.000 A 
ATOM      6  C   UNL     1     -12.159   7.025 131.106  0.00  0.00    +0.000 A 
ENDROOT
BRANCH   1   8
ATOM      7  C   UNL     1     -13.708   7.189 128.256  0.00  0.00    +0.000 C 
ATOM      8  C   UNL     1     -12.525   8.025 128.750  0.00  0.00    +0.000 C 
ATOM      9  C   UNL     1     -13.054   9.387 129.224  0.00  0.00    +0.000 C 
ENDBRANCH   1   8
BRANCH   2  10
ATOM     10  O   UNL     1      -9.657   7.408 128.423  0.00  0.00    +0.000 OA
ATOM     11  H   UNL     1      -8.835   6.903 128.367  0.00  0.00    +0.000 HD
ENDBRANCH   2  10
BRANCH   4  12
ATOM     12  C   UNL     1      -9.154   5.706 132.916  0.00  0.00    +0.000 C 
ATOM     13  C   UNL     1      -7.827   5.898 133.016  0.00  0.00    +0.000 C 
BRANCH  13  14
ATOM     14  C   UNL     1      -7.003   5.296 134.058  0.00  0.00    +0.000 A 
ATOM     15  C   UNL     1      -6.317   4.110 133.775  0.00  0.00    +0.000 A 
ATOM     16  C   UNL     1      -5.642   3.435 134.790  0.00  0.00    +0.000 A 
ATOM     17  C   UNL     1      -5.609   3.969 136.078  0.00  0.00    +0.000 A 
ATOM     18  C   UNL     1      -6.277   5.159 136.361  0.00  0.00    +0.000 A 
ATOM     19  C   UNL     1      -6.986   5.813 135.357  0.00  0.00    +0.000 A 
ENDBRANCH  13  14
ENDBRANCH   4  12
BRANCH   6  20
ATOM     20  O   UNL     1     -13.472   7.224 131.434  0.00  0.00    +0.000 OA
ATOM     21  H   UNL     1     -13.656   6.912 132.333  0.00  0.00    +0.000 HD
ENDBRANCH   6  20
TORSDOF 5
ENDMDL
MODEL 6
REMARK VINA RESULT:      -6.7      1.465      2.154
REMARK  Name = Tapinarof
REMARK  7 active torsions:
REMARK  status: ('A' for Active; 'I' for Inactive)
REMARK    1  A    between atoms: C_1  and  C_2
REMARK    2  A    between atoms: C_2  and  C_3
REMARK    3  A    between atoms: C_2  and  C_4
REMARK    4  A    between atoms: C_5  and  O_6
REMARK    5  A    between atoms: C_8  and  C_9
REMARK    6  A    between atoms: C_10  and  C_11
REMARK    7  A    between atoms: C_18  and  O_19
REMARK                            x       y       z     vdW  Elec       q    Type
REMARK                         _______ _______ _______ _____ _____    ______ ____
ROOT
ATOM      1  C   UNL     1     -10.565   6.616 131.034  0.00  0.00    +0.000 A 
ATOM      2  C   UNL     1      -9.836   5.982 132.054  0.00  0.00    +0.000 A 
ATOM      3  C   UNL     1      -8.447   6.054 132.110  0.00  0.00    +0.000 A 
ATOM      4  C   UNL     1      -7.722   6.779 131.163  0.00  0.00    +0.000 A 
ATOM      5  C   UNL     1      -8.424   7.442 130.158  0.00  0.00    +0.000 A 
ATOM      6  C   UNL     1      -9.816   7.350 130.092  0.00  0.00    +0.000 A 
ENDROOT
BRANCH   1   8
ATOM      7  C   UNL     1     -12.889   7.690 131.410  0.00  0.00    +0.000 C 
ATOM      8  C   UNL     1     -12.081   6.466 130.972  0.00  0.00    +0.000 C 
ATOM      9  C   UNL     1     -12.521   6.074 129.554  0.00  0.00    +0.000 C 
ENDBRANCH   1   8
BRANCH   2  10
ATOM     10  O   UNL     1     -10.396   5.245 133.065  0.00  0.00    +0.000 OA
ATOM     11  H   UNL     1      -9.740   5.062 133.751  0.00  0.00    +0.000 HD
ENDBRANCH   2  10
BRANCH   4  12
ATOM     12  C   UNL     1      -6.260   6.879 131.177  0.00  0.00    +0.000 C 
ATOM     13  C   UNL     1      -5.481   6.342 132.132  0.00  0.00    +0.000 C 
BRANCH  13  14
ATOM     14  C   UNL     1      -4.030   6.488 132.165  0.00  0.00    +0.000 A 
ATOM     15  C   UNL     1      -3.304   6.282 130.987  0.00  0.00    +0.000 A 
ATOM     16  C   UNL     1      -1.911   6.270 131.019  0.00  0.00    +0.000 A 
ATOM     17  C   UNL     1      -1.240   6.513 132.217  0.00  0.00    +0.000 A 
ATOM     18  C   UNL     1      -1.960   6.734 133.391  0.00  0.00    +0.000 A 
ATOM     19  C   UNL     1      -3.351   6.706 133.368  0.00  0.00    +0.000 A 
ENDBRANCH  13  14
ENDBRANCH   4  12
BRANCH   6  20
ATOM     20  O   UNL     1     -10.430   7.999 129.056  0.00  0.00    +0.000 OA
ATOM     21  H   UNL     1     -11.305   7.620 128.880  0.00  0.00    +0.000 HD
ENDBRANCH   6  20
TORSDOF 5
ENDMDL
MODEL 7
REMARK VINA RESULT:      -6.6     10.500     11.241
REMARK  Name = Tapinarof
REMARK  7 active torsions:
REMARK  status: ('A' for Active; 'I' for Inactive)
REMARK    1  A    between atoms: C_1  and  C_2
REMARK    2  A    between atoms: C_2  and  C_3
REMARK    3  A    between atoms: C_2  and  C_4
REMARK    4  A    between atoms: C_5  and  O_6
REMARK    5  A    between atoms: C_8  and  C_9
REMARK    6  A    between atoms: C_10  and  C_11
REMARK    7  A    between atoms: C_18  and  O_19
REMARK                            x       y       z     vdW  Elec       q    Type
REMARK                         _______ _______ _______ _____ _____    ______ ____
ROOT
ATOM      1  C   UNL     1      -7.895  -2.034 125.301  0.00  0.00    +0.000 A 
ATOM      2  C   UNL     1      -6.701  -1.811 126.005  0.00  0.00    +0.000 A 
ATOM      3  C   UNL     1      -6.549  -2.213 127.330  0.00  0.00    +0.000 A 
ATOM      4  C   UNL     1      -7.575  -2.876 128.005  0.00  0.00    +0.000 A 
ATOM      5  C   UNL     1      -8.760  -3.137 127.319  0.00  0.00    +0.000 A 
ATOM      6  C   UNL     1      -8.916  -2.712 125.998  0.00  0.00    +0.000 A 
ENDROOT
BRANCH   1   8
ATOM      7  C   UNL     1      -8.534  -2.556 122.848  0.00  0.00    +0.000 C 
ATOM      8  C   UNL     1      -8.046  -1.527 123.870  0.00  0.00    +0.000 C 
ATOM      9  C   UNL     1      -8.987  -0.315 123.830  0.00  0.00    +0.000 C 
ENDBRANCH   1   8
BRANCH   2  10
ATOM     10  O   UNL     1      -5.597  -1.189 125.484  0.00  0.00    +0.000 OA
ATOM     11  H   UNL     1      -5.385  -1.551 124.613  0.00  0.00    +0.000 HD
ENDBRANCH   2  10
BRANCH   4  12
ATOM     12  C   UNL     1      -7.465  -3.314 129.399  0.00  0.00    +0.000 C 
ATOM     13  C   UNL     1      -6.321  -3.285 130.106  0.00  0.00    +0.000 C 
BRANCH  13  14
ATOM     14  C   UNL     1      -6.209  -3.768 131.478  0.00  0.00    +0.000 A 
ATOM     15  C   UNL     1      -5.350  -4.838 131.749  0.00  0.00    +0.000 A 
ATOM     16  C   UNL     1      -5.333  -5.416 133.017  0.00  0.00    +0.000 A 
ATOM     17  C   UNL     1      -6.136  -4.893 134.030  0.00  0.00    +0.000 A 
ATOM     18  C   UNL     1      -6.982  -3.815 133.769  0.00  0.00    +0.000 A 
ATOM     19  C   UNL     1      -7.030  -3.265 132.491  0.00  0.00    +0.000 A 
ENDBRANCH  13  14
ENDBRANCH   4  12
BRANCH   6  20
ATOM     20  O   UNL     1     -10.120  -2.973 125.403  0.00  0.00    +0.000 OA
ATOM     21  H   UNL     1     -10.400  -2.230 124.846  0.00  0.00    +0.000 HD
ENDBRANCH   6  20
TORSDOF 5
ENDMDL
MODEL 8
REMARK VINA RESULT:      -6.5      7.938     10.055
REMARK  Name = Tapinarof
REMARK  7 active torsions:
REMARK  status: ('A' for Active; 'I' for Inactive)
REMARK    1  A    between atoms: C_1  and  C_2
REMARK    2  A    between atoms: C_2  and  C_3
REMARK    3  A    between atoms: C_2  and  C_4
REMARK    4  A    between atoms: C_5  and  O_6
REMARK    5  A    between atoms: C_8  and  C_9
REMARK    6  A    between atoms: C_10  and  C_11
REMARK    7  A    between atoms: C_18  and  O_19
REMARK                            x       y       z     vdW  Elec       q    Type
REMARK                         _______ _______ _______ _____ _____    ______ ____
ROOT
ATOM      1  C   UNL     1      -3.455   4.417 127.799  0.00  0.00    +0.000 A 
ATOM      2  C   UNL     1      -2.785   3.468 127.008  0.00  0.00    +0.000 A 
ATOM      3  C   UNL     1      -3.463   2.411 126.406  0.00  0.00    +0.000 A 
ATOM      4  C   UNL     1      -4.844   2.265 126.548  0.00  0.00    +0.000 A 
ATOM      5  C   UNL     1      -5.537   3.211 127.302  0.00  0.00    +0.000 A 
ATOM      6  C   UNL     1      -4.851   4.257 127.922  0.00  0.00    +0.000 A 
ENDROOT
BRANCH   1   8
ATOM      7  C   UNL     1      -3.120   6.954 128.175  0.00  0.00    +0.000 C 
ATOM      8  C   UNL     1      -2.671   5.526 128.490  0.00  0.00    +0.000 C 
ATOM      9  C   UNL     1      -2.699   5.331 130.013  0.00  0.00    +0.000 C 
ENDBRANCH   1   8
BRANCH   2  10
ATOM     10  O   UNL     1      -1.438   3.477 126.760  0.00  0.00    +0.000 OA
ATOM     11  H   UNL     1      -1.270   3.576 125.813  0.00  0.00    +0.000 HD
ENDBRANCH   2  10
BRANCH   4  12
ATOM     12  C   UNL     1      -5.600   1.168 125.938  0.00  0.00    +0.000 C 
ATOM     13  C   UNL     1      -5.275  -0.131 126.068  0.00  0.00    +0.000 C 
BRANCH  13  14
ATOM     14  C   UNL     1      -6.005  -1.213 125.418  0.00  0.00    +0.000 A 
ATOM     15  C   UNL     1      -7.285  -1.537 125.879  0.00  0.00    +0.000 A 
ATOM     16  C   UNL     1      -7.945  -2.658 125.378  0.00  0.00    +0.000 A 
ATOM     17  C   UNL     1      -7.349  -3.427 124.379  0.00  0.00    +0.000 A 
ATOM     18  C   UNL     1      -6.080  -3.099 123.905  0.00  0.00    +0.000 A 
ATOM     19  C   UNL     1      -5.402  -2.004 124.434  0.00  0.00    +0.000 A 
ENDBRANCH  13  14
ENDBRANCH   4  12
BRANCH   6  20
ATOM     20  O   UNL     1      -5.594   5.124 128.675  0.00  0.00    +0.000 OA
ATOM     21  H   UNL     1      -6.267   4.650 129.187  0.00  0.00    +0.000 HD
ENDBRANCH   6  20
TORSDOF 5
ENDMDL
MODEL 9
REMARK VINA RESULT:      -6.4     10.352     12.106
REMARK  Name = Tapinarof
REMARK  7 active torsions:
REMARK  status: ('A' for Active; 'I' for Inactive)
REMARK    1  A    between atoms: C_1  and  C_2
REMARK    2  A    between atoms: C_2  and  C_3
REMARK    3  A    between atoms: C_2  and  C_4
REMARK    4  A    between atoms: C_5  and  O_6
REMARK    5  A    between atoms: C_8  and  C_9
REMARK    6  A    between atoms: C_10  and  C_11
REMARK    7  A    between atoms: C_18  and  O_19
REMARK                            x       y       z     vdW  Elec       q    Type
REMARK                         _______ _______ _______ _____ _____    ______ ____
ROOT
ATOM      1  C   UNL     1      -6.997  -2.916 132.087  0.00  0.00    +0.000 A 
ATOM      2  C   UNL     1      -6.364  -3.827 131.225  0.00  0.00    +0.000 A 
ATOM      3  C   UNL     1      -6.456  -3.706 129.841  0.00  0.00    +0.000 A 
ATOM      4  C   UNL     1      -7.166  -2.658 129.254  0.00  0.00    +0.000 A 
ATOM      5  C   UNL     1      -7.778  -1.723 130.086  0.00  0.00    +0.000 A 
ATOM      6  C   UNL     1      -7.702  -1.860 131.474  0.00  0.00    +0.000 A 
ENDROOT
BRANCH   1   8
ATOM      7  C   UNL     1      -6.366  -1.934 134.396  0.00  0.00    +0.000 C 
ATOM      8  C   UNL     1      -6.923  -3.114 133.597  0.00  0.00    +0.000 C 
ATOM      9  C   UNL     1      -8.308  -3.472 134.157  0.00  0.00    +0.000 C 
ENDBRANCH   1   8
BRANCH   2  10
ATOM     10  O   UNL     1      -5.620  -4.899 131.641  0.00  0.00    +0.000 OA
ATOM     11  H   UNL     1      -4.686  -4.657 131.707  0.00  0.00    +0.000 HD
ENDBRANCH   2  10
BRANCH   4  12
ATOM     12  C   UNL     1      -7.295  -2.492 127.803  0.00  0.00    +0.000 C 
ATOM     13  C   UNL     1      -8.129  -3.217 127.036  0.00  0.00    +0.000 C 
BRANCH  13  14
ATOM     14  C   UNL     1      -8.216  -3.078 125.587  0.00  0.00    +0.000 A 
ATOM     15  C   UNL     1      -7.115  -2.569 124.890  0.00  0.00    +0.000 A 
ATOM     16  C   UNL     1      -7.220  -2.287 123.529  0.00  0.00    +0.000 A 
ATOM     17  C   UNL     1      -8.407  -2.562 122.851  0.00  0.00    +0.000 A 
ATOM     18  C   UNL     1      -9.502  -3.086 123.538  0.00  0.00    +0.000 A 
ATOM     19  C   UNL     1      -9.411  -3.329 124.906  0.00  0.00    +0.000 A 
ENDBRANCH  13  14
ENDBRANCH   4  12
BRANCH   6  20
ATOM     20  O   UNL     1      -8.358  -0.923 132.225  0.00  0.00    +0.000 OA
ATOM     21  H   UNL     1      -9.296  -1.151 132.322  0.00  0.00    +0.000 HD
ENDBRANCH   6  20
TORSDOF 5
ENDMDL
