MODEL 1
REMARK VINA RESULT:      -6.9      0.000      0.000
REMARK  Name = Tasimelteon
REMARK  5 active torsions:
REMARK  status: ('A' for Active; 'I' for Inactive)
REMARK    1  A    between atoms: C_1  and  C_2
REMARK    2  A    between atoms: C_2  and  C_3
REMARK    3  A    between atoms: N_5  and  C_6
REMARK    4  A    between atoms: C_6  and  C_7
REMARK    5  A    between atoms: C_9  and  C_10
REMARK                            x       y       z     vdW  Elec       q    Type
REMARK                         _______ _______ _______ _____ _____    ______ ____
ROOT
ATOM      1  C   UNL     1      -7.897   1.552 123.888  0.00  0.00    +0.000 C 
ATOM      2  C   UNL     1      -8.753   2.779 124.183  0.00  0.00    +0.000 C 
ATOM      3  C   UNL     1      -8.255   2.535 122.801  0.00  0.00    +0.000 C 
ENDROOT
BRANCH   3   4
ATOM      4  C   UNL     1      -7.243   3.306 121.981  0.00  0.00    +0.000 A 
ATOM      5  C   UNL     1      -5.874   3.519 122.236  0.00  0.00    +0.000 A 
ATOM      6  C   UNL     1      -5.030   4.154 121.282  0.00  0.00    +0.000 A 
ATOM      7  C   UNL     1      -5.529   4.608 120.059  0.00  0.00    +0.000 A 
ATOM      8  C   UNL     1      -6.871   4.432 119.824  0.00  0.00    +0.000 A 
ATOM      9  C   UNL     1      -7.697   3.823 120.758  0.00  0.00    +0.000 A 
ATOM     10  C   UNL     1      -9.089   3.845 120.227  0.00  0.00    +0.000 C 
ATOM     11  C   UNL     1      -8.792   4.124 118.764  0.00  0.00    +0.000 C 
ATOM     12  O   UNL     1      -7.515   4.794 118.667  0.00  0.00    +0.000 OA
ENDBRANCH   3   4
BRANCH   1  13
ATOM     13  C   UNL     1      -8.477   0.164 123.770  0.00  0.00    +0.000 C 
BRANCH  13  16
ATOM     14  C   UNL     1      -8.566  -1.705 125.368  0.00  0.00    +0.000 C 
ATOM     15  O   UNL     1      -9.788  -1.800 125.227  0.00  0.00    +0.000 OA
ATOM     16  N   UNL     1      -7.825  -0.764 124.681  0.00  0.00    +0.000 N 
ATOM     17  H   UNL     1      -6.824  -0.707 124.818  0.00  0.00    +0.000 HD
BRANCH  14  19
ATOM     18  C   UNL     1      -8.714  -3.387 127.234  0.00  0.00    +0.000 C 
ATOM     19  C   UNL     1      -7.781  -2.609 126.310  0.00  0.00    +0.000 C 
ENDBRANCH  14  19
ENDBRANCH  13  16
ENDBRANCH   1  13
TORSDOF 4
ENDMDL
MODEL 2
REMARK VINA RESULT:      -6.7      2.023      7.695
REMARK  Name = Tasimelteon
REMARK  5 active torsions:
REMARK  status: ('A' for Active; 'I' for Inactive)
REMARK    1  A    between atoms: C_1  and  C_2
REMARK    2  A    between atoms: C_2  and  C_3
REMARK    3  A    between atoms: N_5  and  C_6
REMARK    4  A    between atoms: C_6  and  C_7
REMARK    5  A    between atoms: C_9  and  C_10
REMARK                            x       y       z     vdW  Elec       q    Type
REMARK                         _______ _______ _______ _____ _____    ______ ____
ROOT
ATOM      1  C   UNL     1      -8.826   1.881 123.058  0.00  0.00    +0.000 C 
ATOM      2  C   UNL     1      -9.725   2.012 124.282  0.00  0.00    +0.000 C 
ATOM      3  C   UNL     1      -8.708   0.925 124.220  0.00  0.00    +0.000 C 
ENDROOT
BRANCH   3   4
ATOM      4  C   UNL     1      -8.890  -0.573 124.114  0.00  0.00    +0.000 A 
ATOM      5  C   UNL     1      -9.207  -1.349 122.982  0.00  0.00    +0.000 A 
ATOM      6  C   UNL     1      -9.202  -2.772 123.029  0.00  0.00    +0.000 A 
ATOM      7  C   UNL     1      -8.898  -3.457 124.208  0.00  0.00    +0.000 A 
ATOM      8  C   UNL     1      -8.623  -2.702 125.321  0.00  0.00    +0.000 A 
ATOM      9  C   UNL     1      -8.640  -1.315 125.279  0.00  0.00    +0.000 A 
ATOM     10  C   UNL     1      -8.365  -0.807 126.652  0.00  0.00    +0.000 C 
ATOM     11  C   UNL     1      -7.782  -2.066 127.270  0.00  0.00    +0.000 C 
ATOM     12  O   UNL     1      -8.282  -3.214 126.548  0.00  0.00    +0.000 OA
ENDBRANCH   3   4
BRANCH   1  13
ATOM     13  C   UNL     1      -7.653   2.797 122.808  0.00  0.00    +0.000 C 
BRANCH  13  16
ATOM     14  C   UNL     1      -6.650   3.781 120.788  0.00  0.00    +0.000 C 
ATOM     15  O   UNL     1      -5.518   3.475 121.171  0.00  0.00    +0.000 OA
ATOM     16  N   UNL     1      -7.775   3.480 121.529  0.00  0.00    +0.000 N 
ATOM     17  H   UNL     1      -8.691   3.745 121.191  0.00  0.00    +0.000 HD
BRANCH  14  19
ATOM     18  C   UNL     1      -5.707   5.401 119.107  0.00  0.00    +0.000 C 
ATOM     19  C   UNL     1      -6.897   4.517 119.477  0.00  0.00    +0.000 C 
ENDBRANCH  14  19
ENDBRANCH  13  16
ENDBRANCH   1  13
TORSDOF 4
ENDMDL
MODEL 3
REMARK VINA RESULT:      -6.6      3.264      7.718
REMARK  Name = Tasimelteon
REMARK  5 active torsions:
REMARK  status: ('A' for Active; 'I' for Inactive)
REMARK    1  A    between atoms: C_1  and  C_2
REMARK    2  A    between atoms: C_2  and  C_3
REMARK    3  A    between atoms: N_5  and  C_6
REMARK    4  A    between atoms: C_6  and  C_7
REMARK    5  A    between atoms: C_9  and  C_10
REMARK                            x       y       z     vdW  Elec       q    Type
REMARK                         _______ _______ _______ _____ _____    ______ ____
ROOT
ATOM      1  C   UNL     1      -8.087  -2.704 123.870  0.00  0.00    +0.000 C 
ATOM      2  C   UNL     1      -9.409  -3.460 123.953  0.00  0.00    +0.000 C 
ATOM      3  C   UNL     1      -9.067  -2.445 124.988  0.00  0.00    +0.000 C 
ENDROOT
BRANCH   3   4
ATOM      4  C   UNL     1      -8.751  -2.621 126.457  0.00  0.00    +0.000 A 
ATOM      5  C   UNL     1      -8.929  -3.757 127.272  0.00  0.00    +0.000 A 
ATOM      6  C   UNL     1      -8.445  -3.796 128.610  0.00  0.00    +0.000 A 
ATOM      7  C   UNL     1      -7.786  -2.702 129.176  0.00  0.00    +0.000 A 
ATOM      8  C   UNL     1      -7.643  -1.582 128.394  0.00  0.00    +0.000 A 
ATOM      9  C   UNL     1      -8.125  -1.538 127.094  0.00  0.00    +0.000 A 
ATOM     10  C   UNL     1      -7.867  -0.175 126.552  0.00  0.00    +0.000 C 
ATOM     11  C   UNL     1      -6.825   0.297 127.551  0.00  0.00    +0.000 C 
ATOM     12  O   UNL     1      -7.000  -0.434 128.786  0.00  0.00    +0.000 OA
ENDBRANCH   3   4
BRANCH   1  13
ATOM     13  C   UNL     1      -7.854  -1.578 122.894  0.00  0.00    +0.000 C 
BRANCH  13  16
ATOM     14  C   UNL     1      -9.491   0.247 123.098  0.00  0.00    +0.000 C 
ATOM     15  O   UNL     1     -10.265  -0.326 122.326  0.00  0.00    +0.000 OA
ATOM     16  N   UNL     1      -8.273  -0.299 123.447  0.00  0.00    +0.000 N 
ATOM     17  H   UNL     1      -7.658   0.194 124.082  0.00  0.00    +0.000 HD
BRANCH  14  19
ATOM     18  C   UNL     1      -8.739   2.632 123.389  0.00  0.00    +0.000 C 
ATOM     19  C   UNL     1      -9.814   1.600 123.721  0.00  0.00    +0.000 C 
ENDBRANCH  14  19
ENDBRANCH  13  16
ENDBRANCH   1  13
TORSDOF 4
ENDMDL
MODEL 4
REMARK VINA RESULT:      -6.6      2.432      3.295
REMARK  Name = Tasimelteon
REMARK  5 active torsions:
REMARK  status: ('A' for Active; 'I' for Inactive)
REMARK    1  A    between atoms: C_1  and  C_2
REMARK    2  A    between atoms: C_2  and  C_3
REMARK    3  A    between atoms: N_5  and  C_6
REMARK    4  A    between atoms: C_6  and  C_7
REMARK    5  A    between atoms: C_9  and  C_10
REMARK                            x       y       z     vdW  Elec       q    Type
REMARK                         _______ _______ _______ _____ _____    ______ ____
ROOT
ATOM      1  C   UNL     1      -8.820   0.242 123.965  0.00  0.00    +0.000 C 
ATOM      2  C   UNL     1      -9.621   1.298 123.211  0.00  0.00    +0.000 C 
ATOM      3  C   UNL     1      -8.132   1.353 123.210  0.00  0.00    +0.000 C 
ENDROOT
BRANCH   3   4
ATOM      4  C   UNL     1      -7.195   2.360 123.839  0.00  0.00    +0.000 A 
ATOM      5  C   UNL     1      -6.808   2.488 125.188  0.00  0.00    +0.000 A 
ATOM      6  C   UNL     1      -5.801   3.410 125.589  0.00  0.00    +0.000 A 
ATOM      7  C   UNL     1      -5.166   4.240 124.661  0.00  0.00    +0.000 A 
ATOM      8  C   UNL     1      -5.567   4.141 123.352  0.00  0.00    +0.000 A 
ATOM      9  C   UNL     1      -6.557   3.251 122.961  0.00  0.00    +0.000 A 
ATOM     10  C   UNL     1      -6.797   3.437 121.503  0.00  0.00    +0.000 C 
ATOM     11  C   UNL     1      -5.528   4.188 121.137  0.00  0.00    +0.000 C 
ATOM     12  O   UNL     1      -5.030   4.862 122.315  0.00  0.00    +0.000 OA
ENDBRANCH   3   4
BRANCH   1  13
ATOM     13  C   UNL     1      -8.626  -1.159 123.442  0.00  0.00    +0.000 C 
BRANCH  13  16
ATOM     14  C   UNL     1      -6.659  -2.631 123.573  0.00  0.00    +0.000 C 
ATOM     15  O   UNL     1      -7.315  -3.499 124.154  0.00  0.00    +0.000 OA
ATOM     16  N   UNL     1      -7.223  -1.437 123.172  0.00  0.00    +0.000 N 
ATOM     17  H   UNL     1      -6.660  -0.742 122.699  0.00  0.00    +0.000 HD
BRANCH  14  19
ATOM     18  C   UNL     1      -4.642  -4.118 123.820  0.00  0.00    +0.000 C 
ATOM     19  C   UNL     1      -5.178  -2.803 123.257  0.00  0.00    +0.000 C 
ENDBRANCH  14  19
ENDBRANCH  13  16
ENDBRANCH   1  13
TORSDOF 4
ENDMDL
MODEL 5
REMARK VINA RESULT:      -6.4      3.379      5.027
REMARK  Name = Tasimelteon
REMARK  5 active torsions:
REMARK  status: ('A' for Active; 'I' for Inactive)
REMARK    1  A    between atoms: C_1  and  C_2
REMARK    2  A    between atoms: C_2  and  C_3
REMARK    3  A    between atoms: N_5  and  C_6
REMARK    4  A    between atoms: C_6  and  C_7
REMARK    5  A    between atoms: C_9  and  C_10
REMARK                            x       y       z     vdW  Elec       q    Type
REMARK                         _______ _______ _______ _____ _____    ______ ____
ROOT
ATOM      1  C   UNL     1      -9.275  -2.984 124.680  0.00  0.00    +0.000 C 
ATOM      2  C   UNL     1      -9.680  -3.414 123.274  0.00  0.00    +0.000 C 
ATOM      3  C   UNL     1      -8.743  -2.270 123.461  0.00  0.00    +0.000 C 
ENDROOT
BRANCH   3   4
ATOM      4  C   UNL     1      -8.939  -0.797 123.182  0.00  0.00    +0.000 A 
ATOM      5  C   UNL     1      -9.993  -0.156 122.500  0.00  0.00    +0.000 A 
ATOM      6  C   UNL     1     -10.093   1.263 122.449  0.00  0.00    +0.000 A 
ATOM      7  C   UNL     1      -9.139   2.080 123.061  0.00  0.00    +0.000 A 
ATOM      8  C   UNL     1      -8.093   1.458 123.697  0.00  0.00    +0.000 A 
ATOM      9  C   UNL     1      -7.988   0.074 123.737  0.00  0.00    +0.000 A 
ATOM     10  C   UNL     1      -6.721  -0.272 124.438  0.00  0.00    +0.000 C 
ATOM     11  C   UNL     1      -6.442   1.057 125.119  0.00  0.00    +0.000 C 
ATOM     12  O   UNL     1      -7.089   2.109 124.368  0.00  0.00    +0.000 OA
ENDBRANCH   3   4
BRANCH   1  13
ATOM     13  C   UNL     1      -8.276  -3.752 125.510  0.00  0.00    +0.000 C 
BRANCH  13  16
ATOM     14  C   UNL     1      -8.415  -3.268 127.919  0.00  0.00    +0.000 C 
ATOM     15  O   UNL     1      -9.253  -4.160 128.075  0.00  0.00    +0.000 OA
ATOM     16  N   UNL     1      -7.865  -2.994 126.683  0.00  0.00    +0.000 N 
ATOM     17  H   UNL     1      -7.181  -2.255 126.583  0.00  0.00    +0.000 HD
BRANCH  14  19
ATOM     18  C   UNL     1      -7.430  -3.250 130.235  0.00  0.00    +0.000 C 
ATOM     19  C   UNL     1      -7.925  -2.397 129.069  0.00  0.00    +0.000 C 
ENDBRANCH  14  19
ENDBRANCH  13  16
ENDBRANCH   1  13
TORSDOF 4
ENDMDL
MODEL 6
REMARK VINA RESULT:      -6.4      1.906      2.728
REMARK  Name = Tasimelteon
REMARK  5 active torsions:
REMARK  status: ('A' for Active; 'I' for Inactive)
REMARK    1  A    between atoms: C_1  and  C_2
REMARK    2  A    between atoms: C_2  and  C_3
REMARK    3  A    between atoms: N_5  and  C_6
REMARK    4  A    between atoms: C_6  and  C_7
REMARK    5  A    between atoms: C_9  and  C_10
REMARK                            x       y       z     vdW  Elec       q    Type
REMARK                         _______ _______ _______ _____ _____    ______ ____
ROOT
ATOM      1  C   UNL     1      -9.031   0.543 123.691  0.00  0.00    +0.000 C 
ATOM      2  C   UNL     1      -9.801   1.685 123.037  0.00  0.00    +0.000 C 
ATOM      3  C   UNL     1      -8.313   1.659 122.972  0.00  0.00    +0.000 C 
ENDROOT
BRANCH   3   4
ATOM      4  C   UNL     1      -7.295   2.573 123.616  0.00  0.00    +0.000 A 
ATOM      5  C   UNL     1      -6.894   2.642 124.965  0.00  0.00    +0.000 A 
ATOM      6  C   UNL     1      -5.813   3.470 125.379  0.00  0.00    +0.000 A 
ATOM      7  C   UNL     1      -5.115   4.264 124.465  0.00  0.00    +0.000 A 
ATOM      8  C   UNL     1      -5.527   4.224 123.156  0.00  0.00    +0.000 A 
ATOM      9  C   UNL     1      -6.589   3.425 122.753  0.00  0.00    +0.000 A 
ATOM     10  C   UNL     1      -6.817   3.659 121.300  0.00  0.00    +0.000 C 
ATOM     11  C   UNL     1      -5.492   4.311 120.942  0.00  0.00    +0.000 C 
ATOM     12  O   UNL     1      -4.936   4.919 122.130  0.00  0.00    +0.000 OA
ENDBRANCH   3   4
BRANCH   1  13
ATOM     13  C   UNL     1      -8.939  -0.833 123.078  0.00  0.00    +0.000 C 
BRANCH  13  16
ATOM     14  C   UNL     1      -8.941  -3.089 124.059  0.00  0.00    +0.000 C 
ATOM     15  O   UNL     1      -9.826  -3.454 123.281  0.00  0.00    +0.000 OA
ATOM     16  N   UNL     1      -8.429  -1.807 124.031  0.00  0.00    +0.000 N 
ATOM     17  H   UNL     1      -7.705  -1.534 124.682  0.00  0.00    +0.000 HD
BRANCH  14  19
ATOM     18  C   UNL     1      -8.559  -3.461 126.520  0.00  0.00    +0.000 C 
ATOM     19  C   UNL     1      -8.347  -4.016 125.113  0.00  0.00    +0.000 C 
ENDBRANCH  14  19
ENDBRANCH  13  16
ENDBRANCH   1  13
TORSDOF 4
ENDMDL
MODEL 7
REMARK VINA RESULT:      -6.4      9.416     11.907
REMARK  Name = Tasimelteon
REMARK  5 active torsions:
REMARK  status: ('A' for Active; 'I' for Inactive)
REMARK    1  A    between atoms: C_1  and  C_2
REMARK    2  A    between atoms: C_2  and  C_3
REMARK    3  A    between atoms: N_5  and  C_6
REMARK    4  A    between atoms: C_6  and  C_7
REMARK    5  A    between atoms: C_9  and  C_10
REMARK                            x       y       z     vdW  Elec       q    Type
REMARK                         _______ _______ _______ _____ _____    ______ ____
ROOT
ATOM      1  C   UNL     1     -10.513   6.918 130.809  0.00  0.00    +0.000 C 
ATOM      2  C   UNL     1      -9.149   7.376 130.304  0.00  0.00    +0.000 C 
ATOM      3  C   UNL     1      -9.336   5.974 130.772  0.00  0.00    +0.000 C 
ENDROOT
BRANCH   3   4
ATOM      4  C   UNL     1      -8.770   5.270 131.986  0.00  0.00    +0.000 A 
ATOM      5  C   UNL     1      -8.100   5.820 133.097  0.00  0.00    +0.000 A 
ATOM      6  C   UNL     1      -7.754   5.025 134.226  0.00  0.00    +0.000 A 
ATOM      7  C   UNL     1      -8.051   3.660 134.271  0.00  0.00    +0.000 A 
ATOM      8  C   UNL     1      -8.673   3.116 133.174  0.00  0.00    +0.000 A 
ATOM      9  C   UNL     1      -9.000   3.888 132.067  0.00  0.00    +0.000 A 
ATOM     10  C   UNL     1      -9.598   2.991 131.039  0.00  0.00    +0.000 C 
ATOM     11  C   UNL     1      -9.933   1.797 131.916  0.00  0.00    +0.000 C 
ATOM     12  O   UNL     1      -9.057   1.803 133.066  0.00  0.00    +0.000 OA
ENDBRANCH   3   4
BRANCH   1  13
ATOM     13  C   UNL     1     -11.663   6.610 129.882  0.00  0.00    +0.000 C 
BRANCH  13  16
ATOM     14  C   UNL     1     -12.425   8.698 128.827  0.00  0.00    +0.000 C 
ATOM     15  O   UNL     1     -11.506   8.648 128.005  0.00  0.00    +0.000 OA
ATOM     16  N   UNL     1     -12.590   7.728 129.795  0.00  0.00    +0.000 N 
ATOM     17  H   UNL     1     -13.351   7.796 130.458  0.00  0.00    +0.000 HD
BRANCH  14  19
ATOM     18  C   UNL     1     -13.371  10.618 130.153  0.00  0.00    +0.000 C 
ATOM     19  C   UNL     1     -13.442   9.832 128.845  0.00  0.00    +0.000 C 
ENDBRANCH  14  19
ENDBRANCH  13  16
ENDBRANCH   1  13
TORSDOF 4
ENDMDL
MODEL 8
REMARK VINA RESULT:      -6.3      2.437      7.139
REMARK  Name = Tasimelteon
REMARK  5 active torsions:
REMARK  status: ('A' for Active; 'I' for Inactive)
REMARK    1  A    between atoms: C_1  and  C_2
REMARK    2  A    between atoms: C_2  and  C_3
REMARK    3  A    between atoms: N_5  and  C_6
REMARK    4  A    between atoms: C_6  and  C_7
REMARK    5  A    between atoms: C_9  and  C_10
REMARK                            x       y       z     vdW  Elec       q    Type
REMARK                         _______ _______ _______ _____ _____    ______ ____
ROOT
ATOM      1  C   UNL     1      -8.703   1.558 123.205  0.00  0.00    +0.000 C 
ATOM      2  C   UNL     1      -9.629   0.882 124.211  0.00  0.00    +0.000 C 
ATOM      3  C   UNL     1      -8.153   0.731 124.341  0.00  0.00    +0.000 C 
ENDROOT
BRANCH   3   4
ATOM      4  C   UNL     1      -7.281  -0.493 124.161  0.00  0.00    +0.000 A 
ATOM      5  C   UNL     1      -6.858  -1.112 122.968  0.00  0.00    +0.000 A 
ATOM      6  C   UNL     1      -5.917  -2.180 122.977  0.00  0.00    +0.000 A 
ATOM      7  C   UNL     1      -5.388  -2.671 124.173  0.00  0.00    +0.000 A 
ATOM      8  C   UNL     1      -5.826  -2.092 125.338  0.00  0.00    +0.000 A 
ATOM      9  C   UNL     1      -6.752  -1.058 125.331  0.00  0.00    +0.000 A 
ATOM     10  C   UNL     1      -7.058  -0.704 126.745  0.00  0.00    +0.000 C 
ATOM     11  C   UNL     1      -5.871  -1.359 127.429  0.00  0.00    +0.000 C 
ATOM     12  O   UNL     1      -5.388  -2.436 126.593  0.00  0.00    +0.000 OA
ENDBRANCH   3   4
BRANCH   1  13
ATOM     13  C   UNL     1      -8.410   3.037 123.235  0.00  0.00    +0.000 C 
BRANCH  13  16
ATOM     14  C   UNL     1      -7.832   3.742 120.949  0.00  0.00    +0.000 C 
ATOM     15  O   UNL     1      -9.023   3.756 120.625  0.00  0.00    +0.000 OA
ATOM     16  N   UNL     1      -7.428   3.405 122.226  0.00  0.00    +0.000 N 
ATOM     17  H   UNL     1      -6.445   3.400 122.463  0.00  0.00    +0.000 HD
BRANCH  14  19
ATOM     18  C   UNL     1      -5.348   4.011 120.645  0.00  0.00    +0.000 C 
ATOM     19  C   UNL     1      -6.716   4.088 119.971  0.00  0.00    +0.000 C 
ENDBRANCH  14  19
ENDBRANCH  13  16
ENDBRANCH   1  13
TORSDOF 4
ENDMDL
MODEL 9
REMARK VINA RESULT:      -6.3      5.244      9.628
REMARK  Name = Tasimelteon
REMARK  5 active torsions:
REMARK  status: ('A' for Active; 'I' for Inactive)
REMARK    1  A    between atoms: C_1  and  C_2
REMARK    2  A    between atoms: C_2  and  C_3
REMARK    3  A    between atoms: N_5  and  C_6
REMARK    4  A    between atoms: C_6  and  C_7
REMARK    5  A    between atoms: C_9  and  C_10
REMARK                            x       y       z     vdW  Elec       q    Type
REMARK                         _______ _______ _______ _____ _____    ______ ____
ROOT
ATOM      1  C   UNL     1      -8.004  -2.940 127.256  0.00  0.00    +0.000 C 
ATOM      2  C   UNL     1      -8.936  -4.016 127.802  0.00  0.00    +0.000 C 
ATOM      3  C   UNL     1      -8.346  -3.005 128.724  0.00  0.00    +0.000 C 
ENDROOT
BRANCH   3   4
ATOM      4  C   UNL     1      -7.329  -3.174 129.830  0.00  0.00    +0.000 A 
ATOM      5  C   UNL     1      -6.407  -4.220 130.035  0.00  0.00    +0.000 A 
ATOM      6  C   UNL     1      -5.418  -4.152 131.056  0.00  0.00    +0.000 A 
ATOM      7  C   UNL     1      -5.332  -3.050 131.911  0.00  0.00    +0.000 A 
ATOM      8  C   UNL     1      -6.252  -2.046 131.735  0.00  0.00    +0.000 A 
ATOM      9  C   UNL     1      -7.224  -2.116 130.747  0.00  0.00    +0.000 A 
ATOM     10  C   UNL     1      -8.091  -0.911 130.866  0.00  0.00    +0.000 C 
ATOM     11  C   UNL     1      -7.186  -0.037 131.716  0.00  0.00    +0.000 C 
ATOM     12  O   UNL     1      -6.291  -0.886 132.469  0.00  0.00    +0.000 OA
ENDBRANCH   3   4
BRANCH   1  13
ATOM     13  C   UNL     1      -8.506  -1.740 126.492  0.00  0.00    +0.000 C 
BRANCH  13  16
ATOM     14  C   UNL     1      -8.620  -2.193 124.076  0.00  0.00    +0.000 C 
ATOM     15  O   UNL     1      -9.738  -2.700 124.198  0.00  0.00    +0.000 OA
ATOM     16  N   UNL     1      -7.930  -1.680 125.157  0.00  0.00    +0.000 N 
ATOM     17  H   UNL     1      -7.014  -1.271 125.027  0.00  0.00    +0.000 HD
BRANCH  14  19
ATOM     18  C   UNL     1      -6.424  -1.795 122.911  0.00  0.00    +0.000 C 
ATOM     19  C   UNL     1      -7.910  -2.095 122.731  0.00  0.00    +0.000 C 
ENDBRANCH  14  19
ENDBRANCH  13  16
ENDBRANCH   1  13
TORSDOF 4
ENDMDL
