MODEL 1
REMARK VINA RESULT:      -8.1      0.000      0.000
REMARK  Name = Tauroursodeoxycholic acid
REMARK  13 active torsions:
REMARK  status: ('A' for Active; 'I' for Inactive)
REMARK    1  A    between atoms: C_5  and  C_6
REMARK    2  A    between atoms: C_6  and  C_7
REMARK    3  A    between atoms: C_6  and  C_8
REMARK    4  A    between atoms: C_8  and  C_9
REMARK    5  A    between atoms: C_9  and  C_10
REMARK    6  A    between atoms: N_12  and  C_13
REMARK    7  A    between atoms: C_13  and  C_14
REMARK    8  A    between atoms: C_14  and  S_15
REMARK    9  A    between atoms: S_15  and  O_16
REMARK   10  A    between atoms: C_19  and  C_20
REMARK   11  A    between atoms: C_27  and  O_28
REMARK   12  A    between atoms: C_33  and  O_34
REMARK   13  A    between atoms: C_37  and  C_38
REMARK                            x       y       z     vdW  Elec       q    Type
REMARK                         _______ _______ _______ _____ _____    ______ ____
ROOT
ATOM      1  C   UNL     1      -7.734  -2.085 125.614  0.00  0.00    +0.000 C 
ATOM      2  C   UNL     1      -8.511  -3.036 124.692  0.00  0.00    +0.000 C 
ATOM      3  C   UNL     1      -8.351  -2.429 123.249  0.00  0.00    +0.000 C 
ATOM      4  C   UNL     1      -7.541  -1.121 123.432  0.00  0.00    +0.000 C 
ATOM      5  C   UNL     1      -6.678  -1.497 124.673  0.00  0.00    +0.000 C 
ATOM      6  C   UNL     1      -5.630  -2.565 124.260  0.00  0.00    +0.000 C 
ATOM      7  C   UNL     1      -5.953  -0.367 125.377  0.00  0.00    +0.000 C 
ATOM      8  C   UNL     1      -5.294  -0.775 126.666  0.00  0.00    +0.000 C 
ATOM      9  C   UNL     1      -6.327  -1.408 127.621  0.00  0.00    +0.000 C 
ATOM     10  C   UNL     1      -7.189  -2.550 126.968  0.00  0.00    +0.000 C 
ATOM     11  C   UNL     1      -8.316  -2.905 127.964  0.00  0.00    +0.000 C 
ATOM     12  C   UNL     1      -7.726  -3.376 129.294  0.00  0.00    +0.000 C 
ATOM     13  C   UNL     1      -6.771  -2.357 129.941  0.00  0.00    +0.000 C 
ATOM     14  C   UNL     1      -7.585  -1.205 130.562  0.00  0.00    +0.000 C 
ATOM     15  C   UNL     1      -6.699  -0.146 131.208  0.00  0.00    +0.000 C 
ATOM     16  C   UNL     1      -5.717   0.416 130.190  0.00  0.00    +0.000 C 
ATOM     17  C   UNL     1      -4.857  -0.710 129.622  0.00  0.00    +0.000 C 
ATOM     18  C   UNL     1      -5.670  -1.861 128.955  0.00  0.00    +0.000 C 
ATOM     19  C   UNL     1      -4.675  -3.010 128.661  0.00  0.00    +0.000 C 
ENDROOT
BRANCH   4  20
ATOM     20  C   UNL     1      -8.457   0.177 123.484  0.00  0.00    +0.000 C 
ATOM     21  C   UNL     1      -9.764   0.035 122.673  0.00  0.00    +0.000 C 
BRANCH  20  22
ATOM     22  C   UNL     1      -7.801   1.548 123.143  0.00  0.00    +0.000 C 
BRANCH  22  23
ATOM     23  C   UNL     1      -8.618   2.791 123.500  0.00  0.00    +0.000 C 
BRANCH  23  24
ATOM     24  C   UNL     1      -8.223   3.486 124.766  0.00  0.00    +0.000 C 
ATOM     25  O   UNL     1      -8.894   4.358 125.302  0.00  0.00    +0.000 OA
ATOM     26  N   UNL     1      -6.965   3.099 125.212  0.00  0.00    +0.000 N 
ATOM     27  H   UNL     1      -6.386   2.492 124.640  0.00  0.00    +0.000 HD
BRANCH  26  28
ATOM     28  C   UNL     1      -6.445   3.716 126.409  0.00  0.00    +0.000 C 
BRANCH  28  29
ATOM     29  C   UNL     1      -6.506   2.835 127.635  0.00  0.00    +0.000 C 
BRANCH  29  30
ATOM     30  S   UNL     1      -7.945   3.214 128.624  0.00  0.00    +0.000 S 
ATOM     31  O   UNL     1      -9.027   2.317 128.258  0.00  0.00    +0.000 OA
ATOM     32  O   UNL     1      -7.536   3.406 129.988  0.00  0.00    +0.000 OA
BRANCH  30  33
ATOM     33  O   UNL     1      -8.295   4.659 127.986  0.00  0.00    +0.000 OA
ATOM     34  H   UNL     1      -7.496   5.078 127.601  0.00  0.00    +0.000 HD
ENDBRANCH  30  33
ENDBRANCH  29  30
ENDBRANCH  28  29
ENDBRANCH  26  28
ENDBRANCH  23  24
ENDBRANCH  22  23
ENDBRANCH  20  22
ENDBRANCH   4  20
BRANCH  11  35
ATOM     35  O   UNL     1      -9.171  -3.922 127.455  0.00  0.00    +0.000 OA
ATOM     36  H   UNL     1      -8.753  -4.295 126.663  0.00  0.00    +0.000 HD
ENDBRANCH  11  35
BRANCH  15  37
ATOM     37  O   UNL     1      -7.504   0.898 131.740  0.00  0.00    +0.000 OA
ATOM     38  H   UNL     1      -7.215   1.075 132.652  0.00  0.00    +0.000 HD
ENDBRANCH  15  37
TORSDOF 10
ENDMDL
MODEL 2
REMARK VINA RESULT:      -8.1      4.038      7.452
REMARK  Name = Tauroursodeoxycholic acid
REMARK  13 active torsions:
REMARK  status: ('A' for Active; 'I' for Inactive)
REMARK    1  A    between atoms: C_5  and  C_6
REMARK    2  A    between atoms: C_6  and  C_7
REMARK    3  A    between atoms: C_6  and  C_8
REMARK    4  A    between atoms: C_8  and  C_9
REMARK    5  A    between atoms: C_9  and  C_10
REMARK    6  A    between atoms: N_12  and  C_13
REMARK    7  A    between atoms: C_13  and  C_14
REMARK    8  A    between atoms: C_14  and  S_15
REMARK    9  A    between atoms: S_15  and  O_16
REMARK   10  A    between atoms: C_19  and  C_20
REMARK   11  A    between atoms: C_27  and  O_28
REMARK   12  A    between atoms: C_33  and  O_34
REMARK   13  A    between atoms: C_37  and  C_38
REMARK                            x       y       z     vdW  Elec       q    Type
REMARK                         _______ _______ _______ _____ _____    ______ ____
ROOT
ATOM      1  C   UNL     1      -6.301   3.438 129.489  0.00  0.00    +0.000 C 
ATOM      2  C   UNL     1      -5.149   3.666 130.479  0.00  0.00    +0.000 C 
ATOM      3  C   UNL     1      -5.828   4.259 131.769  0.00  0.00    +0.000 C 
ATOM      4  C   UNL     1      -7.331   4.399 131.424  0.00  0.00    +0.000 C 
ATOM      5  C   UNL     1      -7.500   3.223 130.418  0.00  0.00    +0.000 C 
ATOM      6  C   UNL     1      -7.387   1.878 131.184  0.00  0.00    +0.000 C 
ATOM      7  C   UNL     1      -8.772   3.195 129.593  0.00  0.00    +0.000 C 
ATOM      8  C   UNL     1      -8.781   2.141 128.521  0.00  0.00    +0.000 C 
ATOM      9  C   UNL     1      -7.562   2.309 127.592  0.00  0.00    +0.000 C 
ATOM     10  C   UNL     1      -6.188   2.421 128.350  0.00  0.00    +0.000 C 
ATOM     11  C   UNL     1      -5.117   2.820 127.310  0.00  0.00    +0.000 C 
ATOM     12  C   UNL     1      -5.031   1.770 126.202  0.00  0.00    +0.000 C 
ATOM     13  C   UNL     1      -6.370   1.514 125.487  0.00  0.00    +0.000 C 
ATOM     14  C   UNL     1      -6.680   2.685 124.533  0.00  0.00    +0.000 C 
ATOM     15  C   UNL     1      -8.006   2.505 123.802  0.00  0.00    +0.000 C 
ATOM     16  C   UNL     1      -9.144   2.347 124.801  0.00  0.00    +0.000 C 
ATOM     17  C   UNL     1      -8.879   1.146 125.704  0.00  0.00    +0.000 C 
ATOM     18  C   UNL     1      -7.532   1.219 126.484  0.00  0.00    +0.000 C 
ATOM     19  C   UNL     1      -7.314  -0.164 127.145  0.00  0.00    +0.000 C 
ENDROOT
BRANCH   4  20
ATOM     20  C   UNL     1      -7.733   5.871 130.976  0.00  0.00    +0.000 C 
ATOM     21  C   UNL     1      -6.573   6.884 131.097  0.00  0.00    +0.000 C 
BRANCH  20  22
ATOM     22  C   UNL     1      -9.016   6.500 131.597  0.00  0.00    +0.000 C 
BRANCH  22  23
ATOM     23  C   UNL     1     -10.264   5.616 131.598  0.00  0.00    +0.000 C 
BRANCH  23  24
ATOM     24  C   UNL     1     -11.500   6.238 131.026  0.00  0.00    +0.000 C 
ATOM     25  O   UNL     1     -12.473   6.562 131.696  0.00  0.00    +0.000 OA
ATOM     26  N   UNL     1     -11.459   6.319 129.640  0.00  0.00    +0.000 N 
ATOM     27  H   UNL     1     -10.696   5.887 129.126  0.00  0.00    +0.000 HD
BRANCH  26  28
ATOM     28  C   UNL     1     -12.603   6.870 128.952  0.00  0.00    +0.000 C 
BRANCH  28  29
ATOM     29  C   UNL     1     -12.437   6.965 127.453  0.00  0.00    +0.000 C 
BRANCH  29  30
ATOM     30  S   UNL     1     -10.879   7.731 127.030  0.00  0.00    +0.000 S 
ATOM     31  O   UNL     1     -10.870   8.042 125.611  0.00  0.00    +0.000 OA
ATOM     32  O   UNL     1     -10.553   8.708 128.032  0.00  0.00    +0.000 OA
BRANCH  30  33
ATOM     33  O   UNL     1      -9.920   6.445 127.237  0.00  0.00    +0.000 OA
ATOM     34  H   UNL     1      -9.059   6.570 126.783  0.00  0.00    +0.000 HD
ENDBRANCH  30  33
ENDBRANCH  29  30
ENDBRANCH  28  29
ENDBRANCH  26  28
ENDBRANCH  23  24
ENDBRANCH  22  23
ENDBRANCH  20  22
ENDBRANCH   4  20
BRANCH  11  35
ATOM     35  O   UNL     1      -3.832   2.967 127.903  0.00  0.00    +0.000 OA
ATOM     36  H   UNL     1      -3.252   3.394 127.254  0.00  0.00    +0.000 HD
ENDBRANCH  11  35
BRANCH  15  37
ATOM     37  O   UNL     1      -8.246   3.624 122.958  0.00  0.00    +0.000 OA
ATOM     38  H   UNL     1      -7.421   3.838 122.489  0.00  0.00    +0.000 HD
ENDBRANCH  15  37
TORSDOF 10
ENDMDL
MODEL 3
REMARK VINA RESULT:      -7.7      2.408      5.024
REMARK  Name = Tauroursodeoxycholic acid
REMARK  13 active torsions:
REMARK  status: ('A' for Active; 'I' for Inactive)
REMARK    1  A    between atoms: C_5  and  C_6
REMARK    2  A    between atoms: C_6  and  C_7
REMARK    3  A    between atoms: C_6  and  C_8
REMARK    4  A    between atoms: C_8  and  C_9
REMARK    5  A    between atoms: C_9  and  C_10
REMARK    6  A    between atoms: N_12  and  C_13
REMARK    7  A    between atoms: C_13  and  C_14
REMARK    8  A    between atoms: C_14  and  S_15
REMARK    9  A    between atoms: S_15  and  O_16
REMARK   10  A    between atoms: C_19  and  C_20
REMARK   11  A    between atoms: C_27  and  O_28
REMARK   12  A    between atoms: C_33  and  O_34
REMARK   13  A    between atoms: C_37  and  C_38
REMARK                            x       y       z     vdW  Elec       q    Type
REMARK                         _______ _______ _______ _____ _____    ______ ____
ROOT
ATOM      1  C   UNL     1      -7.489  -1.185 130.030  0.00  0.00    +0.000 C 
ATOM      2  C   UNL     1      -7.397  -2.551 130.725  0.00  0.00    +0.000 C 
ATOM      3  C   UNL     1      -6.949  -3.555 129.599  0.00  0.00    +0.000 C 
ATOM      4  C   UNL     1      -6.870  -2.716 128.298  0.00  0.00    +0.000 C 
ATOM      5  C   UNL     1      -6.484  -1.326 128.883  0.00  0.00    +0.000 C 
ATOM      6  C   UNL     1      -5.026  -1.384 129.413  0.00  0.00    +0.000 C 
ATOM      7  C   UNL     1      -6.606  -0.129 127.961  0.00  0.00    +0.000 C 
ATOM      8  C   UNL     1      -6.395   1.193 128.644  0.00  0.00    +0.000 C 
ATOM      9  C   UNL     1      -7.368   1.347 129.830  0.00  0.00    +0.000 C 
ATOM     10  C   UNL     1      -7.374   0.123 130.818  0.00  0.00    +0.000 C 
ATOM     11  C   UNL     1      -8.553   0.325 131.797  0.00  0.00    +0.000 C 
ATOM     12  C   UNL     1      -8.389   1.634 132.569  0.00  0.00    +0.000 C 
ATOM     13  C   UNL     1      -8.255   2.873 131.666  0.00  0.00    +0.000 C 
ATOM     14  C   UNL     1      -9.633   3.240 131.080  0.00  0.00    +0.000 C 
ATOM     15  C   UNL     1      -9.571   4.452 130.158  0.00  0.00    +0.000 C 
ATOM     16  C   UNL     1      -8.586   4.204 129.024  0.00  0.00    +0.000 C 
ATOM     17  C   UNL     1      -7.202   3.910 129.594  0.00  0.00    +0.000 C 
ATOM     18  C   UNL     1      -7.157   2.697 130.572  0.00  0.00    +0.000 C 
ATOM     19  C   UNL     1      -5.757   2.695 131.232  0.00  0.00    +0.000 C 
ENDROOT
BRANCH   4  20
ATOM     20  C   UNL     1      -8.171  -2.847 127.394  0.00  0.00    +0.000 C 
ATOM     21  C   UNL     1      -9.075  -4.034 127.791  0.00  0.00    +0.000 C 
BRANCH  20  22
ATOM     22  C   UNL     1      -7.989  -2.851 125.847  0.00  0.00    +0.000 C 
BRANCH  22  23
ATOM     23  C   UNL     1      -9.207  -2.427 125.025  0.00  0.00    +0.000 C 
BRANCH  23  24
ATOM     24  C   UNL     1      -8.996  -1.264 124.104  0.00  0.00    +0.000 C 
ATOM     25  O   UNL     1      -9.702  -1.028 123.133  0.00  0.00    +0.000 OA
ATOM     26  N   UNL     1      -7.853  -0.540 124.419  0.00  0.00    +0.000 N 
ATOM     27  H   UNL     1      -7.217  -0.877 125.136  0.00  0.00    +0.000 HD
BRANCH  26  28
ATOM     28  C   UNL     1      -7.511   0.592 123.591  0.00  0.00    +0.000 C 
BRANCH  28  29
ATOM     29  C   UNL     1      -7.275   1.872 124.359  0.00  0.00    +0.000 C 
BRANCH  29  30
ATOM     30  S   UNL     1      -8.799   2.484 125.064  0.00  0.00    +0.000 S 
ATOM     31  O   UNL     1      -9.151   1.675 126.218  0.00  0.00    +0.000 OA
ATOM     32  O   UNL     1      -8.742   3.919 125.120  0.00  0.00    +0.000 OA
BRANCH  30  33
ATOM     33  O   UNL     1      -9.800   2.058 123.867  0.00  0.00    +0.000 OA
ATOM     34  H   UNL     1      -9.902   2.784 123.216  0.00  0.00    +0.000 HD
ENDBRANCH  30  33
ENDBRANCH  29  30
ENDBRANCH  28  29
ENDBRANCH  26  28
ENDBRANCH  23  24
ENDBRANCH  22  23
ENDBRANCH  20  22
ENDBRANCH   4  20
BRANCH  11  35
ATOM     35  O   UNL     1      -8.659  -0.746 132.727  0.00  0.00    +0.000 OA
ATOM     36  H   UNL     1      -7.908  -1.342 132.582  0.00  0.00    +0.000 HD
ENDBRANCH  11  35
BRANCH  15  37
ATOM     37  O   UNL     1     -10.864   4.726 129.633  0.00  0.00    +0.000 OA
ATOM     38  H   UNL     1     -10.830   4.629 128.666  0.00  0.00    +0.000 HD
ENDBRANCH  15  37
TORSDOF 10
ENDMDL
MODEL 4
REMARK VINA RESULT:      -7.6      2.134      5.723
REMARK  Name = Tauroursodeoxycholic acid
REMARK  13 active torsions:
REMARK  status: ('A' for Active; 'I' for Inactive)
REMARK    1  A    between atoms: C_5  and  C_6
REMARK    2  A    between atoms: C_6  and  C_7
REMARK    3  A    between atoms: C_6  and  C_8
REMARK    4  A    between atoms: C_8  and  C_9
REMARK    5  A    between atoms: C_9  and  C_10
REMARK    6  A    between atoms: N_12  and  C_13
REMARK    7  A    between atoms: C_13  and  C_14
REMARK    8  A    between atoms: C_14  and  S_15
REMARK    9  A    between atoms: S_15  and  O_16
REMARK   10  A    between atoms: C_19  and  C_20
REMARK   11  A    between atoms: C_27  and  O_28
REMARK   12  A    between atoms: C_33  and  O_34
REMARK   13  A    between atoms: C_37  and  C_38
REMARK                            x       y       z     vdW  Elec       q    Type
REMARK                         _______ _______ _______ _____ _____    ______ ____
ROOT
ATOM      1  C   UNL     1      -7.206  -0.284 129.270  0.00  0.00    +0.000 C 
ATOM      2  C   UNL     1      -7.724  -0.893 130.581  0.00  0.00    +0.000 C 
ATOM      3  C   UNL     1      -7.677  -2.450 130.357  0.00  0.00    +0.000 C 
ATOM      4  C   UNL     1      -7.193  -2.648 128.898  0.00  0.00    +0.000 C 
ATOM      5  C   UNL     1      -6.294  -1.388 128.727  0.00  0.00    +0.000 C 
ATOM      6  C   UNL     1      -5.020  -1.549 129.599  0.00  0.00    +0.000 C 
ATOM      7  C   UNL     1      -5.863  -1.033 127.317  0.00  0.00    +0.000 C 
ATOM      8  C   UNL     1      -5.156   0.290 127.210  0.00  0.00    +0.000 C 
ATOM      9  C   UNL     1      -6.036   1.417 127.786  0.00  0.00    +0.000 C 
ATOM     10  C   UNL     1      -6.598   1.121 129.225  0.00  0.00    +0.000 C 
ATOM     11  C   UNL     1      -7.635   2.220 129.551  0.00  0.00    +0.000 C 
ATOM     12  C   UNL     1      -6.981   3.602 129.507  0.00  0.00    +0.000 C 
ATOM     13  C   UNL     1      -6.299   3.921 128.165  0.00  0.00    +0.000 C 
ATOM     14  C   UNL     1      -7.370   4.252 127.105  0.00  0.00    +0.000 C 
ATOM     15  C   UNL     1      -6.764   4.562 125.742  0.00  0.00    +0.000 C 
ATOM     16  C   UNL     1      -5.916   3.393 125.260  0.00  0.00    +0.000 C 
ATOM     17  C   UNL     1      -4.809   3.106 126.270  0.00  0.00    +0.000 C 
ATOM     18  C   UNL     1      -5.321   2.796 127.710  0.00  0.00    +0.000 C 
ATOM     19  C   UNL     1      -4.082   2.773 128.638  0.00  0.00    +0.000 C 
ENDROOT
BRANCH   4  20
ATOM     20  C   UNL     1      -8.384  -2.900 127.876  0.00  0.00    +0.000 C 
ATOM     21  C   UNL     1      -8.977  -4.324 127.967  0.00  0.00    +0.000 C 
BRANCH  20  22
ATOM     22  C   UNL     1      -8.146  -2.552 126.376  0.00  0.00    +0.000 C 
BRANCH  22  23
ATOM     23  C   UNL     1      -8.725  -3.535 125.357  0.00  0.00    +0.000 C 
BRANCH  23  24
ATOM     24  C   UNL     1      -9.304  -2.921 124.119  0.00  0.00    +0.000 C 
ATOM     25  O   UNL     1     -10.047  -3.514 123.349  0.00  0.00    +0.000 OA
ATOM     26  N   UNL     1      -8.827  -1.636 123.893  0.00  0.00    +0.000 N 
ATOM     27  H   UNL     1      -8.089  -1.255 124.478  0.00  0.00    +0.000 HD
BRANCH  26  28
ATOM     28  C   UNL     1      -9.279  -0.937 122.714  0.00  0.00    +0.000 C 
BRANCH  28  29
ATOM     29  C   UNL     1      -9.603   0.521 122.945  0.00  0.00    +0.000 C 
BRANCH  29  30
ATOM     30  S   UNL     1      -9.390   0.958 124.665  0.00  0.00    +0.000 S 
ATOM     31  O   UNL     1     -10.467   0.372 125.444  0.00  0.00    +0.000 OA
ATOM     32  O   UNL     1      -8.008   0.792 125.020  0.00  0.00    +0.000 OA
BRANCH  30  33
ATOM     33  O   UNL     1      -9.702   2.541 124.546  0.00  0.00    +0.000 OA
ATOM     34  H   UNL     1     -10.570   2.761 124.946  0.00  0.00    +0.000 HD
ENDBRANCH  30  33
ENDBRANCH  29  30
ENDBRANCH  28  29
ENDBRANCH  26  28
ENDBRANCH  23  24
ENDBRANCH  22  23
ENDBRANCH  20  22
ENDBRANCH   4  20
BRANCH  11  35
ATOM     35  O   UNL     1      -8.222   2.031 130.833  0.00  0.00    +0.000 OA
ATOM     36  H   UNL     1      -9.157   1.808 130.702  0.00  0.00    +0.000 HD
ENDBRANCH  11  35
BRANCH  15  37
ATOM     37  O   UNL     1      -7.799   4.835 124.805  0.00  0.00    +0.000 OA
ATOM     38  H   UNL     1      -8.558   4.261 125.010  0.00  0.00    +0.000 HD
ENDBRANCH  15  37
TORSDOF 10
ENDMDL
MODEL 5
REMARK VINA RESULT:      -7.5      1.897      2.056
REMARK  Name = Tauroursodeoxycholic acid
REMARK  13 active torsions:
REMARK  status: ('A' for Active; 'I' for Inactive)
REMARK    1  A    between atoms: C_5  and  C_6
REMARK    2  A    between atoms: C_6  and  C_7
REMARK    3  A    between atoms: C_6  and  C_8
REMARK    4  A    between atoms: C_8  and  C_9
REMARK    5  A    between atoms: C_9  and  C_10
REMARK    6  A    between atoms: N_12  and  C_13
REMARK    7  A    between atoms: C_13  and  C_14
REMARK    8  A    between atoms: C_14  and  S_15
REMARK    9  A    between atoms: S_15  and  O_16
REMARK   10  A    between atoms: C_19  and  C_20
REMARK   11  A    between atoms: C_27  and  O_28
REMARK   12  A    between atoms: C_33  and  O_34
REMARK   13  A    between atoms: C_37  and  C_38
REMARK                            x       y       z     vdW  Elec       q    Type
REMARK                         _______ _______ _______ _____ _____    ______ ____
ROOT
ATOM      1  C   UNL     1      -7.677  -2.064 125.579  0.00  0.00    +0.000 C 
ATOM      2  C   UNL     1      -8.396  -3.023 124.618  0.00  0.00    +0.000 C 
ATOM      3  C   UNL     1      -8.220  -2.382 123.192  0.00  0.00    +0.000 C 
ATOM      4  C   UNL     1      -7.461  -1.051 123.422  0.00  0.00    +0.000 C 
ATOM      5  C   UNL     1      -6.619  -1.421 124.678  0.00  0.00    +0.000 C 
ATOM      6  C   UNL     1      -5.523  -2.443 124.273  0.00  0.00    +0.000 C 
ATOM      7  C   UNL     1      -5.952  -0.281 125.423  0.00  0.00    +0.000 C 
ATOM      8  C   UNL     1      -5.313  -0.692 126.721  0.00  0.00    +0.000 C 
ATOM      9  C   UNL     1      -6.347  -1.379 127.635  0.00  0.00    +0.000 C 
ATOM     10  C   UNL     1      -7.151  -2.537 126.938  0.00  0.00    +0.000 C 
ATOM     11  C   UNL     1      -8.291  -2.951 127.896  0.00  0.00    +0.000 C 
ATOM     12  C   UNL     1      -7.719  -3.428 129.232  0.00  0.00    +0.000 C 
ATOM     13  C   UNL     1      -6.818  -2.390 129.924  0.00  0.00    +0.000 C 
ATOM     14  C   UNL     1      -7.689  -1.279 130.546  0.00  0.00    +0.000 C 
ATOM     15  C   UNL     1      -6.857  -0.204 131.235  0.00  0.00    +0.000 C 
ATOM     16  C   UNL     1      -5.869   0.412 130.255  0.00  0.00    +0.000 C 
ATOM     17  C   UNL     1      -4.956  -0.672 129.689  0.00  0.00    +0.000 C 
ATOM     18  C   UNL     1      -5.710  -1.836 128.978  0.00  0.00    +0.000 C 
ATOM     19  C   UNL     1      -4.668  -2.943 128.689  0.00  0.00    +0.000 C 
ENDROOT
BRANCH   4  20
ATOM     20  C   UNL     1      -8.424   0.214 123.474  0.00  0.00    +0.000 C 
ATOM     21  C   UNL     1      -9.768  -0.011 122.747  0.00  0.00    +0.000 C 
BRANCH  20  22
ATOM     22  C   UNL     1      -7.843   1.593 123.040  0.00  0.00    +0.000 C 
BRANCH  22  23
ATOM     23  C   UNL     1      -7.711   2.643 124.144  0.00  0.00    +0.000 C 
BRANCH  23  24
ATOM     24  C   UNL     1      -6.440   3.436 124.138  0.00  0.00    +0.000 C 
ATOM     25  O   UNL     1      -6.012   4.029 123.156  0.00  0.00    +0.000 OA
ATOM     26  N   UNL     1      -5.753   3.344 125.342  0.00  0.00    +0.000 N 
ATOM     27  H   UNL     1      -6.075   2.707 126.065  0.00  0.00    +0.000 HD
BRANCH  26  28
ATOM     28  C   UNL     1      -4.491   4.035 125.464  0.00  0.00    +0.000 C 
BRANCH  28  29
ATOM     29  C   UNL     1      -3.702   3.667 126.699  0.00  0.00    +0.000 C 
BRANCH  29  30
ATOM     30  S   UNL     1      -3.730   4.995 127.894  0.00  0.00    +0.000 S 
ATOM     31  O   UNL     1      -4.474   6.116 127.346  0.00  0.00    +0.000 OA
ATOM     32  O   UNL     1      -4.012   4.447 129.192  0.00  0.00    +0.000 OA
BRANCH  30  33
ATOM     33  O   UNL     1      -2.164   5.396 127.837  0.00  0.00    +0.000 OA
ATOM     34  H   UNL     1      -1.745   5.067 127.014  0.00  0.00    +0.000 HD
ENDBRANCH  30  33
ENDBRANCH  29  30
ENDBRANCH  28  29
ENDBRANCH  26  28
ENDBRANCH  23  24
ENDBRANCH  22  23
ENDBRANCH  20  22
ENDBRANCH   4  20
BRANCH  11  35
ATOM     35  O   UNL     1      -9.096  -3.987 127.346  0.00  0.00    +0.000 OA
ATOM     36  H   UNL     1      -9.946  -3.598 127.086  0.00  0.00    +0.000 HD
ENDBRANCH  11  35
BRANCH  15  37
ATOM     37  O   UNL     1      -7.713   0.801 131.766  0.00  0.00    +0.000 OA
ATOM     38  H   UNL     1      -8.302   1.108 131.055  0.00  0.00    +0.000 HD
ENDBRANCH  15  37
TORSDOF 10
ENDMDL
MODEL 6
REMARK VINA RESULT:      -7.3      4.500      7.761
REMARK  Name = Tauroursodeoxycholic acid
REMARK  13 active torsions:
REMARK  status: ('A' for Active; 'I' for Inactive)
REMARK    1  A    between atoms: C_5  and  C_6
REMARK    2  A    between atoms: C_6  and  C_7
REMARK    3  A    between atoms: C_6  and  C_8
REMARK    4  A    between atoms: C_8  and  C_9
REMARK    5  A    between atoms: C_9  and  C_10
REMARK    6  A    between atoms: N_12  and  C_13
REMARK    7  A    between atoms: C_13  and  C_14
REMARK    8  A    between atoms: C_14  and  S_15
REMARK    9  A    between atoms: S_15  and  O_16
REMARK   10  A    between atoms: C_19  and  C_20
REMARK   11  A    between atoms: C_27  and  O_28
REMARK   12  A    between atoms: C_33  and  O_34
REMARK   13  A    between atoms: C_37  and  C_38
REMARK                            x       y       z     vdW  Elec       q    Type
REMARK                         _______ _______ _______ _____ _____    ______ ____
ROOT
ATOM      1  C   UNL     1      -5.993   3.537 132.432  0.00  0.00    +0.000 C 
ATOM      2  C   UNL     1      -5.110   4.520 133.215  0.00  0.00    +0.000 C 
ATOM      3  C   UNL     1      -6.014   5.788 133.447  0.00  0.00    +0.000 C 
ATOM      4  C   UNL     1      -7.351   5.486 132.725  0.00  0.00    +0.000 C 
ATOM      5  C   UNL     1      -7.405   3.936 132.870  0.00  0.00    +0.000 C 
ATOM      6  C   UNL     1      -7.660   3.573 134.358  0.00  0.00    +0.000 C 
ATOM      7  C   UNL     1      -8.421   3.198 132.020  0.00  0.00    +0.000 C 
ATOM      8  C   UNL     1      -8.290   1.701 132.076  0.00  0.00    +0.000 C 
ATOM      9  C   UNL     1      -6.864   1.271 131.677  0.00  0.00    +0.000 C 
ATOM     10  C   UNL     1      -5.725   2.029 132.452  0.00  0.00    +0.000 C 
ATOM     11  C   UNL     1      -4.383   1.664 131.777  0.00  0.00    +0.000 C 
ATOM     12  C   UNL     1      -4.152   0.153 131.832  0.00  0.00    +0.000 C 
ATOM     13  C   UNL     1      -5.287  -0.670 131.198  0.00  0.00    +0.000 C 
ATOM     14  C   UNL     1      -5.196  -0.582 129.661  0.00  0.00    +0.000 C 
ATOM     15  C   UNL     1      -6.305  -1.363 128.966  0.00  0.00    +0.000 C 
ATOM     16  C   UNL     1      -7.670  -0.867 129.424  0.00  0.00    +0.000 C 
ATOM     17  C   UNL     1      -7.795  -1.018 130.938  0.00  0.00    +0.000 C 
ATOM     18  C   UNL     1      -6.691  -0.273 131.748  0.00  0.00    +0.000 C 
ATOM     19  C   UNL     1      -6.823  -0.727 133.221  0.00  0.00    +0.000 C 
ENDROOT
BRANCH   4  20
ATOM     20  C   UNL     1      -7.438   6.136 131.277  0.00  0.00    +0.000 C 
ATOM     21  C   UNL     1      -6.263   7.089 130.964  0.00  0.00    +0.000 C 
BRANCH  20  22
ATOM     22  C   UNL     1      -8.771   6.832 130.867  0.00  0.00    +0.000 C 
BRANCH  22  23
ATOM     23  C   UNL     1      -9.997   6.489 131.715  0.00  0.00    +0.000 C 
BRANCH  23  24
ATOM     24  C   UNL     1     -11.324   6.713 131.058  0.00  0.00    +0.000 C 
ATOM     25  O   UNL     1     -12.357   6.153 131.403  0.00  0.00    +0.000 OA
ATOM     26  N   UNL     1     -11.234   7.552 129.955  0.00  0.00    +0.000 N 
ATOM     27  H   UNL     1     -10.325   7.857 129.619  0.00  0.00    +0.000 HD
BRANCH  26  28
ATOM     28  C   UNL     1     -12.437   7.829 129.206  0.00  0.00    +0.000 C 
BRANCH  28  29
ATOM     29  C   UNL     1     -12.462   7.213 127.826  0.00  0.00    +0.000 C 
BRANCH  29  30
ATOM     30  S   UNL     1     -10.908   7.471 126.982  0.00  0.00    +0.000 S 
ATOM     31  O   UNL     1      -9.928   6.522 127.484  0.00  0.00    +0.000 OA
ATOM     32  O   UNL     1     -11.163   7.641 125.579  0.00  0.00    +0.000 OA
BRANCH  30  33
ATOM     33  O   UNL     1     -10.534   8.912 127.613  0.00  0.00    +0.000 OA
ATOM     34  H   UNL     1      -9.757   8.846 128.210  0.00  0.00    +0.000 HD
ENDBRANCH  30  33
ENDBRANCH  29  30
ENDBRANCH  28  29
ENDBRANCH  26  28
ENDBRANCH  23  24
ENDBRANCH  22  23
ENDBRANCH  20  22
ENDBRANCH   4  20
BRANCH  11  35
ATOM     35  O   UNL     1      -3.282   2.320 132.394  0.00  0.00    +0.000 OA
ATOM     36  H   UNL     1      -3.519   3.253 132.512  0.00  0.00    +0.000 HD
ENDBRANCH  11  35
BRANCH  15  37
ATOM     37  O   UNL     1      -6.182  -1.224 127.555  0.00  0.00    +0.000 OA
ATOM     38  H   UNL     1      -6.123  -2.112 127.163  0.00  0.00    +0.000 HD
ENDBRANCH  15  37
TORSDOF 10
ENDMDL
MODEL 7
REMARK VINA RESULT:      -7.3      3.529      6.224
REMARK  Name = Tauroursodeoxycholic acid
REMARK  13 active torsions:
REMARK  status: ('A' for Active; 'I' for Inactive)
REMARK    1  A    between atoms: C_5  and  C_6
REMARK    2  A    between atoms: C_6  and  C_7
REMARK    3  A    between atoms: C_6  and  C_8
REMARK    4  A    between atoms: C_8  and  C_9
REMARK    5  A    between atoms: C_9  and  C_10
REMARK    6  A    between atoms: N_12  and  C_13
REMARK    7  A    between atoms: C_13  and  C_14
REMARK    8  A    between atoms: C_14  and  S_15
REMARK    9  A    between atoms: S_15  and  O_16
REMARK   10  A    between atoms: C_19  and  C_20
REMARK   11  A    between atoms: C_27  and  O_28
REMARK   12  A    between atoms: C_33  and  O_34
REMARK   13  A    between atoms: C_37  and  C_38
REMARK                            x       y       z     vdW  Elec       q    Type
REMARK                         _______ _______ _______ _____ _____    ______ ____
ROOT
ATOM      1  C   UNL     1      -6.504   1.171 129.269  0.00  0.00    +0.000 C 
ATOM      2  C   UNL     1      -5.474   2.307 129.356  0.00  0.00    +0.000 C 
ATOM      3  C   UNL     1      -6.001   3.253 130.498  0.00  0.00    +0.000 C 
ATOM      4  C   UNL     1      -7.345   2.638 130.963  0.00  0.00    +0.000 C 
ATOM      5  C   UNL     1      -7.073   1.129 130.690  0.00  0.00    +0.000 C 
ATOM      6  C   UNL     1      -6.020   0.609 131.706  0.00  0.00    +0.000 C 
ATOM      7  C   UNL     1      -8.266   0.194 130.724  0.00  0.00    +0.000 C 
ATOM      8  C   UNL     1      -7.957  -1.207 130.272  0.00  0.00    +0.000 C 
ATOM      9  C   UNL     1      -7.345  -1.192 128.857  0.00  0.00    +0.000 C 
ATOM     10  C   UNL     1      -6.137  -0.199 128.691  0.00  0.00    +0.000 C 
ATOM     11  C   UNL     1      -5.801  -0.128 127.184  0.00  0.00    +0.000 C 
ATOM     12  C   UNL     1      -5.429  -1.514 126.654  0.00  0.00    +0.000 C 
ATOM     13  C   UNL     1      -6.517  -2.577 126.888  0.00  0.00    +0.000 C 
ATOM     14  C   UNL     1      -7.674  -2.365 125.892  0.00  0.00    +0.000 C 
ATOM     15  C   UNL     1      -8.799  -3.376 126.079  0.00  0.00    +0.000 C 
ATOM     16  C   UNL     1      -9.335  -3.315 127.503  0.00  0.00    +0.000 C 
ATOM     17  C   UNL     1      -8.209  -3.595 128.494  0.00  0.00    +0.000 C 
ATOM     18  C   UNL     1      -6.994  -2.627 128.372  0.00  0.00    +0.000 C 
ATOM     19  C   UNL     1      -5.865  -3.198 129.265  0.00  0.00    +0.000 C 
ENDROOT
BRANCH   4  20
ATOM     20  C   UNL     1      -8.611   3.333 130.300  0.00  0.00    +0.000 C 
ATOM     21  C   UNL     1      -8.261   4.180 129.056  0.00  0.00    +0.000 C 
BRANCH  20  22
ATOM     22  C   UNL     1      -9.557   4.161 131.220  0.00  0.00    +0.000 C 
BRANCH  22  23
ATOM     23  C   UNL     1     -10.978   4.380 130.701  0.00  0.00    +0.000 C 
BRANCH  23  24
ATOM     24  C   UNL     1     -11.289   5.765 130.222  0.00  0.00    +0.000 C 
ATOM     25  O   UNL     1     -10.750   6.773 130.659  0.00  0.00    +0.000 OA
ATOM     26  N   UNL     1     -12.324   5.785 129.295  0.00  0.00    +0.000 N 
ATOM     27  H   UNL     1     -12.842   4.935 129.091  0.00  0.00    +0.000 HD
BRANCH  26  28
ATOM     28  C   UNL     1     -12.749   7.062 128.773  0.00  0.00    +0.000 C 
BRANCH  28  29
ATOM     29  C   UNL     1     -12.555   7.215 127.282  0.00  0.00    +0.000 C 
BRANCH  29  30
ATOM     30  S   UNL     1     -10.907   7.798 126.909  0.00  0.00    +0.000 S 
ATOM     31  O   UNL     1     -10.822   8.116 125.494  0.00  0.00    +0.000 OA
ATOM     32  O   UNL     1     -10.497   8.722 127.929  0.00  0.00    +0.000 OA
BRANCH  30  33
ATOM     33  O   UNL     1     -10.110   6.407 127.127  0.00  0.00    +0.000 OA
ATOM     34  H   UNL     1      -9.626   6.146 126.315  0.00  0.00    +0.000 HD
ENDBRANCH  30  33
ENDBRANCH  29  30
ENDBRANCH  28  29
ENDBRANCH  26  28
ENDBRANCH  23  24
ENDBRANCH  22  23
ENDBRANCH  20  22
ENDBRANCH   4  20
BRANCH  11  35
ATOM     35  O   UNL     1      -4.727   0.766 126.922  0.00  0.00    +0.000 OA
ATOM     36  H   UNL     1      -4.610   0.818 125.960  0.00  0.00    +0.000 HD
ENDBRANCH  11  35
BRANCH  15  37
ATOM     37  O   UNL     1      -9.843  -3.114 125.150  0.00  0.00    +0.000 OA
ATOM     38  H   UNL     1      -9.603  -2.326 124.632  0.00  0.00    +0.000 HD
ENDBRANCH  15  37
TORSDOF 10
ENDMDL
MODEL 8
REMARK VINA RESULT:      -7.2      3.594      7.082
REMARK  Name = Tauroursodeoxycholic acid
REMARK  13 active torsions:
REMARK  status: ('A' for Active; 'I' for Inactive)
REMARK    1  A    between atoms: C_5  and  C_6
REMARK    2  A    between atoms: C_6  and  C_7
REMARK    3  A    between atoms: C_6  and  C_8
REMARK    4  A    between atoms: C_8  and  C_9
REMARK    5  A    between atoms: C_9  and  C_10
REMARK    6  A    between atoms: N_12  and  C_13
REMARK    7  A    between atoms: C_13  and  C_14
REMARK    8  A    between atoms: C_14  and  S_15
REMARK    9  A    between atoms: S_15  and  O_16
REMARK   10  A    between atoms: C_19  and  C_20
REMARK   11  A    between atoms: C_27  and  O_28
REMARK   12  A    between atoms: C_33  and  O_34
REMARK   13  A    between atoms: C_37  and  C_38
REMARK                            x       y       z     vdW  Elec       q    Type
REMARK                         _______ _______ _______ _____ _____    ______ ____
ROOT
ATOM      1  C   UNL     1      -6.428   1.730 130.249  0.00  0.00    +0.000 C 
ATOM      2  C   UNL     1      -5.585   1.069 131.349  0.00  0.00    +0.000 C 
ATOM      3  C   UNL     1      -6.526   1.015 132.609  0.00  0.00    +0.000 C 
ATOM      4  C   UNL     1      -7.842   1.710 132.179  0.00  0.00    +0.000 C 
ATOM      5  C   UNL     1      -7.858   1.367 130.660  0.00  0.00    +0.000 C 
ATOM      6  C   UNL     1      -8.128  -0.151 130.484  0.00  0.00    +0.000 C 
ATOM      7  C   UNL     1      -8.838   2.128 129.790  0.00  0.00    +0.000 C 
ATOM      8  C   UNL     1      -8.668   1.878 128.317  0.00  0.00    +0.000 C 
ATOM      9  C   UNL     1      -7.224   2.197 127.880  0.00  0.00    +0.000 C 
ATOM     10  C   UNL     1      -6.120   1.512 128.764  0.00  0.00    +0.000 C 
ATOM     11  C   UNL     1      -4.758   2.115 128.353  0.00  0.00    +0.000 C 
ATOM     12  C   UNL     1      -4.487   1.862 126.869  0.00  0.00    +0.000 C 
ATOM     13  C   UNL     1      -5.589   2.400 125.939  0.00  0.00    +0.000 C 
ATOM     14  C   UNL     1      -5.473   3.934 125.831  0.00  0.00    +0.000 C 
ATOM     15  C   UNL     1      -6.549   4.538 124.936  0.00  0.00    +0.000 C 
ATOM     16  C   UNL     1      -7.934   4.167 125.447  0.00  0.00    +0.000 C 
ATOM     17  C   UNL     1      -8.081   2.648 125.489  0.00  0.00    +0.000 C 
ATOM     18  C   UNL     1      -7.012   1.926 126.364  0.00  0.00    +0.000 C 
ATOM     19  C   UNL     1      -7.158   0.408 126.099  0.00  0.00    +0.000 C 
ENDROOT
BRANCH   4  20
ATOM     20  C   UNL     1      -7.921   3.231 132.635  0.00  0.00    +0.000 C 
ATOM     21  C   UNL     1      -9.170   3.550 133.486  0.00  0.00    +0.000 C 
BRANCH  20  22
ATOM     22  C   UNL     1      -7.763   4.331 131.543  0.00  0.00    +0.000 C 
BRANCH  22  23
ATOM     23  C   UNL     1      -7.957   5.774 132.010  0.00  0.00    +0.000 C 
BRANCH  23  24
ATOM     24  C   UNL     1      -8.738   6.656 131.085  0.00  0.00    +0.000 C 
ATOM     25  O   UNL     1      -8.229   7.487 130.344  0.00  0.00    +0.000 OA
ATOM     26  N   UNL     1     -10.110   6.495 131.232  0.00  0.00    +0.000 N 
ATOM     27  H   UNL     1     -10.478   5.908 131.976  0.00  0.00    +0.000 HD
BRANCH  26  28
ATOM     28  C   UNL     1     -10.986   7.308 130.423  0.00  0.00    +0.000 C 
BRANCH  28  29
ATOM     29  C   UNL     1     -11.522   6.608 129.196  0.00  0.00    +0.000 C 
BRANCH  29  30
ATOM     30  S   UNL     1     -10.719   7.208 127.716  0.00  0.00    +0.000 S 
ATOM     31  O   UNL     1      -9.604   6.336 127.390  0.00  0.00    +0.000 OA
ATOM     32  O   UNL     1     -11.725   7.561 126.752  0.00  0.00    +0.000 OA
BRANCH  30  33
ATOM     33  O   UNL     1     -10.092   8.569 128.323  0.00  0.00    +0.000 OA
ATOM     34  H   UNL     1     -10.069   8.541 129.304  0.00  0.00    +0.000 HD
ENDBRANCH  30  33
ENDBRANCH  29  30
ENDBRANCH  28  29
ENDBRANCH  26  28
ENDBRANCH  23  24
ENDBRANCH  22  23
ENDBRANCH  20  22
ENDBRANCH   4  20
BRANCH  11  35
ATOM     35  O   UNL     1      -3.685   1.572 129.114  0.00  0.00    +0.000 OA
ATOM     36  H   UNL     1      -3.902   1.680 130.053  0.00  0.00    +0.000 HD
ENDBRANCH  11  35
BRANCH  15  37
ATOM     37  O   UNL     1      -6.404   5.952 124.896  0.00  0.00    +0.000 OA
ATOM     38  H   UNL     1      -5.837   6.224 125.638  0.00  0.00    +0.000 HD
ENDBRANCH  15  37
TORSDOF 10
ENDMDL
MODEL 9
REMARK VINA RESULT:      -7.0      4.424      6.462
REMARK  Name = Tauroursodeoxycholic acid
REMARK  13 active torsions:
REMARK  status: ('A' for Active; 'I' for Inactive)
REMARK    1  A    between atoms: C_5  and  C_6
REMARK    2  A    between atoms: C_6  and  C_7
REMARK    3  A    between atoms: C_6  and  C_8
REMARK    4  A    between atoms: C_8  and  C_9
REMARK    5  A    between atoms: C_9  and  C_10
REMARK    6  A    between atoms: N_12  and  C_13
REMARK    7  A    between atoms: C_13  and  C_14
REMARK    8  A    between atoms: C_14  and  S_15
REMARK    9  A    between atoms: S_15  and  O_16
REMARK   10  A    between atoms: C_19  and  C_20
REMARK   11  A    between atoms: C_27  and  O_28
REMARK   12  A    between atoms: C_33  and  O_34
REMARK   13  A    between atoms: C_37  and  C_38
REMARK                            x       y       z     vdW  Elec       q    Type
REMARK                         _______ _______ _______ _____ _____    ______ ____
ROOT
ATOM      1  C   UNL     1      -7.159   0.435 130.605  0.00  0.00    +0.000 C 
ATOM      2  C   UNL     1      -7.948   1.148 129.496  0.00  0.00    +0.000 C 
ATOM      3  C   UNL     1      -8.259   2.580 130.070  0.00  0.00    +0.000 C 
ATOM      4  C   UNL     1      -7.684   2.588 131.509  0.00  0.00    +0.000 C 
ATOM      5  C   UNL     1      -6.491   1.601 131.341  0.00  0.00    +0.000 C 
ATOM      6  C   UNL     1      -5.397   2.269 130.466  0.00  0.00    +0.000 C 
ATOM      7  C   UNL     1      -5.837   1.085 132.607  0.00  0.00    +0.000 C 
ATOM      8  C   UNL     1      -4.821   0.002 132.371  0.00  0.00    +0.000 C 
ATOM      9  C   UNL     1      -5.455  -1.171 131.596  0.00  0.00    +0.000 C 
ATOM     10  C   UNL     1      -6.224  -0.738 130.295  0.00  0.00    +0.000 C 
ATOM     11  C   UNL     1      -6.990  -1.977 129.776  0.00  0.00    +0.000 C 
ATOM     12  C   UNL     1      -6.017  -3.116 129.468  0.00  0.00    +0.000 C 
ATOM     13  C   UNL     1      -5.138  -3.519 130.665  0.00  0.00    +0.000 C 
ATOM     14  C   UNL     1      -5.975  -4.333 131.673  0.00  0.00    +0.000 C 
ATOM     15  C   UNL     1      -5.169  -4.753 132.896  0.00  0.00    +0.000 C 
ATOM     16  C   UNL     1      -4.585  -3.530 133.590  0.00  0.00    +0.000 C 
ATOM     17  C   UNL     1      -3.697  -2.757 132.619  0.00  0.00    +0.000 C 
ATOM     18  C   UNL     1      -4.421  -2.298 131.318  0.00  0.00    +0.000 C 
ATOM     19  C   UNL     1      -3.333  -1.757 130.358  0.00  0.00    +0.000 C 
ENDROOT
BRANCH   4  20
ATOM     20  C   UNL     1      -8.783   2.299 132.621  0.00  0.00    +0.000 C 
ATOM     21  C   UNL     1     -10.138   1.843 132.036  0.00  0.00    +0.000 C 
BRANCH  20  22
ATOM     22  C   UNL     1      -9.044   3.398 133.694  0.00  0.00    +0.000 C 
BRANCH  22  23
ATOM     23  C   UNL     1      -8.367   4.748 133.452  0.00  0.00    +0.000 C 
BRANCH  23  24
ATOM     24  C   UNL     1      -9.118   5.703 132.576  0.00  0.00    +0.000 C 
ATOM     25  O   UNL     1      -8.589   6.608 131.944  0.00  0.00    +0.000 OA
ATOM     26  N   UNL     1     -10.492   5.508 132.636  0.00  0.00    +0.000 N 
ATOM     27  H   UNL     1     -10.885   4.848 133.301  0.00  0.00    +0.000 HD
BRANCH  26  28
ATOM     28  C   UNL     1     -11.342   6.382 131.863  0.00  0.00    +0.000 C 
BRANCH  28  29
ATOM     29  C   UNL     1     -11.681   5.858 130.487  0.00  0.00    +0.000 C 
BRANCH  29  30
ATOM     30  S   UNL     1     -11.305   7.071 129.230  0.00  0.00    +0.000 S 
ATOM     31  O   UNL     1     -11.739   6.570 127.937  0.00  0.00    +0.000 OA
ATOM     32  O   UNL     1     -11.676   8.372 129.713  0.00  0.00    +0.000 OA
BRANCH  30  33
ATOM     33  O   UNL     1      -9.692   6.954 129.264  0.00  0.00    +0.000 OA
ATOM     34  H   UNL     1      -9.292   7.343 128.457  0.00  0.00    +0.000 HD
ENDBRANCH  30  33
ENDBRANCH  29  30
ENDBRANCH  28  29
ENDBRANCH  26  28
ENDBRANCH  23  24
ENDBRANCH  22  23
ENDBRANCH  20  22
ENDBRANCH   4  20
BRANCH  11  35
ATOM     35  O   UNL     1      -7.740  -1.684 128.604  0.00  0.00    +0.000 OA
ATOM     36  H   UNL     1      -7.797  -0.720 128.519  0.00  0.00    +0.000 HD
ENDBRANCH  11  35
BRANCH  15  37
ATOM     37  O   UNL     1      -5.999  -5.477 133.795  0.00  0.00    +0.000 OA
ATOM     38  H   UNL     1      -6.566  -6.074 133.277  0.00  0.00    +0.000 HD
ENDBRANCH  15  37
TORSDOF 10
ENDMDL
