MODEL 1
REMARK VINA RESULT:      -6.0      0.000      0.000
REMARK  Name = Taurolidine
REMARK  2 active torsions:
REMARK  status: ('A' for Active; 'I' for Inactive)
REMARK    1  A    between atoms: N_6  and  C_7
REMARK    2  A    between atoms: C_7  and  N_8
REMARK                            x       y       z     vdW  Elec       q    Type
REMARK                         _______ _______ _______ _____ _____    ______ ____
ROOT
ATOM      1  C   UNL     1      -9.704   6.956 129.788  0.00  0.00    +0.000 C 
ENDROOT
BRANCH   1   7
ATOM      2  O   UNL     1     -13.826   7.890 127.552  0.00  0.00    +0.000 OA
ATOM      3  S   UNL     1     -13.082   8.588 128.567  0.00  0.00    +0.000 S 
ATOM      4  O   UNL     1     -13.393   9.940 128.977  0.00  0.00    +0.000 OA
ATOM      5  C   UNL     1     -12.759   7.533 129.973  0.00  0.00    +0.000 C 
ATOM      6  C   UNL     1     -12.055   6.244 129.544  0.00  0.00    +0.000 C 
ATOM      7  N   UNL     1     -10.764   6.497 128.885  0.00  0.00    +0.000 NA
ATOM      8  C   UNL     1     -11.051   7.373 127.768  0.00  0.00    +0.000 C 
ATOM      9  N   UNL     1     -11.551   8.674 128.007  0.00  0.00    +0.000 NA
ATOM     10  H   UNL     1     -11.451   9.259 127.172  0.00  0.00    +0.000 HD
ENDBRANCH   1   7
BRANCH   1  11
ATOM     11  N   UNL     1      -8.584   6.012 129.938  0.00  0.00    +0.000 NA
ATOM     12  C   UNL     1      -8.213   5.617 131.293  0.00  0.00    +0.000 C 
ATOM     13  C   UNL     1      -9.209   4.685 131.937  0.00  0.00    +0.000 C 
ATOM     14  S   UNL     1      -9.224   3.160 131.034  0.00  0.00    +0.000 S 
ATOM     15  O   UNL     1     -10.527   2.538 131.266  0.00  0.00    +0.000 OA
ATOM     16  O   UNL     1      -7.992   2.452 131.113  0.00  0.00    +0.000 OA
ATOM     17  N   UNL     1      -9.359   3.718 129.494  0.00  0.00    +0.000 NA
ATOM     18  C   UNL     1      -8.547   4.869 129.042  0.00  0.00    +0.000 C 
ATOM     19  H   UNL     1     -10.362   3.821 129.572  0.00  0.00    +0.000 HD
ENDBRANCH   1  11
TORSDOF 2
ENDMDL
MODEL 2
REMARK VINA RESULT:      -6.0      6.902      9.299
REMARK  Name = Taurolidine
REMARK  2 active torsions:
REMARK  status: ('A' for Active; 'I' for Inactive)
REMARK    1  A    between atoms: N_6  and  C_7
REMARK    2  A    between atoms: C_7  and  N_8
REMARK                            x       y       z     vdW  Elec       q    Type
REMARK                         _______ _______ _______ _____ _____    ______ ____
ROOT
ATOM      1  C   UNL     1      -7.123   0.869 124.099  0.00  0.00    +0.000 C 
ENDROOT
BRANCH   1   7
ATOM      2  O   UNL     1      -9.170  -3.431 123.674  0.00  0.00    +0.000 OA
ATOM      3  S   UNL     1      -8.902  -2.581 124.804  0.00  0.00    +0.000 S 
ATOM      4  O   UNL     1      -9.451  -2.828 126.119  0.00  0.00    +0.000 OA
ATOM      5  C   UNL     1      -7.171  -2.144 124.886  0.00  0.00    +0.000 C 
ATOM      6  C   UNL     1      -6.700  -1.507 123.578  0.00  0.00    +0.000 C 
ATOM      7  N   UNL     1      -7.443  -0.280 123.247  0.00  0.00    +0.000 NA
ATOM      8  C   UNL     1      -8.841  -0.657 123.212  0.00  0.00    +0.000 C 
ATOM      9  N   UNL     1      -9.475  -1.109 124.392  0.00  0.00    +0.000 NA
ATOM     10  H   UNL     1     -10.494  -1.080 124.289  0.00  0.00    +0.000 HD
ENDBRANCH   1   7
BRANCH   1  11
ATOM     11  N   UNL     1      -8.290   1.674 124.494  0.00  0.00    +0.000 NA
ATOM     12  C   UNL     1      -8.434   2.003 125.909  0.00  0.00    +0.000 C 
ATOM     13  C   UNL     1      -7.442   3.034 126.387  0.00  0.00    +0.000 C 
ATOM     14  S   UNL     1      -7.770   4.564 125.556  0.00  0.00    +0.000 S 
ATOM     15  O   UNL     1      -6.525   5.330 125.559  0.00  0.00    +0.000 OA
ATOM     16  O   UNL     1      -9.035   5.123 125.894  0.00  0.00    +0.000 OA
ATOM     17  N   UNL     1      -7.875   4.050 123.998  0.00  0.00    +0.000 NA
ATOM     18  C   UNL     1      -8.626   2.819 123.665  0.00  0.00    +0.000 C 
ATOM     19  H   UNL     1      -6.870   4.063 123.880  0.00  0.00    +0.000 HD
ENDBRANCH   1  11
TORSDOF 2
ENDMDL
MODEL 3
REMARK VINA RESULT:      -5.9      1.064      6.014
REMARK  Name = Taurolidine
REMARK  2 active torsions:
REMARK  status: ('A' for Active; 'I' for Inactive)
REMARK    1  A    between atoms: N_6  and  C_7
REMARK    2  A    between atoms: C_7  and  N_8
REMARK                            x       y       z     vdW  Elec       q    Type
REMARK                         _______ _______ _______ _____ _____    ______ ____
ROOT
ATOM      1  C   UNL     1      -9.607   7.183 130.213  0.00  0.00    +0.000 C 
ENDROOT
BRANCH   1   7
ATOM      2  O   UNL     1      -7.107   3.467 131.889  0.00  0.00    +0.000 OA
ATOM      3  S   UNL     1      -8.375   4.041 132.257  0.00  0.00    +0.000 S 
ATOM      4  O   UNL     1      -9.296   3.391 133.162  0.00  0.00    +0.000 OA
ATOM      5  C   UNL     1      -8.214   5.783 132.621  0.00  0.00    +0.000 C 
ATOM      6  C   UNL     1      -7.573   6.534 131.453  0.00  0.00    +0.000 C 
ATOM      7  N   UNL     1      -8.355   6.420 130.212  0.00  0.00    +0.000 NA
ATOM      8  C   UNL     1      -8.491   5.002 129.953  0.00  0.00    +0.000 C 
ATOM      9  N   UNL     1      -9.210   4.190 130.862  0.00  0.00    +0.000 NA
ATOM     10  H   UNL     1      -9.453   3.293 130.431  0.00  0.00    +0.000 HD
ENDBRANCH   1   7
BRANCH   1  11
ATOM     11  N   UNL     1     -10.579   6.754 129.195  0.00  0.00    +0.000 NA
ATOM     12  C   UNL     1     -11.921   6.401 129.649  0.00  0.00    +0.000 C 
ATOM     13  C   UNL     1     -12.743   7.596 130.066  0.00  0.00    +0.000 C 
ATOM     14  S   UNL     1     -13.025   8.614 128.644  0.00  0.00    +0.000 S 
ATOM     15  O   UNL     1     -13.273   9.970 129.129  0.00  0.00    +0.000 OA
ATOM     16  O   UNL     1     -13.824   7.979 127.651  0.00  0.00    +0.000 OA
ATOM     17  N   UNL     1     -11.501   8.721 128.036  0.00  0.00    +0.000 NA
ATOM     18  C   UNL     1     -10.640   7.520 127.962  0.00  0.00    +0.000 C 
ATOM     19  H   UNL     1     -11.253   9.468 128.671  0.00  0.00    +0.000 HD
ENDBRANCH   1  11
TORSDOF 2
ENDMDL
MODEL 4
REMARK VINA RESULT:      -5.9      6.815      8.065
REMARK  Name = Taurolidine
REMARK  2 active torsions:
REMARK  status: ('A' for Active; 'I' for Inactive)
REMARK    1  A    between atoms: N_6  and  C_7
REMARK    2  A    between atoms: C_7  and  N_8
REMARK                            x       y       z     vdW  Elec       q    Type
REMARK                         _______ _______ _______ _____ _____    ______ ____
ROOT
ATOM      1  C   UNL     1      -7.119   0.980 123.949  0.00  0.00    +0.000 C 
ENDROOT
BRANCH   1   7
ATOM      2  O   UNL     1      -9.020   4.922 125.875  0.00  0.00    +0.000 OA
ATOM      3  S   UNL     1      -7.681   4.573 125.479  0.00  0.00    +0.000 S 
ATOM      4  O   UNL     1      -6.609   5.540 125.405  0.00  0.00    +0.000 OA
ATOM      5  C   UNL     1      -7.149   3.060 126.267  0.00  0.00    +0.000 C 
ATOM      6  C   UNL     1      -8.132   1.920 125.994  0.00  0.00    +0.000 C 
ATOM      7  N   UNL     1      -8.281   1.634 124.559  0.00  0.00    +0.000 NA
ATOM      8  C   UNL     1      -8.687   2.880 123.942  0.00  0.00    +0.000 C 
ATOM      9  N   UNL     1      -7.810   3.990 123.961  0.00  0.00    +0.000 NA
ATOM     10  H   UNL     1      -8.103   4.692 123.274  0.00  0.00    +0.000 HD
ENDBRANCH   1   7
BRANCH   1  11
ATOM     11  N   UNL     1      -7.409  -0.327 123.338  0.00  0.00    +0.000 NA
ATOM     12  C   UNL     1      -6.574  -1.456 123.735  0.00  0.00    +0.000 C 
ATOM     13  C   UNL     1      -6.853  -1.943 125.135  0.00  0.00    +0.000 C 
ATOM     14  S   UNL     1      -8.503  -2.587 125.193  0.00  0.00    +0.000 S 
ATOM     15  O   UNL     1      -8.950  -2.497 126.582  0.00  0.00    +0.000 OA
ATOM     16  O   UNL     1      -8.678  -3.748 124.387  0.00  0.00    +0.000 OA
ATOM     17  N   UNL     1      -9.334  -1.369 124.467  0.00  0.00    +0.000 NA
ATOM     18  C   UNL     1      -8.802  -0.727 123.244  0.00  0.00    +0.000 C 
ATOM     19  H   UNL     1      -9.384  -0.833 125.324  0.00  0.00    +0.000 HD
ENDBRANCH   1  11
TORSDOF 2
ENDMDL
MODEL 5
REMARK VINA RESULT:      -5.7      2.223      2.869
REMARK  Name = Taurolidine
REMARK  2 active torsions:
REMARK  status: ('A' for Active; 'I' for Inactive)
REMARK    1  A    between atoms: N_6  and  C_7
REMARK    2  A    between atoms: C_7  and  N_8
REMARK                            x       y       z     vdW  Elec       q    Type
REMARK                         _______ _______ _______ _____ _____    ______ ____
ROOT
ATOM      1  C   UNL     1      -9.376   4.416 129.813  0.00  0.00    +0.000 C 
ENDROOT
BRANCH   1   7
ATOM      2  O   UNL     1     -12.444   8.046 130.330  0.00  0.00    +0.000 OA
ATOM      3  S   UNL     1     -11.501   7.700 129.300  0.00  0.00    +0.000 S 
ATOM      4  O   UNL     1     -11.468   8.359 128.013  0.00  0.00    +0.000 OA
ATOM      5  C   UNL     1      -9.859   7.488 129.972  0.00  0.00    +0.000 C 
ATOM      6  C   UNL     1      -9.855   6.463 131.107  0.00  0.00    +0.000 C 
ATOM      7  N   UNL     1     -10.321   5.137 130.672  0.00  0.00    +0.000 NA
ATOM      8  C   UNL     1     -11.640   5.340 130.110  0.00  0.00    +0.000 C 
ATOM      9  N   UNL     1     -11.792   6.133 128.948  0.00  0.00    +0.000 NA
ATOM     10  H   UNL     1     -12.708   5.971 128.518  0.00  0.00    +0.000 HD
ENDBRANCH   1   7
BRANCH   1  11
ATOM     11  N   UNL     1      -8.887   3.148 130.380  0.00  0.00    +0.000 NA
ATOM     12  C   UNL     1      -7.504   3.105 130.843  0.00  0.00    +0.000 C 
ATOM     13  C   UNL     1      -7.279   3.873 132.122  0.00  0.00    +0.000 C 
ATOM     14  S   UNL     1      -8.192   3.087 133.422  0.00  0.00    +0.000 S 
ATOM     15  O   UNL     1      -8.447   4.103 134.442  0.00  0.00    +0.000 OA
ATOM     16  O   UNL     1      -7.722   1.777 133.722  0.00  0.00    +0.000 OA
ATOM     17  N   UNL     1      -9.661   2.917 132.705  0.00  0.00    +0.000 NA
ATOM     18  C   UNL     1      -9.760   2.448 131.306  0.00  0.00    +0.000 C 
ATOM     19  H   UNL     1      -9.929   3.867 132.929  0.00  0.00    +0.000 HD
ENDBRANCH   1  11
TORSDOF 2
ENDMDL
MODEL 6
REMARK VINA RESULT:      -5.4      2.512      6.076
REMARK  Name = Taurolidine
REMARK  2 active torsions:
REMARK  status: ('A' for Active; 'I' for Inactive)
REMARK    1  A    between atoms: N_6  and  C_7
REMARK    2  A    between atoms: C_7  and  N_8
REMARK                            x       y       z     vdW  Elec       q    Type
REMARK                         _______ _______ _______ _____ _____    ______ ____
ROOT
ATOM      1  C   UNL     1      -9.616   5.821 129.795  0.00  0.00    +0.000 C 
ENDROOT
BRANCH   1   7
ATOM      2  O   UNL     1      -5.343   5.728 131.939  0.00  0.00    +0.000 OA
ATOM      3  S   UNL     1      -5.775   6.159 130.636  0.00  0.00    +0.000 S 
ATOM      4  O   UNL     1      -4.926   6.905 129.735  0.00  0.00    +0.000 OA
ATOM      5  C   UNL     1      -6.654   4.857 129.784  0.00  0.00    +0.000 C 
ATOM      6  C   UNL     1      -7.824   4.339 130.624  0.00  0.00    +0.000 C 
ATOM      7  N   UNL     1      -8.803   5.391 130.937  0.00  0.00    +0.000 NA
ATOM      8  C   UNL     1      -8.062   6.443 131.603  0.00  0.00    +0.000 C 
ATOM      9  N   UNL     1      -7.052   7.141 130.900  0.00  0.00    +0.000 NA
ATOM     10  H   UNL     1      -6.809   8.010 131.387  0.00  0.00    +0.000 HD
ENDBRANCH   1   7
BRANCH   1  11
ATOM     11  N   UNL     1     -10.281   7.121 129.979  0.00  0.00    +0.000 NA
ATOM     12  C   UNL     1     -10.129   8.112 128.919  0.00  0.00    +0.000 C 
ATOM     13  C   UNL     1     -10.915   7.780 127.674  0.00  0.00    +0.000 C 
ATOM     14  S   UNL     1     -12.643   7.830 128.065  0.00  0.00    +0.000 S 
ATOM     15  O   UNL     1     -13.326   6.975 127.096  0.00  0.00    +0.000 OA
ATOM     16  O   UNL     1     -13.098   9.132 128.419  0.00  0.00    +0.000 OA
ATOM     17  N   UNL     1     -12.674   6.922 129.435  0.00  0.00    +0.000 NA
ATOM     18  C   UNL     1     -11.644   7.111 130.480  0.00  0.00    +0.000 C 
ATOM     19  H   UNL     1     -12.694   6.056 128.912  0.00  0.00    +0.000 HD
ENDBRANCH   1  11
TORSDOF 2
ENDMDL
MODEL 7
REMARK VINA RESULT:      -5.4      1.764      2.704
REMARK  Name = Taurolidine
REMARK  2 active torsions:
REMARK  status: ('A' for Active; 'I' for Inactive)
REMARK    1  A    between atoms: N_6  and  C_7
REMARK    2  A    between atoms: C_7  and  N_8
REMARK                            x       y       z     vdW  Elec       q    Type
REMARK                         _______ _______ _______ _____ _____    ______ ____
ROOT
ATOM      1  C   UNL     1      -9.780   5.738 130.175  0.00  0.00    +0.000 C 
ENDROOT
BRANCH   1   7
ATOM      2  O   UNL     1     -13.079   8.494 128.081  0.00  0.00    +0.000 OA
ATOM      3  S   UNL     1     -12.346   7.337 127.640  0.00  0.00    +0.000 S 
ATOM      4  O   UNL     1     -12.671   6.618 126.428  0.00  0.00    +0.000 OA
ATOM      5  C   UNL     1     -10.584   7.589 127.802  0.00  0.00    +0.000 C 
ATOM      6  C   UNL     1     -10.212   7.979 129.234  0.00  0.00    +0.000 C 
ATOM      7  N   UNL     1     -10.597   6.955 130.217  0.00  0.00    +0.000 NA
ATOM      8  C   UNL     1     -12.021   6.753 130.047  0.00  0.00    +0.000 C 
ATOM      9  N   UNL     1     -12.515   6.231 128.829  0.00  0.00    +0.000 NA
ATOM     10  H   UNL     1     -13.476   5.894 128.943  0.00  0.00    +0.000 HD
ENDBRANCH   1   7
BRANCH   1  11
ATOM     11  N   UNL     1     -10.156   4.720 131.169  0.00  0.00    +0.000 NA
ATOM     12  C   UNL     1     -10.203   3.330 130.727  0.00  0.00    +0.000 C 
ATOM     13  C   UNL     1      -8.838   2.732 130.492  0.00  0.00    +0.000 C 
ATOM     14  S   UNL     1      -7.977   2.661 132.039  0.00  0.00    +0.000 S 
ATOM     15  O   UNL     1      -6.547   2.656 131.734  0.00  0.00    +0.000 OA
ATOM     16  O   UNL     1      -8.582   1.776 132.975  0.00  0.00    +0.000 OA
ATOM     17  N   UNL     1      -8.222   4.189 132.596  0.00  0.00    +0.000 NA
ATOM     18  C   UNL     1      -9.556   4.818 132.488  0.00  0.00    +0.000 C 
ATOM     19  H   UNL     1      -7.455   4.558 132.049  0.00  0.00    +0.000 HD
ENDBRANCH   1  11
TORSDOF 2
ENDMDL
MODEL 8
REMARK VINA RESULT:      -5.4      6.835      9.147
REMARK  Name = Taurolidine
REMARK  2 active torsions:
REMARK  status: ('A' for Active; 'I' for Inactive)
REMARK    1  A    between atoms: N_6  and  C_7
REMARK    2  A    between atoms: C_7  and  N_8
REMARK                            x       y       z     vdW  Elec       q    Type
REMARK                         _______ _______ _______ _____ _____    ______ ____
ROOT
ATOM      1  C   UNL     1      -8.183   1.287 125.797  0.00  0.00    +0.000 C 
ENDROOT
BRANCH   1   7
ATOM      2  O   UNL     1      -8.197  -1.970 122.297  0.00  0.00    +0.000 OA
ATOM      3  S   UNL     1      -8.059  -2.069 123.726  0.00  0.00    +0.000 S 
ATOM      4  O   UNL     1      -8.109  -3.329 124.433  0.00  0.00    +0.000 OA
ATOM      5  C   UNL     1      -6.727  -1.035 124.318  0.00  0.00    +0.000 C 
ATOM      6  C   UNL     1      -6.912   0.416 123.868  0.00  0.00    +0.000 C 
ATOM      7  N   UNL     1      -8.169   1.003 124.359  0.00  0.00    +0.000 NA
ATOM      8  C   UNL     1      -9.228   0.134 123.887  0.00  0.00    +0.000 C 
ATOM      9  N   UNL     1      -9.295  -1.202 124.347  0.00  0.00    +0.000 NA
ATOM     10  H   UNL     1     -10.217  -1.605 124.153  0.00  0.00    +0.000 HD
ENDBRANCH   1   7
BRANCH   1  11
ATOM     11  N   UNL     1      -8.147   2.720 126.132  0.00  0.00    +0.000 NA
ATOM     12  C   UNL     1      -6.929   3.237 126.748  0.00  0.00    +0.000 C 
ATOM     13  C   UNL     1      -5.770   3.336 125.788  0.00  0.00    +0.000 C 
ATOM     14  S   UNL     1      -6.165   4.535 124.544  0.00  0.00    +0.000 S 
ATOM     15  O   UNL     1      -5.367   4.208 123.364  0.00  0.00    +0.000 OA
ATOM     16  O   UNL     1      -6.294   5.855 125.061  0.00  0.00    +0.000 OA
ATOM     17  N   UNL     1      -7.672   4.041 124.110  0.00  0.00    +0.000 NA
ATOM     18  C   UNL     1      -8.658   3.652 125.142  0.00  0.00    +0.000 C 
ATOM     19  H   UNL     1      -7.307   3.335 123.484  0.00  0.00    +0.000 HD
ENDBRANCH   1  11
TORSDOF 2
ENDMDL
MODEL 9
REMARK VINA RESULT:      -5.3      7.024      8.611
REMARK  Name = Taurolidine
REMARK  2 active torsions:
REMARK  status: ('A' for Active; 'I' for Inactive)
REMARK    1  A    between atoms: N_6  and  C_7
REMARK    2  A    between atoms: C_7  and  N_8
REMARK                            x       y       z     vdW  Elec       q    Type
REMARK                         _______ _______ _______ _____ _____    ______ ____
ROOT
ATOM      1  C   UNL     1      -9.228   0.475 124.365  0.00  0.00    +0.000 C 
ENDROOT
BRANCH   1   7
ATOM      2  O   UNL     1      -6.551   4.101 125.963  0.00  0.00    +0.000 OA
ATOM      3  S   UNL     1      -7.910   4.017 125.498  0.00  0.00    +0.000 S 
ATOM      4  O   UNL     1      -8.857   5.101 125.643  0.00  0.00    +0.000 OA
ATOM      5  C   UNL     1      -7.991   3.289 123.867  0.00  0.00    +0.000 C 
ATOM      6  C   UNL     1      -7.300   1.925 123.838  0.00  0.00    +0.000 C 
ATOM      7  N   UNL     1      -7.907   0.964 124.773  0.00  0.00    +0.000 NA
ATOM      8  C   UNL     1      -7.852   1.588 126.079  0.00  0.00    +0.000 C 
ATOM      9  N   UNL     1      -8.581   2.776 126.319  0.00  0.00    +0.000 NA
ATOM     10  H   UNL     1      -8.668   2.949 127.325  0.00  0.00    +0.000 HD
ENDBRANCH   1   7
BRANCH   1  11
ATOM     11  N   UNL     1      -9.364  -0.991 124.384  0.00  0.00    +0.000 NA
ATOM     12  C   UNL     1      -8.985  -1.719 123.178  0.00  0.00    +0.000 C 
ATOM     13  C   UNL     1      -7.495  -1.766 122.951  0.00  0.00    +0.000 C 
ATOM     14  S   UNL     1      -6.751  -2.695 124.264  0.00  0.00    +0.000 S 
ATOM     15  O   UNL     1      -5.361  -2.253 124.369  0.00  0.00    +0.000 OA
ATOM     16  O   UNL     1      -7.139  -4.065 124.268  0.00  0.00    +0.000 OA
ATOM     17  N   UNL     1      -7.455  -1.993 125.573  0.00  0.00    +0.000 NA
ATOM     18  C   UNL     1      -8.903  -1.691 125.571  0.00  0.00    +0.000 C 
ATOM     19  H   UNL     1      -6.790  -1.230 125.575  0.00  0.00    +0.000 HD
ENDBRANCH   1  11
TORSDOF 2
ENDMDL
