MODEL 1
REMARK VINA RESULT:      -3.9      0.000      0.000
REMARK  Name = Taurine
REMARK  4 active torsions:
REMARK  status: ('A' for Active; 'I' for Inactive)
REMARK    1  A    between atoms: N_1  and  C_2
REMARK    2  A    between atoms: C_2  and  C_3
REMARK    3  A    between atoms: C_3  and  S_4
REMARK    4  A    between atoms: S_4  and  O_5
REMARK                            x       y       z     vdW  Elec       q    Type
REMARK                         _______ _______ _______ _____ _____    ______ ____
ROOT
ATOM      1  C   UNL     1     -12.519   7.005 126.610  0.00  0.00    +0.000 C 
ENDROOT
BRANCH   1   2
ATOM      2  S   UNL     1     -10.818   7.545 126.552  0.00  0.00    +0.000 S 
ATOM      3  O   UNL     1     -10.626   8.625 127.489  0.00  0.00    +0.000 OA
ATOM      4  O   UNL     1      -9.957   6.382 126.523  0.00  0.00    +0.000 OA
BRANCH   2   5
ATOM      5  O   UNL     1     -10.826   8.198 125.072  0.00  0.00    +0.000 OA
ATOM      6  H   UNL     1      -9.933   8.530 124.840  0.00  0.00    +0.000 HD
ENDBRANCH   2   5
ENDBRANCH   1   2
BRANCH   1   7
ATOM      7  C   UNL     1     -13.019   6.854 128.038  0.00  0.00    +0.000 C 
BRANCH   7   8
ATOM      8  N   UNL     1     -12.021   6.188 128.876  0.00  0.00    +0.000 NA
ATOM      9  H   UNL     1     -11.886   5.228 128.556  0.00  0.00    +0.000 HD
ATOM     10  H   UNL     1     -12.359   6.115 129.836  0.00  0.00    +0.000 HD
ENDBRANCH   7   8
ENDBRANCH   1   7
TORSDOF 4
ENDMDL
MODEL 2
REMARK VINA RESULT:      -3.9      2.016      2.250
REMARK  Name = Taurine
REMARK  4 active torsions:
REMARK  status: ('A' for Active; 'I' for Inactive)
REMARK    1  A    between atoms: N_1  and  C_2
REMARK    2  A    between atoms: C_2  and  C_3
REMARK    3  A    between atoms: C_3  and  S_4
REMARK    4  A    between atoms: S_4  and  O_5
REMARK                            x       y       z     vdW  Elec       q    Type
REMARK                         _______ _______ _______ _____ _____    ______ ____
ROOT
ATOM      1  C   UNL     1     -10.601   8.438 127.838  0.00  0.00    +0.000 C 
ENDROOT
BRANCH   1   2
ATOM      2  S   UNL     1     -10.898   7.226 126.560  0.00  0.00    +0.000 S 
ATOM      3  O   UNL     1      -9.771   6.328 126.481  0.00  0.00    +0.000 OA
ATOM      4  O   UNL     1     -12.260   6.750 126.671  0.00  0.00    +0.000 OA
BRANCH   2   5
ATOM      5  O   UNL     1     -10.813   8.206 125.277  0.00  0.00    +0.000 OA
ATOM      6  H   UNL     1     -10.905   9.142 125.554  0.00  0.00    +0.000 HD
ENDBRANCH   2   5
ENDBRANCH   1   2
BRANCH   1   7
ATOM      7  C   UNL     1     -11.707   8.446 128.881  0.00  0.00    +0.000 C 
BRANCH   7   8
ATOM      8  N   UNL     1     -12.807   9.320 128.473  0.00  0.00    +0.000 NA
ATOM      9  H   UNL     1     -13.697   8.837 128.596  0.00  0.00    +0.000 HD
ATOM     10  H   UNL     1     -12.741   9.527 127.476  0.00  0.00    +0.000 HD
ENDBRANCH   7   8
ENDBRANCH   1   7
TORSDOF 4
ENDMDL
MODEL 3
REMARK VINA RESULT:      -3.8      2.066      2.493
REMARK  Name = Taurine
REMARK  4 active torsions:
REMARK  status: ('A' for Active; 'I' for Inactive)
REMARK    1  A    between atoms: N_1  and  C_2
REMARK    2  A    between atoms: C_2  and  C_3
REMARK    3  A    between atoms: C_3  and  S_4
REMARK    4  A    between atoms: S_4  and  O_5
REMARK                            x       y       z     vdW  Elec       q    Type
REMARK                         _______ _______ _______ _____ _____    ______ ____
ROOT
ATOM      1  C   UNL     1     -10.638   8.473 128.033  0.00  0.00    +0.000 C 
ENDROOT
BRANCH   1   2
ATOM      2  S   UNL     1     -11.009   7.391 126.662  0.00  0.00    +0.000 S 
ATOM      3  O   UNL     1     -12.219   6.657 126.945  0.00  0.00    +0.000 OA
ATOM      4  O   UNL     1     -10.816   8.117 125.425  0.00  0.00    +0.000 OA
BRANCH   2   5
ATOM      5  O   UNL     1      -9.778   6.357 126.834  0.00  0.00    +0.000 OA
ATOM      6  H   UNL     1      -9.934   5.547 126.304  0.00  0.00    +0.000 HD
ENDBRANCH   2   5
ENDBRANCH   1   2
BRANCH   1   7
ATOM      7  C   UNL     1     -11.786   8.545 129.028  0.00  0.00    +0.000 C 
BRANCH   7   8
ATOM      8  N   UNL     1     -12.867   9.390 128.521  0.00  0.00    +0.000 NA
ATOM      9  H   UNL     1     -13.489   9.652 129.286  0.00  0.00    +0.000 HD
ATOM     10  H   UNL     1     -13.446   8.865 127.863  0.00  0.00    +0.000 HD
ENDBRANCH   7   8
ENDBRANCH   1   7
TORSDOF 4
ENDMDL
MODEL 4
REMARK VINA RESULT:      -3.7      2.559      2.867
REMARK  Name = Taurine
REMARK  4 active torsions:
REMARK  status: ('A' for Active; 'I' for Inactive)
REMARK    1  A    between atoms: N_1  and  C_2
REMARK    2  A    between atoms: C_2  and  C_3
REMARK    3  A    between atoms: C_3  and  S_4
REMARK    4  A    between atoms: S_4  and  O_5
REMARK                            x       y       z     vdW  Elec       q    Type
REMARK                         _______ _______ _______ _____ _____    ______ ____
ROOT
ATOM      1  C   UNL     1     -10.855   8.212 127.765  0.00  0.00    +0.000 C 
ENDROOT
BRANCH   1   2
ATOM      2  S   UNL     1     -10.295   6.882 128.817  0.00  0.00    +0.000 S 
ATOM      3  O   UNL     1      -9.363   7.400 129.789  0.00  0.00    +0.000 OA
ATOM      4  O   UNL     1     -11.432   6.069 129.192  0.00  0.00    +0.000 OA
BRANCH   2   5
ATOM      5  O   UNL     1      -9.432   6.061 127.724  0.00  0.00    +0.000 OA
ATOM      6  H   UNL     1      -9.585   5.097 127.821  0.00  0.00    +0.000 HD
ENDBRANCH   2   5
ENDBRANCH   1   2
BRANCH   1   7
ATOM      7  C   UNL     1     -11.050   7.756 126.328  0.00  0.00    +0.000 C 
BRANCH   7   8
ATOM      8  N   UNL     1     -12.048   6.690 126.246  0.00  0.00    +0.000 NA
ATOM      9  H   UNL     1     -11.939   6.052 127.035  0.00  0.00    +0.000 HD
ATOM     10  H   UNL     1     -11.893   6.125 125.411  0.00  0.00    +0.000 HD
ENDBRANCH   7   8
ENDBRANCH   1   7
TORSDOF 4
ENDMDL
MODEL 5
REMARK VINA RESULT:      -3.6      1.826      2.205
REMARK  Name = Taurine
REMARK  4 active torsions:
REMARK  status: ('A' for Active; 'I' for Inactive)
REMARK    1  A    between atoms: N_1  and  C_2
REMARK    2  A    between atoms: C_2  and  C_3
REMARK    3  A    between atoms: C_3  and  S_4
REMARK    4  A    between atoms: S_4  and  O_5
REMARK                            x       y       z     vdW  Elec       q    Type
REMARK                         _______ _______ _______ _____ _____    ______ ____
ROOT
ATOM      1  C   UNL     1     -12.243   6.803 128.627  0.00  0.00    +0.000 C 
ENDROOT
BRANCH   1   2
ATOM      2  S   UNL     1     -10.533   7.315 128.597  0.00  0.00    +0.000 S 
ATOM      3  O   UNL     1     -10.076   7.538 129.947  0.00  0.00    +0.000 OA
ATOM      4  O   UNL     1      -9.809   6.481 127.662  0.00  0.00    +0.000 OA
BRANCH   2   5
ATOM      5  O   UNL     1     -10.731   8.770 127.919  0.00  0.00    +0.000 OA
ATOM      6  H   UNL     1     -10.910   9.446 128.606  0.00  0.00    +0.000 HD
ENDBRANCH   2   5
ENDBRANCH   1   2
BRANCH   1   7
ATOM      7  C   UNL     1     -12.973   7.184 127.349  0.00  0.00    +0.000 C 
BRANCH   7   8
ATOM      8  N   UNL     1     -12.241   6.724 126.169  0.00  0.00    +0.000 NA
ATOM      9  H   UNL     1     -11.579   7.441 125.871  0.00  0.00    +0.000 HD
ATOM     10  H   UNL     1     -12.881   6.596 125.384  0.00  0.00    +0.000 HD
ENDBRANCH   7   8
ENDBRANCH   1   7
TORSDOF 4
ENDMDL
MODEL 6
REMARK VINA RESULT:      -3.5      3.094      3.509
REMARK  Name = Taurine
REMARK  4 active torsions:
REMARK  status: ('A' for Active; 'I' for Inactive)
REMARK    1  A    between atoms: N_1  and  C_2
REMARK    2  A    between atoms: C_2  and  C_3
REMARK    3  A    between atoms: C_3  and  S_4
REMARK    4  A    between atoms: S_4  and  O_5
REMARK                            x       y       z     vdW  Elec       q    Type
REMARK                         _______ _______ _______ _____ _____    ______ ____
ROOT
ATOM      1  C   UNL     1     -11.696   8.326 128.147  0.00  0.00    +0.000 C 
ENDROOT
BRANCH   1   2
ATOM      2  S   UNL     1     -12.526   7.094 129.138  0.00  0.00    +0.000 S 
ATOM      3  O   UNL     1     -11.820   5.840 129.033  0.00  0.00    +0.000 OA
ATOM      4  O   UNL     1     -12.881   7.678 130.414  0.00  0.00    +0.000 OA
BRANCH   2   5
ATOM      5  O   UNL     1     -13.877   6.951 128.260  0.00  0.00    +0.000 OA
ATOM      6  H   UNL     1     -13.826   7.515 127.460  0.00  0.00    +0.000 HD
ENDBRANCH   2   5
ENDBRANCH   1   2
BRANCH   1   7
ATOM      7  C   UNL     1     -10.935   7.704 126.987  0.00  0.00    +0.000 C 
BRANCH   7   8
ATOM      8  N   UNL     1     -11.794   6.800 126.221  0.00  0.00    +0.000 NA
ATOM      9  H   UNL     1     -12.342   6.221 126.857  0.00  0.00    +0.000 HD
ATOM     10  H   UNL     1     -11.225   6.150 125.676  0.00  0.00    +0.000 HD
ENDBRANCH   7   8
ENDBRANCH   1   7
TORSDOF 4
ENDMDL
MODEL 7
REMARK VINA RESULT:      -3.4      4.379      4.765
REMARK  Name = Taurine
REMARK  4 active torsions:
REMARK  status: ('A' for Active; 'I' for Inactive)
REMARK    1  A    between atoms: N_1  and  C_2
REMARK    2  A    between atoms: C_2  and  C_3
REMARK    3  A    between atoms: C_3  and  S_4
REMARK    4  A    between atoms: S_4  and  O_5
REMARK                            x       y       z     vdW  Elec       q    Type
REMARK                         _______ _______ _______ _____ _____    ______ ____
ROOT
ATOM      1  C   UNL     1     -10.634   7.148 130.114  0.00  0.00    +0.000 C 
ENDROOT
BRANCH   1   2
ATOM      2  S   UNL     1     -11.372   6.389 131.552  0.00  0.00    +0.000 S 
ATOM      3  O   UNL     1     -10.456   6.478 132.664  0.00  0.00    +0.000 OA
ATOM      4  O   UNL     1     -12.752   6.813 131.652  0.00  0.00    +0.000 OA
BRANCH   2   5
ATOM      5  O   UNL     1     -11.355   4.853 131.047  0.00  0.00    +0.000 OA
ATOM      6  H   UNL     1     -11.712   4.261 131.742  0.00  0.00    +0.000 HD
ENDBRANCH   2   5
ENDBRANCH   1   2
BRANCH   1   7
ATOM      7  C   UNL     1     -11.675   7.510 129.066  0.00  0.00    +0.000 C 
BRANCH   7   8
ATOM      8  N   UNL     1     -12.410   6.325 128.625  0.00  0.00    +0.000 NA
ATOM      9  H   UNL     1     -13.251   6.607 128.121  0.00  0.00    +0.000 HD
ATOM     10  H   UNL     1     -12.739   5.793 129.433  0.00  0.00    +0.000 HD
ENDBRANCH   7   8
ENDBRANCH   1   7
TORSDOF 4
ENDMDL
MODEL 8
REMARK VINA RESULT:      -3.3      3.622      4.138
REMARK  Name = Taurine
REMARK  4 active torsions:
REMARK  status: ('A' for Active; 'I' for Inactive)
REMARK    1  A    between atoms: N_1  and  C_2
REMARK    2  A    between atoms: C_2  and  C_3
REMARK    3  A    between atoms: C_3  and  S_4
REMARK    4  A    between atoms: S_4  and  O_5
REMARK                            x       y       z     vdW  Elec       q    Type
REMARK                         _______ _______ _______ _____ _____    ______ ____
ROOT
ATOM      1  C   UNL     1     -10.470   7.355 129.885  0.00  0.00    +0.000 C 
ENDROOT
BRANCH   1   2
ATOM      2  S   UNL     1     -11.286   5.768 129.957  0.00  0.00    +0.000 S 
ATOM      3  O   UNL     1     -12.489   5.811 129.161  0.00  0.00    +0.000 OA
ATOM      4  O   UNL     1     -10.296   4.723 129.808  0.00  0.00    +0.000 OA
BRANCH   2   5
ATOM      5  O   UNL     1     -11.744   5.805 131.508  0.00  0.00    +0.000 OA
ATOM      6  H   UNL     1     -11.830   6.732 131.817  0.00  0.00    +0.000 HD
ENDBRANCH   2   5
ENDBRANCH   1   2
BRANCH   1   7
ATOM      7  C   UNL     1     -10.399   7.893 128.465  0.00  0.00    +0.000 C 
BRANCH   7   8
ATOM      8  N   UNL     1     -10.122   6.819 127.510  0.00  0.00    +0.000 NA
ATOM      9  H   UNL     1     -10.305   7.145 126.560  0.00  0.00    +0.000 HD
ATOM     10  H   UNL     1     -10.763   6.039 127.661  0.00  0.00    +0.000 HD
ENDBRANCH   7   8
ENDBRANCH   1   7
TORSDOF 4
ENDMDL
MODEL 9
REMARK VINA RESULT:      -3.2      2.628      2.941
REMARK  Name = Taurine
REMARK  4 active torsions:
REMARK  status: ('A' for Active; 'I' for Inactive)
REMARK    1  A    between atoms: N_1  and  C_2
REMARK    2  A    between atoms: C_2  and  C_3
REMARK    3  A    between atoms: C_3  and  S_4
REMARK    4  A    between atoms: S_4  and  O_5
REMARK                            x       y       z     vdW  Elec       q    Type
REMARK                         _______ _______ _______ _____ _____    ______ ____
ROOT
ATOM      1  C   UNL     1     -12.143   7.628 130.300  0.00  0.00    +0.000 C 
ENDROOT
BRANCH   1   2
ATOM      2  S   UNL     1     -10.893   7.515 129.029  0.00  0.00    +0.000 S 
ATOM      3  O   UNL     1      -9.587   7.636 129.630  0.00  0.00    +0.000 OA
ATOM      4  O   UNL     1     -11.234   6.434 128.129  0.00  0.00    +0.000 OA
BRANCH   2   5
ATOM      5  O   UNL     1     -11.196   8.911 128.271  0.00  0.00    +0.000 OA
ATOM      6  H   UNL     1     -12.062   8.870 127.812  0.00  0.00    +0.000 HD
ENDBRANCH   2   5
ENDBRANCH   1   2
BRANCH   1   7
ATOM      7  C   UNL     1     -11.861   6.686 131.460  0.00  0.00    +0.000 C 
BRANCH   7   8
ATOM      8  N   UNL     1     -11.401   5.383 130.978  0.00  0.00    +0.000 NA
ATOM      9  H   UNL     1     -12.203   4.779 130.797  0.00  0.00    +0.000 HD
ATOM     10  H   UNL     1     -10.858   4.912 131.703  0.00  0.00    +0.000 HD
ENDBRANCH   7   8
ENDBRANCH   1   7
TORSDOF 4
ENDMDL
