MODEL 1
REMARK VINA RESULT:      -8.6      0.000      0.000
REMARK  Name = Taurocholic acid
REMARK  14 active torsions:
REMARK  status: ('A' for Active; 'I' for Inactive)
REMARK    1  A    between atoms: C_2  and  C_28
REMARK    2  A    between atoms: C_9  and  O_10
REMARK    3  A    between atoms: C_15  and  O_16
REMARK    4  A    between atoms: C_19  and  C_20
REMARK    5  A    between atoms: C_24  and  O_25
REMARK    6  A    between atoms: C_26  and  C_27
REMARK    7  A    between atoms: C_28  and  C_29
REMARK    8  A    between atoms: C_28  and  C_30
REMARK    9  A    between atoms: C_30  and  C_31
REMARK   10  A    between atoms: C_31  and  C_32
REMARK   11  A    between atoms: N_34  and  C_35
REMARK   12  A    between atoms: C_35  and  C_36
REMARK   13  A    between atoms: C_36  and  S_37
REMARK   14  A    between atoms: S_37  and  O_38
REMARK                            x       y       z     vdW  Elec       q    Type
REMARK                         _______ _______ _______ _____ _____    ______ ____
ROOT
ATOM      1  C   UNL     1      -7.808   5.787 131.301  0.00  0.00    +0.000 C 
ATOM      2  C   UNL     1      -6.452   6.446 131.744  0.00  0.00    +0.000 C 
ATOM      3  C   UNL     1      -5.340   5.890 130.844  0.00  0.00    +0.000 C 
ATOM      4  C   UNL     1      -6.100   5.223 129.709  0.00  0.00    +0.000 C 
ATOM      5  C   UNL     1      -5.357   4.186 128.851  0.00  0.00    +0.000 C 
ATOM      6  C   UNL     1      -4.077   4.761 128.253  0.00  0.00    +0.000 C 
ATOM      7  C   UNL     1      -3.423   3.784 127.276  0.00  0.00    +0.000 C 
ATOM      8  C   UNL     1      -4.366   3.155 126.224  0.00  0.00    +0.000 C 
ATOM      9  C   UNL     1      -4.699   4.168 125.112  0.00  0.00    +0.000 C 
ATOM     10  C   UNL     1      -5.652   3.625 124.056  0.00  0.00    +0.000 C 
ATOM     11  C   UNL     1      -6.928   3.099 124.699  0.00  0.00    +0.000 C 
ATOM     12  C   UNL     1      -6.594   2.033 125.734  0.00  0.00    +0.000 C 
ATOM     13  C   UNL     1      -5.639   2.532 126.861  0.00  0.00    +0.000 C 
ATOM     14  C   UNL     1      -5.265   1.281 127.700  0.00  0.00    +0.000 C 
ATOM     15  C   UNL     1      -6.306   3.622 127.746  0.00  0.00    +0.000 C 
ATOM     16  C   UNL     1      -7.617   3.126 128.320  0.00  0.00    +0.000 C 
ATOM     17  C   UNL     1      -8.274   4.181 129.174  0.00  0.00    +0.000 C 
ATOM     18  C   UNL     1      -7.338   4.597 130.392  0.00  0.00    +0.000 C 
ATOM     19  C   UNL     1      -6.857   3.418 131.330  0.00  0.00    +0.000 C 
ENDROOT
BRANCH   6  20
ATOM     20  O   UNL     1      -4.302   6.028 127.645  0.00  0.00    +0.000 OA
ATOM     21  H   UNL     1      -3.518   6.582 127.754  0.00  0.00    +0.000 HD
ENDBRANCH   6  20
BRANCH  10  22
ATOM     22  O   UNL     1      -5.976   4.671 123.146  0.00  0.00    +0.000 OA
ATOM     23  H   UNL     1      -5.162   5.158 122.932  0.00  0.00    +0.000 HD
ENDBRANCH  10  22
BRANCH  17  24
ATOM     24  O   UNL     1      -8.785   5.279 128.431  0.00  0.00    +0.000 OA
ATOM     25  H   UNL     1      -9.593   5.624 128.827  0.00  0.00    +0.000 HD
ENDBRANCH  17  24
BRANCH   1  26
ATOM     26  C   UNL     1      -8.711   5.440 132.546  0.00  0.00    +0.000 C 
ATOM     27  C   UNL     1      -8.126   6.046 133.831  0.00  0.00    +0.000 C 
BRANCH  26  28
ATOM     28  C   UNL     1     -10.208   5.894 132.471  0.00  0.00    +0.000 C 
BRANCH  28  29
ATOM     29  C   UNL     1     -10.962   5.377 131.263  0.00  0.00    +0.000 C 
BRANCH  29  30
ATOM     30  C   UNL     1     -11.936   6.292 130.562  0.00  0.00    +0.000 C 
ATOM     31  O   UNL     1     -12.794   6.920 131.174  0.00  0.00    +0.000 OA
ATOM     32  N   UNL     1     -11.853   6.309 129.168  0.00  0.00    +0.000 N 
ATOM     33  H   UNL     1     -11.050   5.925 128.679  0.00  0.00    +0.000 HD
BRANCH  32  34
ATOM     34  C   UNL     1     -12.909   6.990 128.436  0.00  0.00    +0.000 C 
BRANCH  34  35
ATOM     35  C   UNL     1     -12.676   7.172 126.949  0.00  0.00    +0.000 C 
BRANCH  35  36
ATOM     36  S   UNL     1     -10.953   7.529 126.596  0.00  0.00    +0.000 S 
ATOM     37  O   UNL     1     -10.479   8.560 127.507  0.00  0.00    +0.000 OA
ATOM     38  O   UNL     1     -10.248   6.296 126.402  0.00  0.00    +0.000 OA
BRANCH  36  39
ATOM     39  O   UNL     1     -11.150   8.236 125.155  0.00  0.00    +0.000 OA
ATOM     40  H   UNL     1     -11.591   7.629 124.524  0.00  0.00    +0.000 HD
ENDBRANCH  36  39
ENDBRANCH  35  36
ENDBRANCH  34  35
ENDBRANCH  32  34
ENDBRANCH  29  30
ENDBRANCH  28  29
ENDBRANCH  26  28
ENDBRANCH   1  26
TORSDOF 11
ENDMDL
MODEL 2
REMARK VINA RESULT:      -7.9      1.161      1.553
REMARK  Name = Taurocholic acid
REMARK  14 active torsions:
REMARK  status: ('A' for Active; 'I' for Inactive)
REMARK    1  A    between atoms: C_2  and  C_28
REMARK    2  A    between atoms: C_9  and  O_10
REMARK    3  A    between atoms: C_15  and  O_16
REMARK    4  A    between atoms: C_19  and  C_20
REMARK    5  A    between atoms: C_24  and  O_25
REMARK    6  A    between atoms: C_26  and  C_27
REMARK    7  A    between atoms: C_28  and  C_29
REMARK    8  A    between atoms: C_28  and  C_30
REMARK    9  A    between atoms: C_30  and  C_31
REMARK   10  A    between atoms: C_31  and  C_32
REMARK   11  A    between atoms: N_34  and  C_35
REMARK   12  A    between atoms: C_35  and  C_36
REMARK   13  A    between atoms: C_36  and  S_37
REMARK   14  A    between atoms: S_37  and  O_38
REMARK                            x       y       z     vdW  Elec       q    Type
REMARK                         _______ _______ _______ _____ _____    ______ ____
ROOT
ATOM      1  C   UNL     1      -7.127   4.502 132.089  0.00  0.00    +0.000 C 
ATOM      2  C   UNL     1      -5.671   4.864 132.558  0.00  0.00    +0.000 C 
ATOM      3  C   UNL     1      -4.694   4.384 131.476  0.00  0.00    +0.000 C 
ATOM      4  C   UNL     1      -5.594   4.092 130.287  0.00  0.00    +0.000 C 
ATOM      5  C   UNL     1      -5.048   3.185 129.171  0.00  0.00    +0.000 C 
ATOM      6  C   UNL     1      -3.728   3.709 128.614  0.00  0.00    +0.000 C 
ATOM      7  C   UNL     1      -3.267   2.899 127.403  0.00  0.00    +0.000 C 
ATOM      8  C   UNL     1      -4.338   2.647 126.316  0.00  0.00    +0.000 C 
ATOM      9  C   UNL     1      -4.575   3.919 125.476  0.00  0.00    +0.000 C 
ATOM     10  C   UNL     1      -5.643   3.753 124.405  0.00  0.00    +0.000 C 
ATOM     11  C   UNL     1      -6.951   3.267 125.016  0.00  0.00    +0.000 C 
ATOM     12  C   UNL     1      -6.725   1.963 125.769  0.00  0.00    +0.000 C 
ATOM     13  C   UNL     1      -5.656   2.069 126.900  0.00  0.00    +0.000 C 
ATOM     14  C   UNL     1      -5.427   0.624 127.419  0.00  0.00    +0.000 C 
ATOM     15  C   UNL     1      -6.118   3.011 128.047  0.00  0.00    +0.000 C 
ATOM     16  C   UNL     1      -7.459   2.572 128.601  0.00  0.00    +0.000 C 
ATOM     17  C   UNL     1      -7.917   3.486 129.709  0.00  0.00    +0.000 C 
ATOM     18  C   UNL     1      -6.875   3.494 130.913  0.00  0.00    +0.000 C 
ATOM     19  C   UNL     1      -6.525   2.084 131.535  0.00  0.00    +0.000 C 
ENDROOT
BRANCH   6  20
ATOM     20  O   UNL     1      -3.797   5.097 128.311  0.00  0.00    +0.000 OA
ATOM     21  H   UNL     1      -3.105   5.568 128.794  0.00  0.00    +0.000 HD
ENDBRANCH   6  20
BRANCH  10  22
ATOM     22  O   UNL     1      -5.856   5.009 123.769  0.00  0.00    +0.000 OA
ATOM     23  H   UNL     1      -5.261   5.072 123.002  0.00  0.00    +0.000 HD
ENDBRANCH  10  22
BRANCH  17  24
ATOM     24  O   UNL     1      -8.300   4.779 129.261  0.00  0.00    +0.000 OA
ATOM     25  H   UNL     1      -9.214   4.974 129.495  0.00  0.00    +0.000 HD
ENDBRANCH  17  24
BRANCH   1  26
ATOM     26  C   UNL     1      -8.012   4.006 133.297  0.00  0.00    +0.000 C 
ATOM     27  C   UNL     1      -7.369   4.389 134.638  0.00  0.00    +0.000 C 
BRANCH  26  28
ATOM     28  C   UNL     1      -9.490   4.521 133.337  0.00  0.00    +0.000 C 
BRANCH  28  29
ATOM     29  C   UNL     1      -9.694   5.896 132.735  0.00  0.00    +0.000 C 
BRANCH  29  30
ATOM     30  C   UNL     1     -10.873   6.126 131.821  0.00  0.00    +0.000 C 
ATOM     31  O   UNL     1     -11.958   6.511 132.243  0.00  0.00    +0.000 OA
ATOM     32  N   UNL     1     -10.672   5.789 130.480  0.00  0.00    +0.000 N 
ATOM     33  H   UNL     1      -9.741   5.630 130.106  0.00  0.00    +0.000 HD
BRANCH  32  34
ATOM     34  C   UNL     1     -11.834   5.772 129.606  0.00  0.00    +0.000 C 
BRANCH  34  35
ATOM     35  C   UNL     1     -12.046   7.012 128.759  0.00  0.00    +0.000 C 
BRANCH  35  36
ATOM     36  S   UNL     1     -10.574   7.422 127.821  0.00  0.00    +0.000 S 
ATOM     37  O   UNL     1      -9.833   6.203 127.528  0.00  0.00    +0.000 OA
ATOM     38  O   UNL     1     -10.914   8.373 126.803  0.00  0.00    +0.000 OA
BRANCH  36  39
ATOM     39  O   UNL     1      -9.759   8.193 128.986  0.00  0.00    +0.000 OA
ATOM     40  H   UNL     1      -9.992   9.145 129.006  0.00  0.00    +0.000 HD
ENDBRANCH  36  39
ENDBRANCH  35  36
ENDBRANCH  34  35
ENDBRANCH  32  34
ENDBRANCH  29  30
ENDBRANCH  28  29
ENDBRANCH  26  28
ENDBRANCH   1  26
TORSDOF 11
ENDMDL
MODEL 3
REMARK VINA RESULT:      -7.8      1.892      2.821
REMARK  Name = Taurocholic acid
REMARK  14 active torsions:
REMARK  status: ('A' for Active; 'I' for Inactive)
REMARK    1  A    between atoms: C_2  and  C_28
REMARK    2  A    between atoms: C_9  and  O_10
REMARK    3  A    between atoms: C_15  and  O_16
REMARK    4  A    between atoms: C_19  and  C_20
REMARK    5  A    between atoms: C_24  and  O_25
REMARK    6  A    between atoms: C_26  and  C_27
REMARK    7  A    between atoms: C_28  and  C_29
REMARK    8  A    between atoms: C_28  and  C_30
REMARK    9  A    between atoms: C_30  and  C_31
REMARK   10  A    between atoms: C_31  and  C_32
REMARK   11  A    between atoms: N_34  and  C_35
REMARK   12  A    between atoms: C_35  and  C_36
REMARK   13  A    between atoms: C_36  and  S_37
REMARK   14  A    between atoms: S_37  and  O_38
REMARK                            x       y       z     vdW  Elec       q    Type
REMARK                         _______ _______ _______ _____ _____    ______ ____
ROOT
ATOM      1  C   UNL     1      -5.570   4.879 130.223  0.00  0.00    +0.000 C 
ATOM      2  C   UNL     1      -4.048   4.564 129.991  0.00  0.00    +0.000 C 
ATOM      3  C   UNL     1      -3.955   3.371 129.029  0.00  0.00    +0.000 C 
ATOM      4  C   UNL     1      -5.361   3.258 128.464  0.00  0.00    +0.000 C 
ATOM      5  C   UNL     1      -5.773   1.929 127.810  0.00  0.00    +0.000 C 
ATOM      6  C   UNL     1      -4.812   1.526 126.696  0.00  0.00    +0.000 C 
ATOM      7  C   UNL     1      -5.307   0.292 125.943  0.00  0.00    +0.000 C 
ATOM      8  C   UNL     1      -6.787   0.328 125.495  0.00  0.00    +0.000 C 
ATOM      9  C   UNL     1      -6.966   1.246 124.270  0.00  0.00    +0.000 C 
ATOM     10  C   UNL     1      -8.407   1.354 123.794  0.00  0.00    +0.000 C 
ATOM     11  C   UNL     1      -9.321   1.797 124.930  0.00  0.00    +0.000 C 
ATOM     12  C   UNL     1      -9.204   0.832 126.103  0.00  0.00    +0.000 C 
ATOM     13  C   UNL     1      -7.752   0.692 126.656  0.00  0.00    +0.000 C 
ATOM     14  C   UNL     1      -7.794  -0.454 127.702  0.00  0.00    +0.000 C 
ATOM     15  C   UNL     1      -7.245   2.016 127.295  0.00  0.00    +0.000 C 
ATOM     16  C   UNL     1      -8.197   2.498 128.371  0.00  0.00    +0.000 C 
ATOM     17  C   UNL     1      -7.715   3.786 128.989  0.00  0.00    +0.000 C 
ATOM     18  C   UNL     1      -6.283   3.600 129.657  0.00  0.00    +0.000 C 
ATOM     19  C   UNL     1      -6.165   2.449 130.736  0.00  0.00    +0.000 C 
ENDROOT
BRANCH   6  20
ATOM     20  O   UNL     1      -4.552   2.605 125.807  0.00  0.00    +0.000 OA
ATOM     21  H   UNL     1      -3.621   2.597 125.551  0.00  0.00    +0.000 HD
ENDBRANCH   6  20
BRANCH  10  22
ATOM     22  O   UNL     1      -8.473   2.306 122.737  0.00  0.00    +0.000 OA
ATOM     23  H   UNL     1      -8.711   1.840 121.917  0.00  0.00    +0.000 HD
ENDBRANCH  10  22
BRANCH  17  24
ATOM     24  O   UNL     1      -7.813   4.907 128.121  0.00  0.00    +0.000 OA
ATOM     25  H   UNL     1      -7.929   5.725 128.617  0.00  0.00    +0.000 HD
ENDBRANCH  17  24
BRANCH   1  26
ATOM     26  C   UNL     1      -5.853   5.265 131.727  0.00  0.00    +0.000 C 
ATOM     27  C   UNL     1      -4.541   5.555 132.472  0.00  0.00    +0.000 C 
BRANCH  26  28
ATOM     28  C   UNL     1      -6.794   6.493 131.967  0.00  0.00    +0.000 C 
BRANCH  28  29
ATOM     29  C   UNL     1      -8.273   6.181 131.871  0.00  0.00    +0.000 C 
BRANCH  29  30
ATOM     30  C   UNL     1      -9.087   6.826 130.776  0.00  0.00    +0.000 C 
ATOM     31  O   UNL     1      -8.577   7.550 129.927  0.00  0.00    +0.000 OA
ATOM     32  N   UNL     1     -10.466   6.614 130.845  0.00  0.00    +0.000 N 
ATOM     33  H   UNL     1     -10.864   5.893 131.439  0.00  0.00    +0.000 HD
BRANCH  32  34
ATOM     34  C   UNL     1     -11.314   7.394 129.957  0.00  0.00    +0.000 C 
BRANCH  34  35
ATOM     35  C   UNL     1     -11.833   6.672 128.729  0.00  0.00    +0.000 C 
BRANCH  35  36
ATOM     36  S   UNL     1     -10.969   7.196 127.248  0.00  0.00    +0.000 S 
ATOM     37  O   UNL     1     -10.888   8.650 127.226  0.00  0.00    +0.000 OA
ATOM     38  O   UNL     1      -9.818   6.363 127.055  0.00  0.00    +0.000 OA
BRANCH  36  39
ATOM     39  O   UNL     1     -12.089   6.777 126.160  0.00  0.00    +0.000 OA
ATOM     40  H   UNL     1     -12.482   5.905 126.379  0.00  0.00    +0.000 HD
ENDBRANCH  36  39
ENDBRANCH  35  36
ENDBRANCH  34  35
ENDBRANCH  32  34
ENDBRANCH  29  30
ENDBRANCH  28  29
ENDBRANCH  26  28
ENDBRANCH   1  26
TORSDOF 11
ENDMDL
MODEL 4
REMARK VINA RESULT:      -7.7      3.123      7.021
REMARK  Name = Taurocholic acid
REMARK  14 active torsions:
REMARK  status: ('A' for Active; 'I' for Inactive)
REMARK    1  A    between atoms: C_2  and  C_28
REMARK    2  A    between atoms: C_9  and  O_10
REMARK    3  A    between atoms: C_15  and  O_16
REMARK    4  A    between atoms: C_19  and  C_20
REMARK    5  A    between atoms: C_24  and  O_25
REMARK    6  A    between atoms: C_26  and  C_27
REMARK    7  A    between atoms: C_28  and  C_29
REMARK    8  A    between atoms: C_28  and  C_30
REMARK    9  A    between atoms: C_30  and  C_31
REMARK   10  A    between atoms: C_31  and  C_32
REMARK   11  A    between atoms: N_34  and  C_35
REMARK   12  A    between atoms: C_35  and  C_36
REMARK   13  A    between atoms: C_36  and  S_37
REMARK   14  A    between atoms: S_37  and  O_38
REMARK                            x       y       z     vdW  Elec       q    Type
REMARK                         _______ _______ _______ _____ _____    ______ ____
ROOT
ATOM      1  C   UNL     1      -7.292   0.277 129.152  0.00  0.00    +0.000 C 
ATOM      2  C   UNL     1      -7.484  -0.562 130.467  0.00  0.00    +0.000 C 
ATOM      3  C   UNL     1      -7.774   0.417 131.613  0.00  0.00    +0.000 C 
ATOM      4  C   UNL     1      -8.090   1.720 130.897  0.00  0.00    +0.000 C 
ATOM      5  C   UNL     1      -8.001   3.028 131.701  0.00  0.00    +0.000 C 
ATOM      6  C   UNL     1      -8.874   2.982 132.951  0.00  0.00    +0.000 C 
ATOM      7  C   UNL     1      -8.909   4.334 133.664  0.00  0.00    +0.000 C 
ATOM      8  C   UNL     1      -9.185   5.561 132.764  0.00  0.00    +0.000 C 
ATOM      9  C   UNL     1     -10.677   5.634 132.381  0.00  0.00    +0.000 C 
ATOM     10  C   UNL     1     -11.016   6.802 131.467  0.00  0.00    +0.000 C 
ATOM     11  C   UNL     1     -10.146   6.781 130.217  0.00  0.00    +0.000 C 
ATOM     12  C   UNL     1      -8.673   6.799 130.603  0.00  0.00    +0.000 C 
ATOM     13  C   UNL     1      -8.252   5.612 131.523  0.00  0.00    +0.000 C 
ATOM     14  C   UNL     1      -6.790   5.898 131.960  0.00  0.00    +0.000 C 
ATOM     15  C   UNL     1      -8.361   4.245 130.792  0.00  0.00    +0.000 C 
ATOM     16  C   UNL     1      -7.559   4.252 129.507  0.00  0.00    +0.000 C 
ATOM     17  C   UNL     1      -7.667   2.931 128.788  0.00  0.00    +0.000 C 
ATOM     18  C   UNL     1      -7.122   1.741 129.692  0.00  0.00    +0.000 C 
ATOM     19  C   UNL     1      -5.644   1.901 130.232  0.00  0.00    +0.000 C 
ENDROOT
BRANCH   6  20
ATOM     20  O   UNL     1     -10.187   2.517 132.661  0.00  0.00    +0.000 OA
ATOM     21  H   UNL     1     -10.148   1.861 131.952  0.00  0.00    +0.000 HD
ENDBRANCH   6  20
BRANCH  10  22
ATOM     22  O   UNL     1     -12.386   6.710 131.091  0.00  0.00    +0.000 OA
ATOM     23  H   UNL     1     -12.695   5.805 131.268  0.00  0.00    +0.000 HD
ENDBRANCH  10  22
BRANCH  17  24
ATOM     24  O   UNL     1      -8.948   2.694 128.221  0.00  0.00    +0.000 OA
ATOM     25  H   UNL     1      -9.646   3.097 128.750  0.00  0.00    +0.000 HD
ENDBRANCH  17  24
BRANCH   1  26
ATOM     26  C   UNL     1      -6.130  -0.311 128.261  0.00  0.00    +0.000 C 
ATOM     27  C   UNL     1      -5.474  -1.518 128.948  0.00  0.00    +0.000 C 
BRANCH  26  28
ATOM     28  C   UNL     1      -6.521  -0.766 126.815  0.00  0.00    +0.000 C 
BRANCH  28  29
ATOM     29  C   UNL     1      -7.832  -1.520 126.725  0.00  0.00    +0.000 C 
BRANCH  29  30
ATOM     30  C   UNL     1      -8.955  -0.937 125.903  0.00  0.00    +0.000 C 
ATOM     31  O   UNL     1      -9.671  -1.634 125.193  0.00  0.00    +0.000 OA
ATOM     32  N   UNL     1      -9.069   0.455 125.938  0.00  0.00    +0.000 N 
ATOM     33  H   UNL     1      -8.592   1.010 126.641  0.00  0.00    +0.000 HD
BRANCH  32  34
ATOM     34  C   UNL     1      -9.979   1.082 124.992  0.00  0.00    +0.000 C 
BRANCH  34  35
ATOM     35  C   UNL     1      -9.337   1.960 123.935  0.00  0.00    +0.000 C 
BRANCH  35  36
ATOM     36  S   UNL     1      -8.201   3.140 124.667  0.00  0.00    +0.000 S 
ATOM     37  O   UNL     1      -8.944   4.059 125.519  0.00  0.00    +0.000 OA
ATOM     38  O   UNL     1      -7.033   2.447 125.126  0.00  0.00    +0.000 OA
BRANCH  36  39
ATOM     39  O   UNL     1      -7.814   3.958 123.327  0.00  0.00    +0.000 OA
ATOM     40  H   UNL     1      -8.596   4.425 122.963  0.00  0.00    +0.000 HD
ENDBRANCH  36  39
ENDBRANCH  35  36
ENDBRANCH  34  35
ENDBRANCH  32  34
ENDBRANCH  29  30
ENDBRANCH  28  29
ENDBRANCH  26  28
ENDBRANCH   1  26
TORSDOF 11
ENDMDL
MODEL 5
REMARK VINA RESULT:      -7.7      5.134      8.321
REMARK  Name = Taurocholic acid
REMARK  14 active torsions:
REMARK  status: ('A' for Active; 'I' for Inactive)
REMARK    1  A    between atoms: C_2  and  C_28
REMARK    2  A    between atoms: C_9  and  O_10
REMARK    3  A    between atoms: C_15  and  O_16
REMARK    4  A    between atoms: C_19  and  C_20
REMARK    5  A    between atoms: C_24  and  O_25
REMARK    6  A    between atoms: C_26  and  C_27
REMARK    7  A    between atoms: C_28  and  C_29
REMARK    8  A    between atoms: C_28  and  C_30
REMARK    9  A    between atoms: C_30  and  C_31
REMARK   10  A    between atoms: C_31  and  C_32
REMARK   11  A    between atoms: N_34  and  C_35
REMARK   12  A    between atoms: C_35  and  C_36
REMARK   13  A    between atoms: C_36  and  S_37
REMARK   14  A    between atoms: S_37  and  O_38
REMARK                            x       y       z     vdW  Elec       q    Type
REMARK                         _______ _______ _______ _____ _____    ______ ____
ROOT
ATOM      1  C   UNL     1      -8.621  -1.564 125.530  0.00  0.00    +0.000 C 
ATOM      2  C   UNL     1      -9.416  -2.883 125.848  0.00  0.00    +0.000 C 
ATOM      3  C   UNL     1      -8.746  -3.557 127.054  0.00  0.00    +0.000 C 
ATOM      4  C   UNL     1      -7.837  -2.473 127.610  0.00  0.00    +0.000 C 
ATOM      5  C   UNL     1      -6.689  -2.898 128.539  0.00  0.00    +0.000 C 
ATOM      6  C   UNL     1      -7.195  -3.708 129.728  0.00  0.00    +0.000 C 
ATOM      7  C   UNL     1      -6.078  -3.994 130.731  0.00  0.00    +0.000 C 
ATOM      8  C   UNL     1      -5.213  -2.779 131.138  0.00  0.00    +0.000 C 
ATOM      9  C   UNL     1      -5.975  -1.871 132.124  0.00  0.00    +0.000 C 
ATOM     10  C   UNL     1      -5.193  -0.634 132.543  0.00  0.00    +0.000 C 
ATOM     11  C   UNL     1      -4.744   0.161 131.324  0.00  0.00    +0.000 C 
ATOM     12  C   UNL     1      -3.916  -0.720 130.399  0.00  0.00    +0.000 C 
ATOM     13  C   UNL     1      -4.668  -1.997 129.911  0.00  0.00    +0.000 C 
ATOM     14  C   UNL     1      -3.622  -2.853 129.148  0.00  0.00    +0.000 C 
ATOM     15  C   UNL     1      -5.878  -1.645 129.000  0.00  0.00    +0.000 C 
ATOM     16  C   UNL     1      -5.443  -0.786 127.830  0.00  0.00    +0.000 C 
ATOM     17  C   UNL     1      -6.613  -0.435 126.946  0.00  0.00    +0.000 C 
ATOM     18  C   UNL     1      -7.300  -1.743 126.357  0.00  0.00    +0.000 C 
ATOM     19  C   UNL     1      -6.349  -2.729 125.566  0.00  0.00    +0.000 C 
ENDROOT
BRANCH   6  20
ATOM     20  O   UNL     1      -8.307  -3.083 130.357  0.00  0.00    +0.000 OA
ATOM     21  H   UNL     1      -7.998  -2.536 131.091  0.00  0.00    +0.000 HD
ENDBRANCH   6  20
BRANCH  10  22
ATOM     22  O   UNL     1      -6.026   0.183 133.360  0.00  0.00    +0.000 OA
ATOM     23  H   UNL     1      -5.517   0.460 134.141  0.00  0.00    +0.000 HD
ENDBRANCH  10  22
BRANCH  17  24
ATOM     24  O   UNL     1      -7.520   0.484 127.540  0.00  0.00    +0.000 OA
ATOM     25  H   UNL     1      -7.669   1.247 126.971  0.00  0.00    +0.000 HD
ENDBRANCH  17  24
BRANCH   1  26
ATOM     26  C   UNL     1      -8.482  -1.341 123.974  0.00  0.00    +0.000 C 
ATOM     27  C   UNL     1      -9.248  -2.422 123.197  0.00  0.00    +0.000 C 
BRANCH  26  28
ATOM     28  C   UNL     1      -8.962   0.044 123.422  0.00  0.00    +0.000 C 
BRANCH  28  29
ATOM     29  C   UNL     1      -9.305   1.062 124.490  0.00  0.00    +0.000 C 
BRANCH  29  30
ATOM     30  C   UNL     1      -8.543   2.365 124.529  0.00  0.00    +0.000 C 
ATOM     31  O   UNL     1      -9.082   3.424 124.831  0.00  0.00    +0.000 OA
ATOM     32  N   UNL     1      -7.211   2.297 124.115  0.00  0.00    +0.000 N 
ATOM     33  H   UNL     1      -6.726   1.409 124.025  0.00  0.00    +0.000 HD
BRANCH  32  34
ATOM     34  C   UNL     1      -6.502   3.551 123.914  0.00  0.00    +0.000 C 
BRANCH  34  35
ATOM     35  C   UNL     1      -5.346   3.819 124.858  0.00  0.00    +0.000 C 
BRANCH  35  36
ATOM     36  S   UNL     1      -5.926   4.357 126.467  0.00  0.00    +0.000 S 
ATOM     37  O   UNL     1      -6.479   3.218 127.186  0.00  0.00    +0.000 OA
ATOM     38  O   UNL     1      -4.951   5.230 127.052  0.00  0.00    +0.000 OA
BRANCH  36  39
ATOM     39  O   UNL     1      -7.182   5.251 125.978  0.00  0.00    +0.000 OA
ATOM     40  H   UNL     1      -8.003   4.716 125.948  0.00  0.00    +0.000 HD
ENDBRANCH  36  39
ENDBRANCH  35  36
ENDBRANCH  34  35
ENDBRANCH  32  34
ENDBRANCH  29  30
ENDBRANCH  28  29
ENDBRANCH  26  28
ENDBRANCH   1  26
TORSDOF 11
ENDMDL
MODEL 6
REMARK VINA RESULT:      -7.7      3.182      5.424
REMARK  Name = Taurocholic acid
REMARK  14 active torsions:
REMARK  status: ('A' for Active; 'I' for Inactive)
REMARK    1  A    between atoms: C_2  and  C_28
REMARK    2  A    between atoms: C_9  and  O_10
REMARK    3  A    between atoms: C_15  and  O_16
REMARK    4  A    between atoms: C_19  and  C_20
REMARK    5  A    between atoms: C_24  and  O_25
REMARK    6  A    between atoms: C_26  and  C_27
REMARK    7  A    between atoms: C_28  and  C_29
REMARK    8  A    between atoms: C_28  and  C_30
REMARK    9  A    between atoms: C_30  and  C_31
REMARK   10  A    between atoms: C_31  and  C_32
REMARK   11  A    between atoms: N_34  and  C_35
REMARK   12  A    between atoms: C_35  and  C_36
REMARK   13  A    between atoms: C_36  and  S_37
REMARK   14  A    between atoms: S_37  and  O_38
REMARK                            x       y       z     vdW  Elec       q    Type
REMARK                         _______ _______ _______ _____ _____    ______ ____
ROOT
ATOM      1  C   UNL     1      -7.519   3.028 132.206  0.00  0.00    +0.000 C 
ATOM      2  C   UNL     1      -6.840   1.803 132.919  0.00  0.00    +0.000 C 
ATOM      3  C   UNL     1      -5.325   2.051 132.943  0.00  0.00    +0.000 C 
ATOM      4  C   UNL     1      -5.199   3.522 132.582  0.00  0.00    +0.000 C 
ATOM      5  C   UNL     1      -3.838   4.030 132.079  0.00  0.00    +0.000 C 
ATOM      6  C   UNL     1      -2.718   3.716 133.067  0.00  0.00    +0.000 C 
ATOM      7  C   UNL     1      -1.397   4.357 132.643  0.00  0.00    +0.000 C 
ATOM      8  C   UNL     1      -1.471   5.851 132.252  0.00  0.00    +0.000 C 
ATOM      9  C   UNL     1      -1.593   6.740 133.506  0.00  0.00    +0.000 C 
ATOM     10  C   UNL     1      -1.703   8.225 133.194  0.00  0.00    +0.000 C 
ATOM     11  C   UNL     1      -2.858   8.492 132.237  0.00  0.00    +0.000 C 
ATOM     12  C   UNL     1      -2.682   7.677 130.963  0.00  0.00    +0.000 C 
ATOM     13  C   UNL     1      -2.586   6.141 131.210  0.00  0.00    +0.000 C 
ATOM     14  C   UNL     1      -2.224   5.502 129.842  0.00  0.00    +0.000 C 
ATOM     15  C   UNL     1      -3.916   5.559 131.767  0.00  0.00    +0.000 C 
ATOM     16  C   UNL     1      -5.078   5.894 130.854  0.00  0.00    +0.000 C 
ATOM     17  C   UNL     1      -6.372   5.339 131.392  0.00  0.00    +0.000 C 
ATOM     18  C   UNL     1      -6.305   3.755 131.527  0.00  0.00    +0.000 C 
ATOM     19  C   UNL     1      -5.925   2.963 130.212  0.00  0.00    +0.000 C 
ENDROOT
BRANCH   6  20
ATOM     20  O   UNL     1      -3.068   4.082 134.396  0.00  0.00    +0.000 OA
ATOM     21  H   UNL     1      -3.853   3.590 134.671  0.00  0.00    +0.000 HD
ENDBRANCH   6  20
BRANCH  10  22
ATOM     22  O   UNL     1      -1.920   8.936 134.408  0.00  0.00    +0.000 OA
ATOM     23  H   UNL     1      -1.700   9.872 134.261  0.00  0.00    +0.000 HD
ENDBRANCH  10  22
BRANCH  17  24
ATOM     24  O   UNL     1      -6.837   6.005 132.558  0.00  0.00    +0.000 OA
ATOM     25  H   UNL     1      -6.120   6.468 133.006  0.00  0.00    +0.000 HD
ENDBRANCH  17  24
BRANCH   1  26
ATOM     26  C   UNL     1      -8.704   2.565 131.274  0.00  0.00    +0.000 C 
ATOM     27  C   UNL     1      -9.843   1.953 132.103  0.00  0.00    +0.000 C 
BRANCH  26  28
ATOM     28  C   UNL     1      -9.345   3.664 130.361  0.00  0.00    +0.000 C 
BRANCH  28  29
ATOM     29  C   UNL     1     -10.250   4.637 131.088  0.00  0.00    +0.000 C 
BRANCH  29  30
ATOM     30  C   UNL     1     -10.183   6.102 130.734  0.00  0.00    +0.000 C 
ATOM     31  O   UNL     1      -9.544   6.905 131.406  0.00  0.00    +0.000 OA
ATOM     32  N   UNL     1     -10.965   6.496 129.646  0.00  0.00    +0.000 N 
ATOM     33  H   UNL     1     -11.357   5.818 128.999  0.00  0.00    +0.000 HD
BRANCH  32  34
ATOM     34  C   UNL     1     -11.118   7.923 129.405  0.00  0.00    +0.000 C 
BRANCH  34  35
ATOM     35  C   UNL     1     -10.546   8.441 128.100  0.00  0.00    +0.000 C 
BRANCH  35  36
ATOM     36  S   UNL     1     -10.986   7.377 126.725  0.00  0.00    +0.000 S 
ATOM     37  O   UNL     1     -12.213   6.661 127.043  0.00  0.00    +0.000 OA
ATOM     38  O   UNL     1     -10.819   8.101 125.498  0.00  0.00    +0.000 OA
BRANCH  36  39
ATOM     39  O   UNL     1      -9.777   6.311 126.856  0.00  0.00    +0.000 OA
ATOM     40  H   UNL     1      -9.003   6.591 126.323  0.00  0.00    +0.000 HD
ENDBRANCH  36  39
ENDBRANCH  35  36
ENDBRANCH  34  35
ENDBRANCH  32  34
ENDBRANCH  29  30
ENDBRANCH  28  29
ENDBRANCH  26  28
ENDBRANCH   1  26
TORSDOF 11
ENDMDL
MODEL 7
REMARK VINA RESULT:      -7.6      3.973      4.748
REMARK  Name = Taurocholic acid
REMARK  14 active torsions:
REMARK  status: ('A' for Active; 'I' for Inactive)
REMARK    1  A    between atoms: C_2  and  C_28
REMARK    2  A    between atoms: C_9  and  O_10
REMARK    3  A    between atoms: C_15  and  O_16
REMARK    4  A    between atoms: C_19  and  C_20
REMARK    5  A    between atoms: C_24  and  O_25
REMARK    6  A    between atoms: C_26  and  C_27
REMARK    7  A    between atoms: C_28  and  C_29
REMARK    8  A    between atoms: C_28  and  C_30
REMARK    9  A    between atoms: C_30  and  C_31
REMARK   10  A    between atoms: C_31  and  C_32
REMARK   11  A    between atoms: N_34  and  C_35
REMARK   12  A    between atoms: C_35  and  C_36
REMARK   13  A    between atoms: C_36  and  S_37
REMARK   14  A    between atoms: S_37  and  O_38
REMARK                            x       y       z     vdW  Elec       q    Type
REMARK                         _______ _______ _______ _____ _____    ______ ____
ROOT
ATOM      1  C   UNL     1      -6.857   2.640 132.590  0.00  0.00    +0.000 C 
ATOM      2  C   UNL     1      -5.303   2.796 132.764  0.00  0.00    +0.000 C 
ATOM      3  C   UNL     1      -4.630   1.583 132.108  0.00  0.00    +0.000 C 
ATOM      4  C   UNL     1      -5.745   0.959 131.284  0.00  0.00    +0.000 C 
ATOM      5  C   UNL     1      -5.584  -0.504 130.839  0.00  0.00    +0.000 C 
ATOM      6  C   UNL     1      -4.286  -0.719 130.067  0.00  0.00    +0.000 C 
ATOM      7  C   UNL     1      -4.201  -2.132 129.490  0.00  0.00    +0.000 C 
ATOM      8  C   UNL     1      -5.456  -2.624 128.732  0.00  0.00    +0.000 C 
ATOM      9  C   UNL     1      -5.544  -1.973 127.338  0.00  0.00    +0.000 C 
ATOM     10  C   UNL     1      -6.776  -2.388 126.546  0.00  0.00    +0.000 C 
ATOM     11  C   UNL     1      -8.046  -2.117 127.341  0.00  0.00    +0.000 C 
ATOM     12  C   UNL     1      -7.989  -2.838 128.682  0.00  0.00    +0.000 C 
ATOM     13  C   UNL     1      -6.760  -2.440 129.555  0.00  0.00    +0.000 C 
ATOM     14  C   UNL     1      -6.766  -3.398 130.777  0.00  0.00    +0.000 C 
ATOM     15  C   UNL     1      -6.828  -0.954 130.008  0.00  0.00    +0.000 C 
ATOM     16  C   UNL     1      -8.128  -0.666 130.729  0.00  0.00    +0.000 C 
ATOM     17  C   UNL     1      -8.204   0.776 131.164  0.00  0.00    +0.000 C 
ATOM     18  C   UNL     1      -7.011   1.140 132.153  0.00  0.00    +0.000 C 
ATOM     19  C   UNL     1      -6.877   0.232 133.440  0.00  0.00    +0.000 C 
ENDROOT
BRANCH   6  20
ATOM     20  O   UNL     1      -4.103   0.264 129.056  0.00  0.00    +0.000 OA
ATOM     21  H   UNL     1      -4.603   0.014 128.268  0.00  0.00    +0.000 HD
ENDBRANCH   6  20
BRANCH  10  22
ATOM     22  O   UNL     1      -6.812  -1.649 125.330  0.00  0.00    +0.000 OA
ATOM     23  H   UNL     1      -5.903  -1.400 125.092  0.00  0.00    +0.000 HD
ENDBRANCH  10  22
BRANCH  17  24
ATOM     24  O   UNL     1      -8.368   1.688 130.087  0.00  0.00    +0.000 OA
ATOM     25  H   UNL     1      -9.236   1.595 129.678  0.00  0.00    +0.000 HD
ENDBRANCH  17  24
BRANCH   1  26
ATOM     26  C   UNL     1      -7.629   3.104 133.885  0.00  0.00    +0.000 C 
ATOM     27  C   UNL     1      -6.932   4.309 134.533  0.00  0.00    +0.000 C 
BRANCH  26  28
ATOM     28  C   UNL     1      -9.134   3.495 133.697  0.00  0.00    +0.000 C 
BRANCH  28  29
ATOM     29  C   UNL     1      -9.361   4.927 133.257  0.00  0.00    +0.000 C 
BRANCH  29  30
ATOM     30  C   UNL     1      -9.628   5.210 131.798  0.00  0.00    +0.000 C 
ATOM     31  O   UNL     1      -9.669   4.316 130.960  0.00  0.00    +0.000 OA
ATOM     32  N   UNL     1      -9.738   6.559 131.456  0.00  0.00    +0.000 N 
ATOM     33  H   UNL     1      -9.867   7.278 132.161  0.00  0.00    +0.000 HD
BRANCH  32  34
ATOM     34  C   UNL     1      -9.763   6.897 130.041  0.00  0.00    +0.000 C 
BRANCH  34  35
ATOM     35  C   UNL     1     -10.934   7.744 129.582  0.00  0.00    +0.000 C 
BRANCH  35  36
ATOM     36  S   UNL     1     -12.496   6.909 129.864  0.00  0.00    +0.000 S 
ATOM     37  O   UNL     1     -12.753   6.839 131.296  0.00  0.00    +0.000 OA
ATOM     38  O   UNL     1     -13.470   7.405 128.935  0.00  0.00    +0.000 OA
BRANCH  36  39
ATOM     39  O   UNL     1     -12.057   5.424 129.398  0.00  0.00    +0.000 OA
ATOM     40  H   UNL     1     -11.091   5.379 129.235  0.00  0.00    +0.000 HD
ENDBRANCH  36  39
ENDBRANCH  35  36
ENDBRANCH  34  35
ENDBRANCH  32  34
ENDBRANCH  29  30
ENDBRANCH  28  29
ENDBRANCH  26  28
ENDBRANCH   1  26
TORSDOF 11
ENDMDL
MODEL 8
REMARK VINA RESULT:      -7.6      3.085      7.212
REMARK  Name = Taurocholic acid
REMARK  14 active torsions:
REMARK  status: ('A' for Active; 'I' for Inactive)
REMARK    1  A    between atoms: C_2  and  C_28
REMARK    2  A    between atoms: C_9  and  O_10
REMARK    3  A    between atoms: C_15  and  O_16
REMARK    4  A    between atoms: C_19  and  C_20
REMARK    5  A    between atoms: C_24  and  O_25
REMARK    6  A    between atoms: C_26  and  C_27
REMARK    7  A    between atoms: C_28  and  C_29
REMARK    8  A    between atoms: C_28  and  C_30
REMARK    9  A    between atoms: C_30  and  C_31
REMARK   10  A    between atoms: C_31  and  C_32
REMARK   11  A    between atoms: N_34  and  C_35
REMARK   12  A    between atoms: C_35  and  C_36
REMARK   13  A    between atoms: C_36  and  S_37
REMARK   14  A    between atoms: S_37  and  O_38
REMARK                            x       y       z     vdW  Elec       q    Type
REMARK                         _______ _______ _______ _____ _____    ______ ____
ROOT
ATOM      1  C   UNL     1      -7.016   0.663 128.600  0.00  0.00    +0.000 C 
ATOM      2  C   UNL     1      -7.502  -0.341 129.707  0.00  0.00    +0.000 C 
ATOM      3  C   UNL     1      -7.998   0.481 130.904  0.00  0.00    +0.000 C 
ATOM      4  C   UNL     1      -8.122   1.888 130.344  0.00  0.00    +0.000 C 
ATOM      5  C   UNL     1      -8.167   3.061 131.337  0.00  0.00    +0.000 C 
ATOM      6  C   UNL     1      -9.284   2.890 132.362  0.00  0.00    +0.000 C 
ATOM      7  C   UNL     1      -9.429   4.127 133.248  0.00  0.00    +0.000 C 
ATOM      8  C   UNL     1      -9.478   5.482 132.506  0.00  0.00    +0.000 C 
ATOM      9  C   UNL     1     -10.854   5.695 131.844  0.00  0.00    +0.000 C 
ATOM     10  C   UNL     1     -10.962   6.999 131.066  0.00  0.00    +0.000 C 
ATOM     11  C   UNL     1      -9.851   7.105 130.030  0.00  0.00    +0.000 C 
ATOM     12  C   UNL     1      -8.491   6.983 130.705  0.00  0.00    +0.000 C 
ATOM     13  C   UNL     1      -8.305   5.655 131.502  0.00  0.00    +0.000 C 
ATOM     14  C   UNL     1      -6.959   5.791 132.265  0.00  0.00    +0.000 C 
ATOM     15  C   UNL     1      -8.296   4.414 130.567  0.00  0.00    +0.000 C 
ATOM     16  C   UNL     1      -7.243   4.557 129.487  0.00  0.00    +0.000 C 
ATOM     17  C   UNL     1      -7.234   3.359 128.571  0.00  0.00    +0.000 C 
ATOM     18  C   UNL     1      -6.923   2.023 129.377  0.00  0.00    +0.000 C 
ATOM     19  C   UNL     1      -5.587   2.019 130.223  0.00  0.00    +0.000 C 
ENDROOT
BRANCH   6  20
ATOM     20  O   UNL     1     -10.519   2.547 131.745  0.00  0.00    +0.000 OA
ATOM     21  H   UNL     1     -10.348   2.099 130.906  0.00  0.00    +0.000 HD
ENDBRANCH   6  20
BRANCH  10  22
ATOM     22  O   UNL     1     -12.226   7.041 130.410  0.00  0.00    +0.000 OA
ATOM     23  H   UNL     1     -12.230   6.372 129.704  0.00  0.00    +0.000 HD
ENDBRANCH  10  22
BRANCH  17  24
ATOM     24  O   UNL     1      -8.374   3.279 127.727  0.00  0.00    +0.000 OA
ATOM     25  H   UNL     1      -8.158   2.863 126.884  0.00  0.00    +0.000 HD
ENDBRANCH  17  24
BRANCH   1  26
ATOM     26  C   UNL     1      -5.710   0.141 127.885  0.00  0.00    +0.000 C 
ATOM     27  C   UNL     1      -5.540  -1.371 128.095  0.00  0.00    +0.000 C 
BRANCH  26  28
ATOM     28  C   UNL     1      -5.605   0.401 126.345  0.00  0.00    +0.000 C 
BRANCH  28  29
ATOM     29  C   UNL     1      -5.198   1.812 125.971  0.00  0.00    +0.000 C 
BRANCH  29  30
ATOM     30  C   UNL     1      -6.097   2.617 125.065  0.00  0.00    +0.000 C 
ATOM     31  O   UNL     1      -5.734   3.674 124.561  0.00  0.00    +0.000 OA
ATOM     32  N   UNL     1      -7.395   2.124 124.911  0.00  0.00    +0.000 N 
ATOM     33  H   UNL     1      -7.642   1.179 125.189  0.00  0.00    +0.000 HD
BRANCH  32  34
ATOM     34  C   UNL     1      -8.366   2.975 124.241  0.00  0.00    +0.000 C 
BRANCH  34  35
ATOM     35  C   UNL     1      -9.066   2.368 123.042  0.00  0.00    +0.000 C 
BRANCH  35  36
ATOM     36  S   UNL     1      -9.826   0.796 123.455  0.00  0.00    +0.000 S 
ATOM     37  O   UNL     1     -10.239   0.813 124.851  0.00  0.00    +0.000 OA
ATOM     38  O   UNL     1     -10.717   0.412 122.399  0.00  0.00    +0.000 OA
BRANCH  36  39
ATOM     39  O   UNL     1      -8.505  -0.134 123.372  0.00  0.00    +0.000 OA
ATOM     40  H   UNL     1      -8.625  -0.855 122.718  0.00  0.00    +0.000 HD
ENDBRANCH  36  39
ENDBRANCH  35  36
ENDBRANCH  34  35
ENDBRANCH  32  34
ENDBRANCH  29  30
ENDBRANCH  28  29
ENDBRANCH  26  28
ENDBRANCH   1  26
TORSDOF 11
ENDMDL
MODEL 9
REMARK VINA RESULT:      -7.6      1.844      2.621
REMARK  Name = Taurocholic acid
REMARK  14 active torsions:
REMARK  status: ('A' for Active; 'I' for Inactive)
REMARK    1  A    between atoms: C_2  and  C_28
REMARK    2  A    between atoms: C_9  and  O_10
REMARK    3  A    between atoms: C_15  and  O_16
REMARK    4  A    between atoms: C_19  and  C_20
REMARK    5  A    between atoms: C_24  and  O_25
REMARK    6  A    between atoms: C_26  and  C_27
REMARK    7  A    between atoms: C_28  and  C_29
REMARK    8  A    between atoms: C_28  and  C_30
REMARK    9  A    between atoms: C_30  and  C_31
REMARK   10  A    between atoms: C_31  and  C_32
REMARK   11  A    between atoms: N_34  and  C_35
REMARK   12  A    between atoms: C_35  and  C_36
REMARK   13  A    between atoms: C_36  and  S_37
REMARK   14  A    between atoms: S_37  and  O_38
REMARK                            x       y       z     vdW  Elec       q    Type
REMARK                         _______ _______ _______ _____ _____    ______ ____
ROOT
ATOM      1  C   UNL     1      -7.327   3.598 131.273  0.00  0.00    +0.000 C 
ATOM      2  C   UNL     1      -6.185   4.676 131.332  0.00  0.00    +0.000 C 
ATOM      3  C   UNL     1      -5.407   4.610 130.010  0.00  0.00    +0.000 C 
ATOM      4  C   UNL     1      -6.305   3.780 129.108  0.00  0.00    +0.000 C 
ATOM      5  C   UNL     1      -5.680   3.132 127.862  0.00  0.00    +0.000 C 
ATOM      6  C   UNL     1      -4.990   4.164 126.976  0.00  0.00    +0.000 C 
ATOM      7  C   UNL     1      -4.506   3.547 125.663  0.00  0.00    +0.000 C 
ATOM      8  C   UNL     1      -5.541   2.680 124.908  0.00  0.00    +0.000 C 
ATOM      9  C   UNL     1      -6.585   3.567 124.200  0.00  0.00    +0.000 C 
ATOM     10  C   UNL     1      -7.656   2.777 123.462  0.00  0.00    +0.000 C 
ATOM     11  C   UNL     1      -8.342   1.790 124.397  0.00  0.00    +0.000 C 
ATOM     12  C   UNL     1      -7.312   0.860 125.024  0.00  0.00    +0.000 C 
ATOM     13  C   UNL     1      -6.196   1.605 125.818  0.00  0.00    +0.000 C 
ATOM     14  C   UNL     1      -5.152   0.527 126.216  0.00  0.00    +0.000 C 
ATOM     15  C   UNL     1      -6.762   2.328 127.072  0.00  0.00    +0.000 C 
ATOM     16  C   UNL     1      -7.513   1.360 127.963  0.00  0.00    +0.000 C 
ATOM     17  C   UNL     1      -8.071   2.056 129.179  0.00  0.00    +0.000 C 
ATOM     18  C   UNL     1      -6.910   2.711 130.047  0.00  0.00    +0.000 C 
ATOM     19  C   UNL     1      -5.757   1.734 130.512  0.00  0.00    +0.000 C 
ENDROOT
BRANCH   6  20
ATOM     20  O   UNL     1      -5.817   5.296 126.740  0.00  0.00    +0.000 OA
ATOM     21  H   UNL     1      -6.638   5.207 127.242  0.00  0.00    +0.000 HD
ENDBRANCH   6  20
BRANCH  10  22
ATOM     22  O   UNL     1      -8.622   3.686 122.942  0.00  0.00    +0.000 OA
ATOM     23  H   UNL     1      -8.196   4.232 122.259  0.00  0.00    +0.000 HD
ENDBRANCH  10  22
BRANCH  17  24
ATOM     24  O   UNL     1      -9.149   2.935 128.887  0.00  0.00    +0.000 OA
ATOM     25  H   UNL     1      -8.941   3.509 128.141  0.00  0.00    +0.000 HD
ENDBRANCH  17  24
BRANCH   1  26
ATOM     26  C   UNL     1      -7.507   2.877 132.665  0.00  0.00    +0.000 C 
ATOM     27  C   UNL     1      -6.608   3.519 133.732  0.00  0.00    +0.000 C 
BRANCH  26  28
ATOM     28  C   UNL     1      -8.959   2.846 133.252  0.00  0.00    +0.000 C 
BRANCH  28  29
ATOM     29  C   UNL     1      -9.422   4.156 133.856  0.00  0.00    +0.000 C 
BRANCH  29  30
ATOM     30  C   UNL     1      -9.674   5.333 132.945  0.00  0.00    +0.000 C 
ATOM     31  O   UNL     1      -9.029   6.372 133.033  0.00  0.00    +0.000 OA
ATOM     32  N   UNL     1     -10.743   5.191 132.058  0.00  0.00    +0.000 N 
ATOM     33  H   UNL     1     -11.164   4.286 131.873  0.00  0.00    +0.000 HD
BRANCH  32  34
ATOM     34  C   UNL     1     -11.173   6.371 131.323  0.00  0.00    +0.000 C 
BRANCH  34  35
ATOM     35  C   UNL     1     -11.327   6.200 129.825  0.00  0.00    +0.000 C 
BRANCH  35  36
ATOM     36  S   UNL     1      -9.880   6.796 128.947  0.00  0.00    +0.000 S 
ATOM     37  O   UNL     1      -9.231   5.680 128.274  0.00  0.00    +0.000 OA
ATOM     38  O   UNL     1     -10.213   8.012 128.263  0.00  0.00    +0.000 OA
BRANCH  36  39
ATOM     39  O   UNL     1      -8.963   7.165 130.227  0.00  0.00    +0.000 OA
ATOM     40  H   UNL     1      -8.017   6.980 130.045  0.00  0.00    +0.000 HD
ENDBRANCH  36  39
ENDBRANCH  35  36
ENDBRANCH  34  35
ENDBRANCH  32  34
ENDBRANCH  29  30
ENDBRANCH  28  29
ENDBRANCH  26  28
ENDBRANCH   1  26
TORSDOF 11
ENDMDL
