MODEL 1
REMARK VINA RESULT:      -7.4      0.000      0.000
REMARK  Name = Tazarotene
REMARK  8 active torsions:
REMARK  status: ('A' for Active; 'I' for Inactive)
REMARK    1  A    between atoms: C_1  and  C_2
REMARK    2  A    between atoms: C_2  and  O_3
REMARK    3  A    between atoms: O_3  and  C_4
REMARK    4  A    between atoms: C_4  and  C_6
REMARK    5  A    between atoms: C_9  and  C_12
REMARK    6  A    between atoms: C_13  and  C_14
REMARK    7  A    between atoms: C_21  and  C_22
REMARK    8  A    between atoms: C_21  and  C_23
REMARK                            x       y       z     vdW  Elec       q    Type
REMARK                         _______ _______ _______ _____ _____    ______ ____
ROOT
ATOM      1  C   UNL     1      -9.421   2.567 131.244  0.00  0.00    +0.000 C 
ATOM      2  C   UNL     1      -8.866   1.483 131.330  0.00  0.00    +0.000 C 
ENDROOT
BRANCH   2   3
ATOM      3  C   UNL     1      -8.163   0.212 131.481  0.00  0.00    +0.000 A 
ATOM      4  C   UNL     1      -7.880  -0.640 130.396  0.00  0.00    +0.000 A 
ATOM      5  C   UNL     1      -7.092  -1.833 130.527  0.00  0.00    +0.000 A 
ATOM      6  C   UNL     1      -6.621  -2.170 131.810  0.00  0.00    +0.000 A 
ATOM      7  S   UNL     1      -5.577  -3.561 132.221  0.00  0.00    +0.000 S 
ATOM      8  C   UNL     1      -5.803  -4.566 130.750  0.00  0.00    +0.000 C 
ATOM      9  C   UNL     1      -5.605  -3.695 129.520  0.00  0.00    +0.000 C 
ATOM     10  C   UNL     1      -6.781  -2.702 129.292  0.00  0.00    +0.000 C 
ATOM     11  C   UNL     1      -6.386  -1.805 128.095  0.00  0.00    +0.000 C 
ATOM     12  C   UNL     1      -8.039  -3.510 128.904  0.00  0.00    +0.000 C 
ATOM     13  C   UNL     1      -6.944  -1.352 132.895  0.00  0.00    +0.000 A 
ATOM     14  C   UNL     1      -7.703  -0.184 132.736  0.00  0.00    +0.000 A 
ENDBRANCH   2   3
BRANCH   1  18
ATOM     15  C   UNL     1     -11.530   6.266 130.876  0.00  0.00    +0.000 A 
ATOM     16  C   UNL     1     -11.686   5.199 130.001  0.00  0.00    +0.000 A 
ATOM     17  N   UNL     1     -11.011   3.991 130.099  0.00  0.00    +0.000 NA
ATOM     18  C   UNL     1     -10.067   3.864 131.069  0.00  0.00    +0.000 A 
ATOM     19  C   UNL     1      -9.758   4.932 131.903  0.00  0.00    +0.000 A 
ATOM     20  C   UNL     1     -10.526   6.112 131.837  0.00  0.00    +0.000 A 
BRANCH  15  21
ATOM     21  C   UNL     1     -12.243   7.583 130.791  0.00  0.00    +0.000 C 
ATOM     22  O   UNL     1     -13.124   7.872 131.590  0.00  0.00    +0.000 OA
BRANCH  21  23
ATOM     23  O   UNL     1     -11.886   8.356 129.725  0.00  0.00    +0.000 OA
BRANCH  23  25
ATOM     24  C   UNL     1     -13.566   7.776 128.043  0.00  0.00    +0.000 C 
ATOM     25  C   UNL     1     -13.010   8.865 128.952  0.00  0.00    +0.000 C 
ENDBRANCH  23  25
ENDBRANCH  21  23
ENDBRANCH  15  21
ENDBRANCH   1  18
TORSDOF 5
ENDMDL
MODEL 2
REMARK VINA RESULT:      -7.1      1.539      1.803
REMARK  Name = Tazarotene
REMARK  8 active torsions:
REMARK  status: ('A' for Active; 'I' for Inactive)
REMARK    1  A    between atoms: C_1  and  C_2
REMARK    2  A    between atoms: C_2  and  O_3
REMARK    3  A    between atoms: O_3  and  C_4
REMARK    4  A    between atoms: C_4  and  C_6
REMARK    5  A    between atoms: C_9  and  C_12
REMARK    6  A    between atoms: C_13  and  C_14
REMARK    7  A    between atoms: C_21  and  C_22
REMARK    8  A    between atoms: C_21  and  C_23
REMARK                            x       y       z     vdW  Elec       q    Type
REMARK                         _______ _______ _______ _____ _____    ______ ____
ROOT
ATOM      1  C   UNL     1      -8.575   3.118 130.818  0.00  0.00    +0.000 C 
ATOM      2  C   UNL     1      -7.790   2.184 130.853  0.00  0.00    +0.000 C 
ENDROOT
BRANCH   2   3
ATOM      3  C   UNL     1      -6.813   1.098 130.850  0.00  0.00    +0.000 A 
ATOM      4  C   UNL     1      -7.180  -0.262 130.854  0.00  0.00    +0.000 A 
ATOM      5  C   UNL     1      -6.224  -1.327 130.738  0.00  0.00    +0.000 A 
ATOM      6  C   UNL     1      -4.862  -0.980 130.654  0.00  0.00    +0.000 A 
ATOM      7  S   UNL     1      -3.494  -2.110 130.445  0.00  0.00    +0.000 S 
ATOM      8  C   UNL     1      -4.288  -3.651 130.913  0.00  0.00    +0.000 C 
ATOM      9  C   UNL     1      -5.609  -3.774 130.170  0.00  0.00    +0.000 C 
ATOM     10  C   UNL     1      -6.693  -2.795 130.705  0.00  0.00    +0.000 C 
ATOM     11  C   UNL     1      -7.925  -2.941 129.781  0.00  0.00    +0.000 C 
ATOM     12  C   UNL     1      -7.094  -3.237 132.130  0.00  0.00    +0.000 C 
ATOM     13  C   UNL     1      -4.495   0.368 130.701  0.00  0.00    +0.000 A 
ATOM     14  C   UNL     1      -5.450   1.388 130.800  0.00  0.00    +0.000 A 
ENDBRANCH   2   3
BRANCH   1  18
ATOM     15  C   UNL     1     -11.630   6.107 130.828  0.00  0.00    +0.000 A 
ATOM     16  C   UNL     1     -11.662   4.974 130.025  0.00  0.00    +0.000 A 
ATOM     17  N   UNL     1     -10.682   3.993 130.003  0.00  0.00    +0.000 NA
ATOM     18  C   UNL     1      -9.567   4.187 130.757  0.00  0.00    +0.000 A 
ATOM     19  C   UNL     1      -9.399   5.358 131.487  0.00  0.00    +0.000 A 
ATOM     20  C   UNL     1     -10.453   6.290 131.560  0.00  0.00    +0.000 A 
BRANCH  15  21
ATOM     21  C   UNL     1     -12.672   7.185 130.868  0.00  0.00    +0.000 C 
ATOM     22  O   UNL     1     -13.162   7.544 131.930  0.00  0.00    +0.000 OA
BRANCH  21  23
ATOM     23  O   UNL     1     -13.066   7.643 129.644  0.00  0.00    +0.000 OA
BRANCH  23  25
ATOM     24  C   UNL     1     -11.419   8.460 128.029  0.00  0.00    +0.000 C 
ATOM     25  C   UNL     1     -12.343   8.820 129.185  0.00  0.00    +0.000 C 
ENDBRANCH  23  25
ENDBRANCH  21  23
ENDBRANCH  15  21
ENDBRANCH   1  18
TORSDOF 5
ENDMDL
MODEL 3
REMARK VINA RESULT:      -7.1      6.749      8.126
REMARK  Name = Tazarotene
REMARK  8 active torsions:
REMARK  status: ('A' for Active; 'I' for Inactive)
REMARK    1  A    between atoms: C_1  and  C_2
REMARK    2  A    between atoms: C_2  and  O_3
REMARK    3  A    between atoms: O_3  and  C_4
REMARK    4  A    between atoms: C_4  and  C_6
REMARK    5  A    between atoms: C_9  and  C_12
REMARK    6  A    between atoms: C_13  and  C_14
REMARK    7  A    between atoms: C_21  and  C_22
REMARK    8  A    between atoms: C_21  and  C_23
REMARK                            x       y       z     vdW  Elec       q    Type
REMARK                         _______ _______ _______ _____ _____    ______ ____
ROOT
ATOM      1  C   UNL     1      -7.282  -3.061 128.473  0.00  0.00    +0.000 C 
ATOM      2  C   UNL     1      -6.906  -3.458 129.564  0.00  0.00    +0.000 C 
ENDROOT
BRANCH   2   3
ATOM      3  C   UNL     1      -6.402  -3.895 130.864  0.00  0.00    +0.000 A 
ATOM      4  C   UNL     1      -6.886  -3.384 132.084  0.00  0.00    +0.000 A 
ATOM      5  C   UNL     1      -6.471  -3.894 133.361  0.00  0.00    +0.000 A 
ATOM      6  C   UNL     1      -5.512  -4.923 133.376  0.00  0.00    +0.000 A 
ATOM      7  S   UNL     1      -4.883  -5.760 134.824  0.00  0.00    +0.000 S 
ATOM      8  C   UNL     1      -5.377  -4.595 136.097  0.00  0.00    +0.000 C 
ATOM      9  C   UNL     1      -6.841  -4.234 135.898  0.00  0.00    +0.000 C 
ATOM     10  C   UNL     1      -7.070  -3.320 134.660  0.00  0.00    +0.000 C 
ATOM     11  C   UNL     1      -8.600  -3.144 134.510  0.00  0.00    +0.000 C 
ATOM     12  C   UNL     1      -6.444  -1.937 134.947  0.00  0.00    +0.000 C 
ATOM     13  C   UNL     1      -4.995  -5.396 132.167  0.00  0.00    +0.000 A 
ATOM     14  C   UNL     1      -5.429  -4.891 130.934  0.00  0.00    +0.000 A 
ENDBRANCH   2   3
BRANCH   1  18
ATOM     15  C   UNL     1      -8.419  -2.053 124.478  0.00  0.00    +0.000 A 
ATOM     16  C   UNL     1      -7.367  -1.451 125.156  0.00  0.00    +0.000 A 
ATOM     17  N   UNL     1      -6.981  -1.759 126.452  0.00  0.00    +0.000 NA
ATOM     18  C   UNL     1      -7.734  -2.655 127.146  0.00  0.00    +0.000 A 
ATOM     19  C   UNL     1      -8.880  -3.205 126.584  0.00  0.00    +0.000 A 
ATOM     20  C   UNL     1      -9.190  -2.941 125.235  0.00  0.00    +0.000 A 
BRANCH  15  21
ATOM     21  C   UNL     1      -8.859  -1.736 123.080  0.00  0.00    +0.000 C 
ATOM     22  O   UNL     1      -8.119  -1.945 122.128  0.00  0.00    +0.000 OA
BRANCH  21  23
ATOM     23  O   UNL     1     -10.080  -1.134 122.990  0.00  0.00    +0.000 OA
BRANCH  23  25
ATOM     24  C   UNL     1      -9.822   1.252 123.471  0.00  0.00    +0.000 C 
ATOM     25  C   UNL     1     -10.049   0.195 122.397  0.00  0.00    +0.000 C 
ENDBRANCH  23  25
ENDBRANCH  21  23
ENDBRANCH  15  21
ENDBRANCH   1  18
TORSDOF 5
ENDMDL
MODEL 4
REMARK VINA RESULT:      -6.9      8.150     10.384
REMARK  Name = Tazarotene
REMARK  8 active torsions:
REMARK  status: ('A' for Active; 'I' for Inactive)
REMARK    1  A    between atoms: C_1  and  C_2
REMARK    2  A    between atoms: C_2  and  O_3
REMARK    3  A    between atoms: O_3  and  C_4
REMARK    4  A    between atoms: C_4  and  C_6
REMARK    5  A    between atoms: C_9  and  C_12
REMARK    6  A    between atoms: C_13  and  C_14
REMARK    7  A    between atoms: C_21  and  C_22
REMARK    8  A    between atoms: C_21  and  C_23
REMARK                            x       y       z     vdW  Elec       q    Type
REMARK                         _______ _______ _______ _____ _____    ______ ____
ROOT
ATOM      1  C   UNL     1      -6.933  -3.545 130.230  0.00  0.00    +0.000 C 
ATOM      2  C   UNL     1      -7.285  -3.331 129.082  0.00  0.00    +0.000 C 
ENDROOT
BRANCH   2   3
ATOM      3  C   UNL     1      -7.770  -3.087 127.725  0.00  0.00    +0.000 A 
ATOM      4  C   UNL     1      -6.970  -2.512 126.718  0.00  0.00    +0.000 A 
ATOM      5  C   UNL     1      -7.409  -2.376 125.358  0.00  0.00    +0.000 A 
ATOM      6  C   UNL     1      -8.710  -2.807 125.042  0.00  0.00    +0.000 A 
ATOM      7  S   UNL     1      -9.463  -2.800 123.422  0.00  0.00    +0.000 S 
ATOM      8  C   UNL     1      -8.363  -1.663 122.572  0.00  0.00    +0.000 C 
ATOM      9  C   UNL     1      -6.924  -2.077 122.835  0.00  0.00    +0.000 C 
ATOM     10  C   UNL     1      -6.469  -1.777 124.292  0.00  0.00    +0.000 C 
ATOM     11  C   UNL     1      -5.045  -2.362 124.448  0.00  0.00    +0.000 C 
ATOM     12  C   UNL     1      -6.393  -0.246 124.478  0.00  0.00    +0.000 C 
ATOM     13  C   UNL     1      -9.522  -3.331 126.052  0.00  0.00    +0.000 A 
ATOM     14  C   UNL     1      -9.063  -3.466 127.369  0.00  0.00    +0.000 A 
ENDBRANCH   2   3
BRANCH   1  18
ATOM     15  C   UNL     1      -5.774  -4.634 134.197  0.00  0.00    +0.000 A 
ATOM     16  C   UNL     1      -6.732  -3.670 133.911  0.00  0.00    +0.000 A 
ATOM     17  N   UNL     1      -7.122  -3.298 132.633  0.00  0.00    +0.000 NA
ATOM     18  C   UNL     1      -6.466  -3.853 131.578  0.00  0.00    +0.000 A 
ATOM     19  C   UNL     1      -5.406  -4.728 131.783  0.00  0.00    +0.000 A 
ATOM     20  C   UNL     1      -5.097  -5.155 133.090  0.00  0.00    +0.000 A 
BRANCH  15  21
ATOM     21  C   UNL     1      -5.330  -5.050 135.568  0.00  0.00    +0.000 C 
ATOM     22  O   UNL     1      -4.174  -5.393 135.776  0.00  0.00    +0.000 OA
BRANCH  21  23
ATOM     23  O   UNL     1      -6.326  -5.091 136.501  0.00  0.00    +0.000 OA
BRANCH  23  25
ATOM     24  C   UNL     1      -8.196  -6.662 136.361  0.00  0.00    +0.000 C 
ATOM     25  C   UNL     1      -6.769  -6.434 136.843  0.00  0.00    +0.000 C 
ENDBRANCH  23  25
ENDBRANCH  21  23
ENDBRANCH  15  21
ENDBRANCH   1  18
TORSDOF 5
ENDMDL
MODEL 5
REMARK VINA RESULT:      -6.8      7.456      8.800
REMARK  Name = Tazarotene
REMARK  8 active torsions:
REMARK  status: ('A' for Active; 'I' for Inactive)
REMARK    1  A    between atoms: C_1  and  C_2
REMARK    2  A    between atoms: C_2  and  O_3
REMARK    3  A    between atoms: O_3  and  C_4
REMARK    4  A    between atoms: C_4  and  C_6
REMARK    5  A    between atoms: C_9  and  C_12
REMARK    6  A    between atoms: C_13  and  C_14
REMARK    7  A    between atoms: C_21  and  C_22
REMARK    8  A    between atoms: C_21  and  C_23
REMARK                            x       y       z     vdW  Elec       q    Type
REMARK                         _______ _______ _______ _____ _____    ______ ____
ROOT
ATOM      1  C   UNL     1      -6.649  -3.663 130.205  0.00  0.00    +0.000 C 
ATOM      2  C   UNL     1      -6.200  -4.057 131.269  0.00  0.00    +0.000 C 
ENDROOT
BRANCH   2   3
ATOM      3  C   UNL     1      -5.605  -4.544 132.511  0.00  0.00    +0.000 A 
ATOM      4  C   UNL     1      -6.336  -4.684 133.707  0.00  0.00    +0.000 A 
ATOM      5  C   UNL     1      -5.781  -5.268 134.896  0.00  0.00    +0.000 A 
ATOM      6  C   UNL     1      -4.435  -5.677 134.858  0.00  0.00    +0.000 A 
ATOM      7  S   UNL     1      -3.537  -6.479 136.178  0.00  0.00    +0.000 S 
ATOM      8  C   UNL     1      -4.610  -6.093 137.565  0.00  0.00    +0.000 C 
ATOM      9  C   UNL     1      -6.044  -6.431 137.191  0.00  0.00    +0.000 C 
ATOM     10  C   UNL     1      -6.646  -5.433 136.160  0.00  0.00    +0.000 C 
ATOM     11  C   UNL     1      -8.047  -5.970 135.781  0.00  0.00    +0.000 C 
ATOM     12  C   UNL     1      -6.818  -4.060 136.848  0.00  0.00    +0.000 C 
ATOM     13  C   UNL     1      -3.694  -5.491 133.687  0.00  0.00    +0.000 A 
ATOM     14  C   UNL     1      -4.267  -4.933 132.536  0.00  0.00    +0.000 A 
ENDBRANCH   2   3
BRANCH   1  18
ATOM     15  C   UNL     1      -8.220  -2.609 126.372  0.00  0.00    +0.000 A 
ATOM     16  C   UNL     1      -7.072  -2.047 126.916  0.00  0.00    +0.000 A 
ATOM     17  N   UNL     1      -6.546  -2.371 128.158  0.00  0.00    +0.000 NA
ATOM     18  C   UNL     1      -7.242  -3.240 128.940  0.00  0.00    +0.000 A 
ATOM     19  C   UNL     1      -8.467  -3.745 128.522  0.00  0.00    +0.000 A 
ATOM     20  C   UNL     1      -8.927  -3.469 127.219  0.00  0.00    +0.000 A 
BRANCH  15  21
ATOM     21  C   UNL     1      -8.813  -2.274 125.036  0.00  0.00    +0.000 C 
ATOM     22  O   UNL     1      -9.743  -2.927 124.581  0.00  0.00    +0.000 OA
BRANCH  21  23
ATOM     23  O   UNL     1      -8.180  -1.266 124.368  0.00  0.00    +0.000 OA
BRANCH  23  25
ATOM     24  C   UNL     1      -6.317  -2.014 122.968  0.00  0.00    +0.000 C 
ATOM     25  C   UNL     1      -7.785  -1.605 123.009  0.00  0.00    +0.000 C 
ENDBRANCH  23  25
ENDBRANCH  21  23
ENDBRANCH  15  21
ENDBRANCH   1  18
TORSDOF 5
ENDMDL
MODEL 6
REMARK VINA RESULT:      -6.8      5.882      7.807
REMARK  Name = Tazarotene
REMARK  8 active torsions:
REMARK  status: ('A' for Active; 'I' for Inactive)
REMARK    1  A    between atoms: C_1  and  C_2
REMARK    2  A    between atoms: C_2  and  O_3
REMARK    3  A    between atoms: O_3  and  C_4
REMARK    4  A    between atoms: C_4  and  C_6
REMARK    5  A    between atoms: C_9  and  C_12
REMARK    6  A    between atoms: C_13  and  C_14
REMARK    7  A    between atoms: C_21  and  C_22
REMARK    8  A    between atoms: C_21  and  C_23
REMARK                            x       y       z     vdW  Elec       q    Type
REMARK                         _______ _______ _______ _____ _____    ______ ____
ROOT
ATOM      1  C   UNL     1      -8.465   5.817 133.171  0.00  0.00    +0.000 C 
ATOM      2  C   UNL     1      -7.752   5.548 134.124  0.00  0.00    +0.000 C 
ENDROOT
BRANCH   2   3
ATOM      3  C   UNL     1      -6.862   5.186 135.225  0.00  0.00    +0.000 A 
ATOM      4  C   UNL     1      -6.873   5.849 136.467  0.00  0.00    +0.000 A 
ATOM      5  C   UNL     1      -6.079   5.421 137.585  0.00  0.00    +0.000 A 
ATOM      6  C   UNL     1      -5.231   4.313 137.402  0.00  0.00    +0.000 A 
ATOM      7  S   UNL     1      -4.196   3.557 138.647  0.00  0.00    +0.000 S 
ATOM      8  C   UNL     1      -4.162   4.874 139.867  0.00  0.00    +0.000 C 
ATOM      9  C   UNL     1      -5.583   5.349 140.123  0.00  0.00    +0.000 C 
ATOM     10  C   UNL     1      -6.167   6.164 138.933  0.00  0.00    +0.000 C 
ATOM     11  C   UNL     1      -7.644   6.467 139.279  0.00  0.00    +0.000 C 
ATOM     12  C   UNL     1      -5.404   7.503 138.832  0.00  0.00    +0.000 C 
ATOM     13  C   UNL     1      -5.183   3.686 136.154  0.00  0.00    +0.000 A 
ATOM     14  C   UNL     1      -5.980   4.115 135.084  0.00  0.00    +0.000 A 
ENDBRANCH   2   3
BRANCH   1  18
ATOM     15  C   UNL     1     -11.215   6.914 130.089  0.00  0.00    +0.000 A 
ATOM     16  C   UNL     1     -11.562   6.149 131.196  0.00  0.00    +0.000 A 
ATOM     17  N   UNL     1     -10.687   5.779 132.206  0.00  0.00    +0.000 NA
ATOM     18  C   UNL     1      -9.375   6.115 132.070  0.00  0.00    +0.000 A 
ATOM     19  C   UNL     1      -8.925   6.766 130.928  0.00  0.00    +0.000 A 
ATOM     20  C   UNL     1      -9.854   7.208 129.966  0.00  0.00    +0.000 A 
BRANCH  15  21
ATOM     21  C   UNL     1     -12.139   7.324 128.981  0.00  0.00    +0.000 C 
ATOM     22  O   UNL     1     -11.939   6.959 127.830  0.00  0.00    +0.000 OA
BRANCH  21  23
ATOM     23  O   UNL     1     -13.134   8.180 129.356  0.00  0.00    +0.000 OA
BRANCH  23  25
ATOM     24  C   UNL     1     -13.405  10.573 129.793  0.00  0.00    +0.000 C 
ATOM     25  C   UNL     1     -13.031   9.508 128.769  0.00  0.00    +0.000 C 
ENDBRANCH  23  25
ENDBRANCH  21  23
ENDBRANCH  15  21
ENDBRANCH   1  18
TORSDOF 5
ENDMDL
MODEL 7
REMARK VINA RESULT:      -6.8      6.901      8.379
REMARK  Name = Tazarotene
REMARK  8 active torsions:
REMARK  status: ('A' for Active; 'I' for Inactive)
REMARK    1  A    between atoms: C_1  and  C_2
REMARK    2  A    between atoms: C_2  and  O_3
REMARK    3  A    between atoms: O_3  and  C_4
REMARK    4  A    between atoms: C_4  and  C_6
REMARK    5  A    between atoms: C_9  and  C_12
REMARK    6  A    between atoms: C_13  and  C_14
REMARK    7  A    between atoms: C_21  and  C_22
REMARK    8  A    between atoms: C_21  and  C_23
REMARK                            x       y       z     vdW  Elec       q    Type
REMARK                         _______ _______ _______ _____ _____    ______ ____
ROOT
ATOM      1  C   UNL     1      -7.772  -2.762 129.814  0.00  0.00    +0.000 C 
ATOM      2  C   UNL     1      -7.514  -2.995 130.984  0.00  0.00    +0.000 C 
ENDROOT
BRANCH   2   3
ATOM      3  C   UNL     1      -7.149  -3.236 132.377  0.00  0.00    +0.000 A 
ATOM      4  C   UNL     1      -5.947  -3.866 132.756  0.00  0.00    +0.000 A 
ATOM      5  C   UNL     1      -5.537  -4.002 134.125  0.00  0.00    +0.000 A 
ATOM      6  C   UNL     1      -6.402  -3.512 135.121  0.00  0.00    +0.000 A 
ATOM      7  S   UNL     1      -6.094  -3.508 136.881  0.00  0.00    +0.000 S 
ATOM      8  C   UNL     1      -4.764  -4.711 136.968  0.00  0.00    +0.000 C 
ATOM      9  C   UNL     1      -3.714  -4.365 135.924  0.00  0.00    +0.000 C 
ATOM     10  C   UNL     1      -4.189  -4.664 134.473  0.00  0.00    +0.000 C 
ATOM     11  C   UNL     1      -3.081  -4.148 133.524  0.00  0.00    +0.000 C 
ATOM     12  C   UNL     1      -4.309  -6.194 134.300  0.00  0.00    +0.000 C 
ATOM     13  C   UNL     1      -7.618  -2.932 134.748  0.00  0.00    +0.000 A 
ATOM     14  C   UNL     1      -7.986  -2.799 133.402  0.00  0.00    +0.000 A 
ENDBRANCH   2   3
BRANCH   1  18
ATOM     15  C   UNL     1      -8.416  -2.223 125.623  0.00  0.00    +0.000 A 
ATOM     16  C   UNL     1      -7.942  -1.226 126.465  0.00  0.00    +0.000 A 
ATOM     17  N   UNL     1      -7.728  -1.376 127.827  0.00  0.00    +0.000 NA
ATOM     18  C   UNL     1      -8.083  -2.557 128.403  0.00  0.00    +0.000 A 
ATOM     19  C   UNL     1      -8.687  -3.558 127.652  0.00  0.00    +0.000 A 
ATOM     20  C   UNL     1      -8.804  -3.408 126.255  0.00  0.00    +0.000 A 
BRANCH  15  21
ATOM     21  C   UNL     1      -8.661  -2.085 124.150  0.00  0.00    +0.000 C 
ATOM     22  O   UNL     1      -9.633  -1.472 123.730  0.00  0.00    +0.000 OA
BRANCH  21  23
ATOM     23  O   UNL     1      -7.775  -2.759 123.360  0.00  0.00    +0.000 OA
BRANCH  23  25
ATOM     24  C   UNL     1      -5.342  -2.901 123.578  0.00  0.00    +0.000 C 
ATOM     25  C   UNL     1      -6.524  -2.052 123.127  0.00  0.00    +0.000 C 
ENDBRANCH  23  25
ENDBRANCH  21  23
ENDBRANCH  15  21
ENDBRANCH   1  18
TORSDOF 5
ENDMDL
MODEL 8
REMARK VINA RESULT:      -6.7      1.613      2.267
REMARK  Name = Tazarotene
REMARK  8 active torsions:
REMARK  status: ('A' for Active; 'I' for Inactive)
REMARK    1  A    between atoms: C_1  and  C_2
REMARK    2  A    between atoms: C_2  and  O_3
REMARK    3  A    between atoms: O_3  and  C_4
REMARK    4  A    between atoms: C_4  and  C_6
REMARK    5  A    between atoms: C_9  and  C_12
REMARK    6  A    between atoms: C_13  and  C_14
REMARK    7  A    between atoms: C_21  and  C_22
REMARK    8  A    between atoms: C_21  and  C_23
REMARK                            x       y       z     vdW  Elec       q    Type
REMARK                         _______ _______ _______ _____ _____    ______ ____
ROOT
ATOM      1  C   UNL     1      -8.802   3.147 132.271  0.00  0.00    +0.000 C 
ATOM      2  C   UNL     1      -8.100   2.205 132.601  0.00  0.00    +0.000 C 
ENDROOT
BRANCH   2   3
ATOM      3  C   UNL     1      -7.205   1.113 132.980  0.00  0.00    +0.000 A 
ATOM      4  C   UNL     1      -7.489  -0.239 132.707  0.00  0.00    +0.000 A 
ATOM      5  C   UNL     1      -6.560  -1.300 132.978  0.00  0.00    +0.000 A 
ATOM      6  C   UNL     1      -5.333  -0.960 133.577  0.00  0.00    +0.000 A 
ATOM      7  S   UNL     1      -3.996  -2.082 133.958  0.00  0.00    +0.000 S 
ATOM      8  C   UNL     1      -4.869  -3.648 133.874  0.00  0.00    +0.000 C 
ATOM      9  C   UNL     1      -5.675  -3.698 132.586  0.00  0.00    +0.000 C 
ATOM     10  C   UNL     1      -6.913  -2.756 132.615  0.00  0.00    +0.000 C 
ATOM     11  C   UNL     1      -7.554  -2.815 131.209  0.00  0.00    +0.000 C 
ATOM     12  C   UNL     1      -7.928  -3.308 133.640  0.00  0.00    +0.000 C 
ATOM     13  C   UNL     1      -5.073   0.376 133.896  0.00  0.00    +0.000 A 
ATOM     14  C   UNL     1      -5.992   1.394 133.606  0.00  0.00    +0.000 A 
ENDBRANCH   2   3
BRANCH   1  18
ATOM     15  C   UNL     1     -11.575   6.176 131.086  0.00  0.00    +0.000 A 
ATOM     16  C   UNL     1     -11.300   5.043 130.330  0.00  0.00    +0.000 A 
ATOM     17  N   UNL     1     -10.403   4.049 130.693  0.00  0.00    +0.000 NA
ATOM     18  C   UNL     1      -9.675   4.229 131.828  0.00  0.00    +0.000 A 
ATOM     19  C   UNL     1      -9.797   5.396 132.571  0.00  0.00    +0.000 A 
ATOM     20  C   UNL     1     -10.783   6.343 132.226  0.00  0.00    +0.000 A 
BRANCH  15  21
ATOM     21  C   UNL     1     -12.535   7.266 130.716  0.00  0.00    +0.000 C 
ATOM     22  O   UNL     1     -13.105   7.920 131.580  0.00  0.00    +0.000 OA
BRANCH  21  23
ATOM     23  O   UNL     1     -12.767   7.391 129.377  0.00  0.00    +0.000 OA
BRANCH  23  25
ATOM     24  C   UNL     1     -10.823   8.471 128.354  0.00  0.00    +0.000 C 
ATOM     25  C   UNL     1     -12.272   8.632 128.798  0.00  0.00    +0.000 C 
ENDBRANCH  23  25
ENDBRANCH  21  23
ENDBRANCH  15  21
ENDBRANCH   1  18
TORSDOF 5
ENDMDL
MODEL 9
REMARK VINA RESULT:      -6.7      8.533     11.338
REMARK  Name = Tazarotene
REMARK  8 active torsions:
REMARK  status: ('A' for Active; 'I' for Inactive)
REMARK    1  A    between atoms: C_1  and  C_2
REMARK    2  A    between atoms: C_2  and  O_3
REMARK    3  A    between atoms: O_3  and  C_4
REMARK    4  A    between atoms: C_4  and  C_6
REMARK    5  A    between atoms: C_9  and  C_12
REMARK    6  A    between atoms: C_13  and  C_14
REMARK    7  A    between atoms: C_21  and  C_22
REMARK    8  A    between atoms: C_21  and  C_23
REMARK                            x       y       z     vdW  Elec       q    Type
REMARK                         _______ _______ _______ _____ _____    ______ ____
ROOT
ATOM      1  C   UNL     1      -4.270   7.200 131.620  0.00  0.00    +0.000 C 
ATOM      2  C   UNL     1      -3.352   7.906 132.005  0.00  0.00    +0.000 C 
ENDROOT
BRANCH   2   3
ATOM      3  C   UNL     1      -2.224   8.697 132.492  0.00  0.00    +0.000 A 
ATOM      4  C   UNL     1      -2.221  10.105 132.494  0.00  0.00    +0.000 A 
ATOM      5  C   UNL     1      -1.162  10.881 133.075  0.00  0.00    +0.000 A 
ATOM      6  C   UNL     1      -0.069  10.188 133.628  0.00  0.00    +0.000 A 
ATOM      7  S   UNL     1       1.336  10.918 134.457  0.00  0.00    +0.000 S 
ATOM      8  C   UNL     1       1.184  12.615 133.890  0.00  0.00    +0.000 C 
ATOM      9  C   UNL     1      -0.250  13.078 134.089  0.00  0.00    +0.000 C 
ATOM     10  C   UNL     1      -1.238  12.421 133.084  0.00  0.00    +0.000 C 
ATOM     11  C   UNL     1      -2.659  12.882 133.485  0.00  0.00    +0.000 C 
ATOM     12  C   UNL     1      -0.930  12.958 131.669  0.00  0.00    +0.000 C 
ATOM     13  C   UNL     1      -0.048   8.792 133.580  0.00  0.00    +0.000 A 
ATOM     14  C   UNL     1      -1.103   8.059 133.021  0.00  0.00    +0.000 A 
ENDBRANCH   2   3
BRANCH   1  18
ATOM     15  C   UNL     1      -7.638   4.755 130.647  0.00  0.00    +0.000 A 
ATOM     16  C   UNL     1      -6.324   4.303 130.625  0.00  0.00    +0.000 A 
ATOM     17  N   UNL     1      -5.216   5.078 130.934  0.00  0.00    +0.000 NA
ATOM     18  C   UNL     1      -5.414   6.397 131.198  0.00  0.00    +0.000 A 
ATOM     19  C   UNL     1      -6.683   6.956 131.112  0.00  0.00    +0.000 A 
ATOM     20  C   UNL     1      -7.797   6.122 130.887  0.00  0.00    +0.000 A 
BRANCH  15  21
ATOM     21  C   UNL     1      -8.852   3.940 130.313  0.00  0.00    +0.000 C 
ATOM     22  O   UNL     1      -9.030   3.517 129.178  0.00  0.00    +0.000 OA
BRANCH  21  23
ATOM     23  O   UNL     1      -9.743   3.799 131.336  0.00  0.00    +0.000 OA
BRANCH  23  25
ATOM     24  C   UNL     1      -9.108   3.457 133.675  0.00  0.00    +0.000 C 
ATOM     25  C   UNL     1      -9.365   2.800 132.325  0.00  0.00    +0.000 C 
ENDBRANCH  23  25
ENDBRANCH  21  23
ENDBRANCH  15  21
ENDBRANCH   1  18
TORSDOF 5
ENDMDL
