MODEL 1
REMARK VINA RESULT:      -9.8      0.000      0.000
REMARK  Name = Tazemetostat
REMARK  13 active torsions:
REMARK  status: ('A' for Active; 'I' for Inactive)
REMARK    1  A    between atoms: C_1  and  C_2
REMARK    2  A    between atoms: C_2  and  N_3
REMARK    3  A    between atoms: N_3  and  C_4
REMARK    4  A    between atoms: N_3  and  C_10
REMARK    5  A    between atoms: C_11  and  C_12
REMARK    6  A    between atoms: C_13  and  C_30
REMARK    7  A    between atoms: C_15  and  C_17
REMARK    8  A    between atoms: C_20  and  C_21
REMARK    9  A    between atoms: C_21  and  N_22
REMARK   10  A    between atoms: N_32  and  C_33
REMARK   11  A    between atoms: C_33  and  C_34
REMARK   12  A    between atoms: C_35  and  C_36
REMARK   13  A    between atoms: C_38  and  C_39
REMARK                            x       y       z     vdW  Elec       q    Type
REMARK                         _______ _______ _______ _____ _____    ______ ____
ROOT
ATOM      1  C   UNL     1      -5.278   3.252 130.817  0.00  0.00    +0.000 A 
ATOM      2  C   UNL     1      -5.527   1.882 130.682  0.00  0.00    +0.000 A 
ATOM      3  C   UNL     1      -4.420   0.966 130.996  0.00  0.00    +0.000 C 
ATOM      4  C   UNL     1      -6.800   1.346 130.286  0.00  0.00    +0.000 A 
ATOM      5  C   UNL     1      -7.883   2.201 130.181  0.00  0.00    +0.000 A 
ATOM      6  C   UNL     1      -7.700   3.537 130.428  0.00  0.00    +0.000 A 
ATOM      7  C   UNL     1      -6.395   4.042 130.581  0.00  0.00    +0.000 A 
ENDROOT
BRANCH   6   8
ATOM      8  C   UNL     1      -8.833   4.425 130.400  0.00  0.00    +0.000 A 
ATOM      9  C   UNL     1      -8.537   5.722 130.489  0.00  0.00    +0.000 A 
ATOM     10  C   UNL     1      -9.655   6.491 130.459  0.00  0.00    +0.000 A 
ATOM     11  C   UNL     1     -10.997   6.370 130.350  0.00  0.00    +0.000 A 
ATOM     12  C   UNL     1     -11.294   5.047 130.251  0.00  0.00    +0.000 A 
ATOM     13  C   UNL     1     -10.214   4.079 130.277  0.00  0.00    +0.000 A 
BRANCH  11  14
ATOM     14  C   UNL     1     -11.791   7.693 130.356  0.00  0.00    +0.000 C 
BRANCH  14  15
ATOM     15  N   UNL     1     -12.065   8.507 129.070  0.00  0.00    +0.000 NA
ATOM     16  C   UNL     1     -13.353   8.243 128.365  0.00  0.00    +0.000 C 
ATOM     17  C   UNL     1     -13.373   6.963 127.523  0.00  0.00    +0.000 C 
ATOM     18  O   UNL     1     -12.126   6.846 126.662  0.00  0.00    +0.000 OA
ATOM     19  C   UNL     1     -10.791   7.338 127.195  0.00  0.00    +0.000 C 
ATOM     20  C   UNL     1     -10.971   8.592 128.056  0.00  0.00    +0.000 C 
ENDBRANCH  14  15
ENDBRANCH  11  14
ENDBRANCH   6   8
BRANCH   4  21
ATOM     21  C   UNL     1      -7.146  -0.095 130.005  0.00  0.00    +0.000 C 
ATOM     22  O   UNL     1      -8.022  -0.667 130.651  0.00  0.00    +0.000 OA
ATOM     23  N   UNL     1      -6.467  -0.742 129.013  0.00  0.00    +0.000 N 
ATOM     24  H   UNL     1      -5.779  -0.290 128.453  0.00  0.00    +0.000 HD
BRANCH  23  25
ATOM     25  C   UNL     1      -6.647  -2.099 128.648  0.00  0.00    +0.000 C 
BRANCH  25  26
ATOM     26  C   UNL     1      -7.310  -2.272 127.298  0.00  0.00    +0.000 A 
ATOM     27  C   UNL     1      -8.367  -3.095 127.159  0.00  0.00    +0.000 A 
ATOM     28  C   UNL     1      -8.946  -3.879 128.297  0.00  0.00    +0.000 C 
ATOM     29  C   UNL     1      -9.022  -3.276 125.878  0.00  0.00    +0.000 A 
ATOM     30  C   UNL     1      -8.603  -2.628 124.782  0.00  0.00    +0.000 A 
ATOM     31  C   UNL     1      -9.237  -2.769 123.443  0.00  0.00    +0.000 C 
ATOM     32  N   UNL     1      -7.539  -1.791 124.887  0.00  0.00    +0.000 N 
ATOM     33  C   UNL     1      -6.854  -1.559 126.050  0.00  0.00    +0.000 A 
ATOM     34  O   UNL     1      -5.936  -0.792 126.007  0.00  0.00    +0.000 OA
ATOM     35  H   UNL     1      -7.183  -1.278 124.088  0.00  0.00    +0.000 HD
ENDBRANCH  25  26
ENDBRANCH  23  25
ENDBRANCH   4  21
BRANCH   1  36
ATOM     36  N   UNL     1      -4.046   3.797 131.216  0.00  0.00    +0.000 N 
BRANCH  36  37
ATOM     37  C   UNL     1      -3.102   4.343 130.195  0.00  0.00    +0.000 C 
ATOM     38  C   UNL     1      -3.000   5.868 130.252  0.00  0.00    +0.000 C 
ATOM     39  C   UNL     1      -2.113   6.366 129.109  0.00  0.00    +0.000 C 
ATOM     40  O   UNL     1      -2.529   5.875 127.835  0.00  0.00    +0.000 OA
ATOM     41  C   UNL     1      -2.476   4.454 127.755  0.00  0.00    +0.000 C 
ATOM     42  C   UNL     1      -3.404   3.875 128.782  0.00  0.00    +0.000 C 
ENDBRANCH  36  37
BRANCH  36  44
ATOM     43  C   UNL     1      -2.368   3.272 133.038  0.00  0.00    +0.000 C 
ATOM     44  C   UNL     1      -3.709   3.880 132.662  0.00  0.00    +0.000 C 
ENDBRANCH  36  44
ENDBRANCH   1  36
TORSDOF 9
ENDMDL
MODEL 2
REMARK VINA RESULT:      -9.4      2.325      8.454
REMARK  Name = Tazemetostat
REMARK  13 active torsions:
REMARK  status: ('A' for Active; 'I' for Inactive)
REMARK    1  A    between atoms: C_1  and  C_2
REMARK    2  A    between atoms: C_2  and  N_3
REMARK    3  A    between atoms: N_3  and  C_4
REMARK    4  A    between atoms: N_3  and  C_10
REMARK    5  A    between atoms: C_11  and  C_12
REMARK    6  A    between atoms: C_13  and  C_30
REMARK    7  A    between atoms: C_15  and  C_17
REMARK    8  A    between atoms: C_20  and  C_21
REMARK    9  A    between atoms: C_21  and  N_22
REMARK   10  A    between atoms: N_32  and  C_33
REMARK   11  A    between atoms: C_33  and  C_34
REMARK   12  A    between atoms: C_35  and  C_36
REMARK   13  A    between atoms: C_38  and  C_39
REMARK                            x       y       z     vdW  Elec       q    Type
REMARK                         _______ _______ _______ _____ _____    ______ ____
ROOT
ATOM      1  C   UNL     1      -5.365   5.269 129.880  0.00  0.00    +0.000 A 
ATOM      2  C   UNL     1      -6.653   5.563 130.341  0.00  0.00    +0.000 A 
ATOM      3  C   UNL     1      -6.816   6.789 131.136  0.00  0.00    +0.000 C 
ATOM      4  C   UNL     1      -7.801   4.748 130.051  0.00  0.00    +0.000 A 
ATOM      5  C   UNL     1      -7.672   3.708 129.148  0.00  0.00    +0.000 A 
ATOM      6  C   UNL     1      -6.447   3.469 128.581  0.00  0.00    +0.000 A 
ATOM      7  C   UNL     1      -5.311   4.141 129.072  0.00  0.00    +0.000 A 
ENDROOT
BRANCH   6   8
ATOM      8  C   UNL     1      -6.316   2.442 127.580  0.00  0.00    +0.000 A 
ATOM      9  C   UNL     1      -7.437   2.152 126.918  0.00  0.00    +0.000 A 
ATOM     10  C   UNL     1      -7.232   1.175 125.998  0.00  0.00    +0.000 A 
ATOM     11  C   UNL     1      -6.240   0.396 125.512  0.00  0.00    +0.000 A 
ATOM     12  C   UNL     1      -5.098   0.701 126.184  0.00  0.00    +0.000 A 
ATOM     13  C   UNL     1      -5.138   1.720 127.215  0.00  0.00    +0.000 A 
BRANCH  11  14
ATOM     14  C   UNL     1      -6.643  -0.571 124.380  0.00  0.00    +0.000 C 
BRANCH  14  15
ATOM     15  N   UNL     1      -6.868  -2.083 124.616  0.00  0.00    +0.000 NA
ATOM     16  C   UNL     1      -7.584  -2.836 123.545  0.00  0.00    +0.000 C 
ATOM     17  C   UNL     1      -9.105  -2.641 123.533  0.00  0.00    +0.000 C 
ATOM     18  O   UNL     1      -9.692  -2.780 124.927  0.00  0.00    +0.000 OA
ATOM     19  C   UNL     1      -8.911  -2.278 126.129  0.00  0.00    +0.000 C 
ATOM     20  C   UNL     1      -7.408  -2.506 125.943  0.00  0.00    +0.000 C 
ENDBRANCH  14  15
ENDBRANCH  11  14
ENDBRANCH   6   8
BRANCH   4  21
ATOM     21  C   UNL     1      -9.203   4.909 130.583  0.00  0.00    +0.000 C 
ATOM     22  O   UNL     1      -9.435   4.794 131.785  0.00  0.00    +0.000 OA
ATOM     23  N   UNL     1     -10.202   5.190 129.698  0.00  0.00    +0.000 N 
ATOM     24  H   UNL     1     -10.034   5.323 128.725  0.00  0.00    +0.000 HD
BRANCH  23  25
ATOM     25  C   UNL     1     -11.572   5.338 130.028  0.00  0.00    +0.000 C 
BRANCH  25  26
ATOM     26  C   UNL     1     -12.121   6.711 129.701  0.00  0.00    +0.000 A 
ATOM     27  C   UNL     1     -12.443   7.568 130.690  0.00  0.00    +0.000 A 
ATOM     28  C   UNL     1     -12.289   7.235 132.142  0.00  0.00    +0.000 C 
ATOM     29  C   UNL     1     -12.968   8.890 130.404  0.00  0.00    +0.000 A 
ATOM     30  C   UNL     1     -13.149   9.311 129.144  0.00  0.00    +0.000 A 
ATOM     31  C   UNL     1     -13.677  10.657 128.789  0.00  0.00    +0.000 C 
ATOM     32  N   UNL     1     -12.834   8.472 128.124  0.00  0.00    +0.000 N 
ATOM     33  C   UNL     1     -12.338   7.207 128.294  0.00  0.00    +0.000 A 
ATOM     34  O   UNL     1     -12.097   6.571 127.309  0.00  0.00    +0.000 OA
ATOM     35  H   UNL     1     -12.952   8.744 127.155  0.00  0.00    +0.000 HD
ENDBRANCH  25  26
ENDBRANCH  23  25
ENDBRANCH   4  21
BRANCH   1  36
ATOM     36  N   UNL     1      -4.233   6.059 130.139  0.00  0.00    +0.000 N 
BRANCH  36  37
ATOM     37  C   UNL     1      -3.479   5.892 131.419  0.00  0.00    +0.000 C 
ATOM     38  C   UNL     1      -2.744   7.167 131.834  0.00  0.00    +0.000 C 
ATOM     39  C   UNL     1      -1.902   6.892 133.081  0.00  0.00    +0.000 C 
ATOM     40  O   UNL     1      -1.036   5.767 132.924  0.00  0.00    +0.000 OA
ATOM     41  C   UNL     1      -1.752   4.559 132.684  0.00  0.00    +0.000 C 
ATOM     42  C   UNL     1      -2.534   4.703 131.412  0.00  0.00    +0.000 C 
ENDBRANCH  36  37
BRANCH  36  44
ATOM     43  C   UNL     1      -2.647   6.495 128.214  0.00  0.00    +0.000 C 
ATOM     44  C   UNL     1      -3.752   7.022 129.113  0.00  0.00    +0.000 C 
ENDBRANCH  36  44
ENDBRANCH   1  36
TORSDOF 9
ENDMDL
MODEL 3
REMARK VINA RESULT:      -9.3      3.582      6.192
REMARK  Name = Tazemetostat
REMARK  13 active torsions:
REMARK  status: ('A' for Active; 'I' for Inactive)
REMARK    1  A    between atoms: C_1  and  C_2
REMARK    2  A    between atoms: C_2  and  N_3
REMARK    3  A    between atoms: N_3  and  C_4
REMARK    4  A    between atoms: N_3  and  C_10
REMARK    5  A    between atoms: C_11  and  C_12
REMARK    6  A    between atoms: C_13  and  C_30
REMARK    7  A    between atoms: C_15  and  C_17
REMARK    8  A    between atoms: C_20  and  C_21
REMARK    9  A    between atoms: C_21  and  N_22
REMARK   10  A    between atoms: N_32  and  C_33
REMARK   11  A    between atoms: C_33  and  C_34
REMARK   12  A    between atoms: C_35  and  C_36
REMARK   13  A    between atoms: C_38  and  C_39
REMARK                            x       y       z     vdW  Elec       q    Type
REMARK                         _______ _______ _______ _____ _____    ______ ____
ROOT
ATOM      1  C   UNL     1      -5.995  -2.503 131.909  0.00  0.00    +0.000 A 
ATOM      2  C   UNL     1      -6.485  -3.081 130.732  0.00  0.00    +0.000 A 
ATOM      3  C   UNL     1      -6.081  -4.467 130.449  0.00  0.00    +0.000 C 
ATOM      4  C   UNL     1      -7.368  -2.400 129.826  0.00  0.00    +0.000 A 
ATOM      5  C   UNL     1      -7.892  -1.175 130.197  0.00  0.00    +0.000 A 
ATOM      6  C   UNL     1      -7.528  -0.634 131.404  0.00  0.00    +0.000 A 
ATOM      7  C   UNL     1      -6.485  -1.226 132.143  0.00  0.00    +0.000 A 
ENDROOT
BRANCH   6   8
ATOM      8  C   UNL     1      -8.126   0.601 131.837  0.00  0.00    +0.000 A 
ATOM      9  C   UNL     1      -7.281   1.480 132.377  0.00  0.00    +0.000 A 
ATOM     10  C   UNL     1      -7.920   2.613 132.762  0.00  0.00    +0.000 A 
ATOM     11  C   UNL     1      -9.157   3.160 132.762  0.00  0.00    +0.000 A 
ATOM     12  C   UNL     1     -10.014   2.265 132.204  0.00  0.00    +0.000 A 
ATOM     13  C   UNL     1      -9.499   0.990 131.744  0.00  0.00    +0.000 A 
BRANCH  11  14
ATOM     14  C   UNL     1      -9.260   4.581 133.355  0.00  0.00    +0.000 C 
BRANCH  14  15
ATOM     15  N   UNL     1      -9.397   5.844 132.473  0.00  0.00    +0.000 NA
ATOM     16  C   UNL     1     -10.770   6.195 132.004  0.00  0.00    +0.000 C 
ATOM     17  C   UNL     1     -11.280   5.354 130.829  0.00  0.00    +0.000 C 
ATOM     18  O   UNL     1     -10.232   5.236 129.735  0.00  0.00    +0.000 OA
ATOM     19  C   UNL     1      -8.762   5.140 130.106  0.00  0.00    +0.000 C 
ATOM     20  C   UNL     1      -8.446   6.002 131.332  0.00  0.00    +0.000 C 
ENDBRANCH  14  15
ENDBRANCH  11  14
ENDBRANCH   6   8
BRANCH   4  21
ATOM     21  C   UNL     1      -7.865  -2.883 128.487  0.00  0.00    +0.000 C 
ATOM     22  O   UNL     1      -8.817  -3.658 128.414  0.00  0.00    +0.000 OA
ATOM     23  N   UNL     1      -7.237  -2.434 127.363  0.00  0.00    +0.000 N 
ATOM     24  H   UNL     1      -6.487  -1.779 127.394  0.00  0.00    +0.000 HD
BRANCH  23  25
ATOM     25  C   UNL     1      -7.557  -2.815 126.036  0.00  0.00    +0.000 C 
BRANCH  25  26
ATOM     26  C   UNL     1      -8.027  -1.659 125.179  0.00  0.00    +0.000 A 
ATOM     27  C   UNL     1      -8.824  -1.881 124.115  0.00  0.00    +0.000 A 
ATOM     28  C   UNL     1      -9.287  -3.247 123.713  0.00  0.00    +0.000 C 
ATOM     29  C   UNL     1      -9.290  -0.790 123.279  0.00  0.00    +0.000 A 
ATOM     30  C   UNL     1      -8.949   0.480 123.535  0.00  0.00    +0.000 A 
ATOM     31  C   UNL     1      -9.400   1.640 122.718  0.00  0.00    +0.000 C 
ATOM     32  N   UNL     1      -8.147   0.738 124.600  0.00  0.00    +0.000 N 
ATOM     33  C   UNL     1      -7.654  -0.222 125.443  0.00  0.00    +0.000 A 
ATOM     34  O   UNL     1      -6.960   0.140 126.349  0.00  0.00    +0.000 OA
ATOM     35  H   UNL     1      -7.861   1.682 124.836  0.00  0.00    +0.000 HD
ENDBRANCH  25  26
ENDBRANCH  23  25
ENDBRANCH   4  21
BRANCH   1  36
ATOM     36  N   UNL     1      -5.142  -3.155 132.815  0.00  0.00    +0.000 N 
BRANCH  36  37
ATOM     37  C   UNL     1      -5.709  -3.865 134.002  0.00  0.00    +0.000 C 
ATOM     38  C   UNL     1      -5.194  -5.300 134.124  0.00  0.00    +0.000 C 
ATOM     39  C   UNL     1      -5.901  -6.002 135.285  0.00  0.00    +0.000 C 
ATOM     40  O   UNL     1      -7.323  -5.919 135.194  0.00  0.00    +0.000 OA
ATOM     41  C   UNL     1      -7.794  -4.575 135.230  0.00  0.00    +0.000 C 
ATOM     42  C   UNL     1      -7.227  -3.831 134.057  0.00  0.00    +0.000 C 
ENDBRANCH  36  37
BRANCH  36  44
ATOM     43  C   UNL     1      -2.956  -1.877 132.840  0.00  0.00    +0.000 C 
ATOM     44  C   UNL     1      -3.677  -3.185 132.560  0.00  0.00    +0.000 C 
ENDBRANCH  36  44
ENDBRANCH   1  36
TORSDOF 9
ENDMDL
MODEL 4
REMARK VINA RESULT:      -9.3      3.053      9.194
REMARK  Name = Tazemetostat
REMARK  13 active torsions:
REMARK  status: ('A' for Active; 'I' for Inactive)
REMARK    1  A    between atoms: C_1  and  C_2
REMARK    2  A    between atoms: C_2  and  N_3
REMARK    3  A    between atoms: N_3  and  C_4
REMARK    4  A    between atoms: N_3  and  C_10
REMARK    5  A    between atoms: C_11  and  C_12
REMARK    6  A    between atoms: C_13  and  C_30
REMARK    7  A    between atoms: C_15  and  C_17
REMARK    8  A    between atoms: C_20  and  C_21
REMARK    9  A    between atoms: C_21  and  N_22
REMARK   10  A    between atoms: N_32  and  C_33
REMARK   11  A    between atoms: C_33  and  C_34
REMARK   12  A    between atoms: C_35  and  C_36
REMARK   13  A    between atoms: C_38  and  C_39
REMARK                            x       y       z     vdW  Elec       q    Type
REMARK                         _______ _______ _______ _____ _____    ______ ____
ROOT
ATOM      1  C   UNL     1      -7.017   4.752 132.255  0.00  0.00    +0.000 A 
ATOM      2  C   UNL     1      -7.898   5.355 131.350  0.00  0.00    +0.000 A 
ATOM      3  C   UNL     1      -7.811   6.816 131.203  0.00  0.00    +0.000 C 
ATOM      4  C   UNL     1      -8.842   4.617 130.556  0.00  0.00    +0.000 A 
ATOM      5  C   UNL     1      -8.783   3.235 130.561  0.00  0.00    +0.000 A 
ATOM      6  C   UNL     1      -7.847   2.612 131.345  0.00  0.00    +0.000 A 
ATOM      7  C   UNL     1      -7.108   3.368 132.276  0.00  0.00    +0.000 A 
ENDROOT
BRANCH   6   8
ATOM      8  C   UNL     1      -7.722   1.179 131.298  0.00  0.00    +0.000 A 
ATOM      9  C   UNL     1      -7.965   0.628 130.108  0.00  0.00    +0.000 A 
ATOM     10  C   UNL     1      -7.831  -0.722 130.147  0.00  0.00    +0.000 A 
ATOM     11  C   UNL     1      -7.508  -1.709 131.012  0.00  0.00    +0.000 A 
ATOM     12  C   UNL     1      -7.254  -1.144 132.222  0.00  0.00    +0.000 A 
ATOM     13  C   UNL     1      -7.361   0.296 132.363  0.00  0.00    +0.000 A 
BRANCH  11  14
ATOM     14  C   UNL     1      -7.506  -3.137 130.427  0.00  0.00    +0.000 C 
BRANCH  14  15
ATOM     15  N   UNL     1      -6.208  -3.856 129.990  0.00  0.00    +0.000 NA
ATOM     16  C   UNL     1      -5.530  -4.707 131.011  0.00  0.00    +0.000 C 
ATOM     17  C   UNL     1      -4.715  -3.933 132.052  0.00  0.00    +0.000 C 
ATOM     18  O   UNL     1      -3.836  -2.881 131.397  0.00  0.00    +0.000 OA
ATOM     19  C   UNL     1      -4.336  -2.135 130.172  0.00  0.00    +0.000 C 
ATOM     20  C   UNL     1      -5.174  -3.049 129.275  0.00  0.00    +0.000 C 
ENDBRANCH  14  15
ENDBRANCH  11  14
ENDBRANCH   6   8
BRANCH   4  21
ATOM     21  C   UNL     1      -9.904   5.168 129.638  0.00  0.00    +0.000 C 
ATOM     22  O   UNL     1      -9.603   5.636 128.541  0.00  0.00    +0.000 OA
ATOM     23  N   UNL     1     -11.203   5.129 130.054  0.00  0.00    +0.000 N 
ATOM     24  H   UNL     1     -11.475   4.723 130.922  0.00  0.00    +0.000 HD
BRANCH  23  25
ATOM     25  C   UNL     1     -12.311   5.634 129.329  0.00  0.00    +0.000 C 
BRANCH  25  26
ATOM     26  C   UNL     1     -12.600   7.091 129.618  0.00  0.00    +0.000 A 
ATOM     27  C   UNL     1     -12.728   7.973 128.608  0.00  0.00    +0.000 A 
ATOM     28  C   UNL     1     -12.596   7.588 127.166  0.00  0.00    +0.000 C 
ATOM     29  C   UNL     1     -13.008   9.375 128.858  0.00  0.00    +0.000 A 
ATOM     30  C   UNL     1     -13.153   9.846 130.104  0.00  0.00    +0.000 A 
ATOM     31  C   UNL     1     -13.445  11.270 130.422  0.00  0.00    +0.000 C 
ATOM     32  N   UNL     1     -13.030   8.983 131.145  0.00  0.00    +0.000 N 
ATOM     33  C   UNL     1     -12.763   7.647 131.011  0.00  0.00    +0.000 A 
ATOM     34  O   UNL     1     -12.684   6.995 132.011  0.00  0.00    +0.000 OA
ATOM     35  H   UNL     1     -13.131   9.290 132.106  0.00  0.00    +0.000 HD
ENDBRANCH  25  26
ENDBRANCH  23  25
ENDBRANCH   4  21
BRANCH   1  36
ATOM     36  N   UNL     1      -6.078   5.453 133.030  0.00  0.00    +0.000 N 
BRANCH  36  37
ATOM     37  C   UNL     1      -4.832   5.985 132.399  0.00  0.00    +0.000 C 
ATOM     38  C   UNL     1      -4.085   4.921 131.595  0.00  0.00    +0.000 C 
ATOM     39  C   UNL     1      -2.767   5.500 131.078  0.00  0.00    +0.000 C 
ATOM     40  O   UNL     1      -1.976   6.081 132.115  0.00  0.00    +0.000 OA
ATOM     41  C   UNL     1      -2.635   7.170 132.756  0.00  0.00    +0.000 C 
ATOM     42  C   UNL     1      -3.901   6.668 133.386  0.00  0.00    +0.000 C 
ENDBRANCH  36  37
BRANCH  36  44
ATOM     43  C   UNL     1      -7.767   5.380 134.915  0.00  0.00    +0.000 C 
ATOM     44  C   UNL     1      -6.353   5.712 134.469  0.00  0.00    +0.000 C 
ENDBRANCH  36  44
ENDBRANCH   1  36
TORSDOF 9
ENDMDL
MODEL 5
REMARK VINA RESULT:      -9.3      5.263      9.192
REMARK  Name = Tazemetostat
REMARK  13 active torsions:
REMARK  status: ('A' for Active; 'I' for Inactive)
REMARK    1  A    between atoms: C_1  and  C_2
REMARK    2  A    between atoms: C_2  and  N_3
REMARK    3  A    between atoms: N_3  and  C_4
REMARK    4  A    between atoms: N_3  and  C_10
REMARK    5  A    between atoms: C_11  and  C_12
REMARK    6  A    between atoms: C_13  and  C_30
REMARK    7  A    between atoms: C_15  and  C_17
REMARK    8  A    between atoms: C_20  and  C_21
REMARK    9  A    between atoms: C_21  and  N_22
REMARK   10  A    between atoms: N_32  and  C_33
REMARK   11  A    between atoms: C_33  and  C_34
REMARK   12  A    between atoms: C_35  and  C_36
REMARK   13  A    between atoms: C_38  and  C_39
REMARK                            x       y       z     vdW  Elec       q    Type
REMARK                         _______ _______ _______ _____ _____    ______ ____
ROOT
ATOM      1  C   UNL     1      -5.178   5.267 132.808  0.00  0.00    +0.000 A 
ATOM      2  C   UNL     1      -5.371   5.509 134.172  0.00  0.00    +0.000 A 
ATOM      3  C   UNL     1      -4.166   5.651 135.004  0.00  0.00    +0.000 C 
ATOM      4  C   UNL     1      -6.669   5.651 134.773  0.00  0.00    +0.000 A 
ATOM      5  C   UNL     1      -7.782   5.708 133.954  0.00  0.00    +0.000 A 
ATOM      6  C   UNL     1      -7.617   5.597 132.598  0.00  0.00    +0.000 A 
ATOM      7  C   UNL     1      -6.360   5.226 132.081  0.00  0.00    +0.000 A 
ENDROOT
BRANCH   6   8
ATOM      8  C   UNL     1      -8.757   5.733 131.730  0.00  0.00    +0.000 A 
ATOM      9  C   UNL     1      -9.884   6.114 132.332  0.00  0.00    +0.000 A 
ATOM     10  C   UNL     1     -10.909   6.217 131.449  0.00  0.00    +0.000 A 
ATOM     11  C   UNL     1     -11.163   6.072 130.130  0.00  0.00    +0.000 A 
ATOM     12  C   UNL     1     -10.010   5.691 129.518  0.00  0.00    +0.000 A 
ATOM     13  C   UNL     1      -8.812   5.522 130.317  0.00  0.00    +0.000 A 
BRANCH  11  14
ATOM     14  C   UNL     1     -12.612   6.370 129.690  0.00  0.00    +0.000 C 
BRANCH  14  15
ATOM     15  N   UNL     1     -12.984   7.590 128.815  0.00  0.00    +0.000 NA
ATOM     16  C   UNL     1     -13.262   7.327 127.373  0.00  0.00    +0.000 C 
ATOM     17  C   UNL     1     -12.015   7.122 126.506  0.00  0.00    +0.000 C 
ATOM     18  O   UNL     1     -10.968   8.188 126.781  0.00  0.00    +0.000 OA
ATOM     19  C   UNL     1     -10.786   8.722 128.191  0.00  0.00    +0.000 C 
ATOM     20  C   UNL     1     -12.127   8.809 128.924  0.00  0.00    +0.000 C 
ENDBRANCH  14  15
ENDBRANCH  11  14
ENDBRANCH   6   8
BRANCH   4  21
ATOM     21  C   UNL     1      -6.994   5.805 136.238  0.00  0.00    +0.000 C 
ATOM     22  O   UNL     1      -6.328   5.222 137.092  0.00  0.00    +0.000 OA
ATOM     23  N   UNL     1      -8.038   6.610 136.588  0.00  0.00    +0.000 N 
ATOM     24  H   UNL     1      -8.570   7.120 135.918  0.00  0.00    +0.000 HD
BRANCH  23  25
ATOM     25  C   UNL     1      -8.493   6.833 137.912  0.00  0.00    +0.000 C 
BRANCH  25  26
ATOM     26  C   UNL     1      -8.203   8.231 138.415  0.00  0.00    +0.000 A 
ATOM     27  C   UNL     1      -9.161   9.177 138.385  0.00  0.00    +0.000 A 
ATOM     28  C   UNL     1     -10.543   8.924 137.864  0.00  0.00    +0.000 C 
ATOM     29  C   UNL     1      -8.910  10.524 138.863  0.00  0.00    +0.000 A 
ATOM     30  C   UNL     1      -7.716  10.877 139.357  0.00  0.00    +0.000 A 
ATOM     31  C   UNL     1      -7.401  12.240 139.867  0.00  0.00    +0.000 C 
ATOM     32  N   UNL     1      -6.728   9.947 139.402  0.00  0.00    +0.000 N 
ATOM     33  C   UNL     1      -6.867   8.655 138.970  0.00  0.00    +0.000 A 
ATOM     34  O   UNL     1      -5.917   7.933 139.070  0.00  0.00    +0.000 OA
ATOM     35  H   UNL     1      -5.807  10.165 139.766  0.00  0.00    +0.000 HD
ENDBRANCH  25  26
ENDBRANCH  23  25
ENDBRANCH   4  21
BRANCH   1  36
ATOM     36  N   UNL     1      -3.919   5.138 132.197  0.00  0.00    +0.000 N 
BRANCH  36  37
ATOM     37  C   UNL     1      -3.509   6.086 131.117  0.00  0.00    +0.000 C 
ATOM     38  C   UNL     1      -4.200   7.445 131.240  0.00  0.00    +0.000 C 
ATOM     39  C   UNL     1      -3.827   8.321 130.043  0.00  0.00    +0.000 C 
ATOM     40  O   UNL     1      -4.069   7.676 128.792  0.00  0.00    +0.000 OA
ATOM     41  C   UNL     1      -3.302   6.486 128.636  0.00  0.00    +0.000 C 
ATOM     42  C   UNL     1      -3.681   5.519 129.719  0.00  0.00    +0.000 C 
ENDBRANCH  36  37
BRANCH  36  44
ATOM     43  C   UNL     1      -1.509   4.493 132.627  0.00  0.00    +0.000 C 
ATOM     44  C   UNL     1      -2.973   4.091 132.667  0.00  0.00    +0.000 C 
ENDBRANCH  36  44
ENDBRANCH   1  36
TORSDOF 9
ENDMDL
MODEL 6
REMARK VINA RESULT:      -9.2      3.511      5.045
REMARK  Name = Tazemetostat
REMARK  13 active torsions:
REMARK  status: ('A' for Active; 'I' for Inactive)
REMARK    1  A    between atoms: C_1  and  C_2
REMARK    2  A    between atoms: C_2  and  N_3
REMARK    3  A    between atoms: N_3  and  C_4
REMARK    4  A    between atoms: N_3  and  C_10
REMARK    5  A    between atoms: C_11  and  C_12
REMARK    6  A    between atoms: C_13  and  C_30
REMARK    7  A    between atoms: C_15  and  C_17
REMARK    8  A    between atoms: C_20  and  C_21
REMARK    9  A    between atoms: C_21  and  N_22
REMARK   10  A    between atoms: N_32  and  C_33
REMARK   11  A    between atoms: C_33  and  C_34
REMARK   12  A    between atoms: C_35  and  C_36
REMARK   13  A    between atoms: C_38  and  C_39
REMARK                            x       y       z     vdW  Elec       q    Type
REMARK                         _______ _______ _______ _____ _____    ______ ____
ROOT
ATOM      1  C   UNL     1      -6.588  -1.989 131.918  0.00  0.00    +0.000 A 
ATOM      2  C   UNL     1      -6.703  -2.568 130.649  0.00  0.00    +0.000 A 
ATOM      3  C   UNL     1      -6.290  -3.973 130.515  0.00  0.00    +0.000 C 
ATOM      4  C   UNL     1      -7.223  -1.869 129.506  0.00  0.00    +0.000 A 
ATOM      5  C   UNL     1      -7.785  -0.618 129.686  0.00  0.00    +0.000 A 
ATOM      6  C   UNL     1      -7.800  -0.070 130.943  0.00  0.00    +0.000 A 
ATOM      7  C   UNL     1      -7.072  -0.689 131.978  0.00  0.00    +0.000 A 
ENDROOT
BRANCH   6   8
ATOM      8  C   UNL     1      -8.451   1.195 131.158  0.00  0.00    +0.000 A 
ATOM      9  C   UNL     1      -8.628   1.934 130.063  0.00  0.00    +0.000 A 
ATOM     10  C   UNL     1      -9.244   3.109 130.348  0.00  0.00    +0.000 A 
ATOM     11  C   UNL     1      -9.762   3.782 131.400  0.00  0.00    +0.000 A 
ATOM     12  C   UNL     1      -9.587   3.022 132.514  0.00  0.00    +0.000 A 
ATOM     13  C   UNL     1      -8.933   1.734 132.392  0.00  0.00    +0.000 A 
BRANCH  11  14
ATOM     14  C   UNL     1     -10.388   5.154 131.074  0.00  0.00    +0.000 C 
BRANCH  14  15
ATOM     15  N   UNL     1     -10.929   5.511 129.670  0.00  0.00    +0.000 NA
ATOM     16  C   UNL     1     -10.089   6.414 128.831  0.00  0.00    +0.000 C 
ATOM     17  C   UNL     1     -10.170   7.898 129.206  0.00  0.00    +0.000 C 
ATOM     18  O   UNL     1     -11.610   8.343 129.397  0.00  0.00    +0.000 OA
ATOM     19  C   UNL     1     -12.621   7.389 130.008  0.00  0.00    +0.000 C 
ATOM     20  C   UNL     1     -12.354   5.947 129.566  0.00  0.00    +0.000 C 
ENDBRANCH  14  15
ENDBRANCH  11  14
ENDBRANCH   6   8
BRANCH   4  21
ATOM     21  C   UNL     1      -7.290  -2.356 128.081  0.00  0.00    +0.000 C 
ATOM     22  O   UNL     1      -8.191  -3.110 127.717  0.00  0.00    +0.000 OA
ATOM     23  N   UNL     1      -6.330  -1.934 127.207  0.00  0.00    +0.000 N 
ATOM     24  H   UNL     1      -5.612  -1.296 127.468  0.00  0.00    +0.000 HD
BRANCH  23  25
ATOM     25  C   UNL     1      -6.230  -2.324 125.848  0.00  0.00    +0.000 C 
BRANCH  25  26
ATOM     26  C   UNL     1      -7.218  -1.612 124.949  0.00  0.00    +0.000 A 
ATOM     27  C   UNL     1      -8.137  -2.314 124.257  0.00  0.00    +0.000 A 
ATOM     28  C   UNL     1      -8.243  -3.807 124.323  0.00  0.00    +0.000 C 
ATOM     29  C   UNL     1      -9.096  -1.656 123.390  0.00  0.00    +0.000 A 
ATOM     30  C   UNL     1      -9.108  -0.324 123.247  0.00  0.00    +0.000 A 
ATOM     31  C   UNL     1     -10.071   0.407 122.377  0.00  0.00    +0.000 C 
ATOM     32  N   UNL     1      -8.196   0.414 123.930  0.00  0.00    +0.000 N 
ATOM     33  C   UNL     1      -7.250  -0.115 124.766  0.00  0.00    +0.000 A 
ATOM     34  O   UNL     1      -6.506   0.647 125.314  0.00  0.00    +0.000 OA
ATOM     35  H   UNL     1      -8.164   1.424 123.856  0.00  0.00    +0.000 HD
ENDBRANCH  25  26
ENDBRANCH  23  25
ENDBRANCH   4  21
BRANCH   1  36
ATOM     36  N   UNL     1      -6.096  -2.657 133.051  0.00  0.00    +0.000 N 
BRANCH  36  37
ATOM     37  C   UNL     1      -4.728  -2.348 133.569  0.00  0.00    +0.000 C 
ATOM     38  C   UNL     1      -3.967  -1.378 132.665  0.00  0.00    +0.000 C 
ATOM     39  C   UNL     1      -2.541  -1.199 133.188  0.00  0.00    +0.000 C 
ATOM     40  O   UNL     1      -1.864  -2.441 133.379  0.00  0.00    +0.000 OA
ATOM     41  C   UNL     1      -2.512  -3.272 134.339  0.00  0.00    +0.000 C 
ATOM     42  C   UNL     1      -3.896  -3.586 133.853  0.00  0.00    +0.000 C 
ENDBRANCH  36  37
BRANCH  36  44
ATOM     43  C   UNL     1      -8.333  -3.105 134.149  0.00  0.00    +0.000 C 
ATOM     44  C   UNL     1      -6.960  -3.632 133.768  0.00  0.00    +0.000 C 
ENDBRANCH  36  44
ENDBRANCH   1  36
TORSDOF 9
ENDMDL
MODEL 7
REMARK VINA RESULT:      -9.2      3.248      9.652
REMARK  Name = Tazemetostat
REMARK  13 active torsions:
REMARK  status: ('A' for Active; 'I' for Inactive)
REMARK    1  A    between atoms: C_1  and  C_2
REMARK    2  A    between atoms: C_2  and  N_3
REMARK    3  A    between atoms: N_3  and  C_4
REMARK    4  A    between atoms: N_3  and  C_10
REMARK    5  A    between atoms: C_11  and  C_12
REMARK    6  A    between atoms: C_13  and  C_30
REMARK    7  A    between atoms: C_15  and  C_17
REMARK    8  A    between atoms: C_20  and  C_21
REMARK    9  A    between atoms: C_21  and  N_22
REMARK   10  A    between atoms: N_32  and  C_33
REMARK   11  A    between atoms: C_33  and  C_34
REMARK   12  A    between atoms: C_35  and  C_36
REMARK   13  A    between atoms: C_38  and  C_39
REMARK                            x       y       z     vdW  Elec       q    Type
REMARK                         _______ _______ _______ _____ _____    ______ ____
ROOT
ATOM      1  C   UNL     1      -7.067   4.816 131.946  0.00  0.00    +0.000 A 
ATOM      2  C   UNL     1      -8.004   5.457 131.127  0.00  0.00    +0.000 A 
ATOM      3  C   UNL     1      -7.962   6.926 131.086  0.00  0.00    +0.000 C 
ATOM      4  C   UNL     1      -8.963   4.751 130.323  0.00  0.00    +0.000 A 
ATOM      5  C   UNL     1      -8.867   3.375 130.221  0.00  0.00    +0.000 A 
ATOM      6  C   UNL     1      -7.881   2.724 130.916  0.00  0.00    +0.000 A 
ATOM      7  C   UNL     1      -7.121   3.431 131.867  0.00  0.00    +0.000 A 
ENDROOT
BRANCH   6   8
ATOM      8  C   UNL     1      -7.720   1.302 130.757  0.00  0.00    +0.000 A 
ATOM      9  C   UNL     1      -7.484   0.631 131.884  0.00  0.00    +0.000 A 
ATOM     10  C   UNL     1      -7.342  -0.699 131.651  0.00  0.00    +0.000 A 
ATOM     11  C   UNL     1      -7.379  -1.585 130.630  0.00  0.00    +0.000 A 
ATOM     12  C   UNL     1      -7.628  -0.897 129.484  0.00  0.00    +0.000 A 
ATOM     13  C   UNL     1      -7.797   0.542 129.549  0.00  0.00    +0.000 A 
BRANCH  11  14
ATOM     14  C   UNL     1      -7.150  -3.061 131.017  0.00  0.00    +0.000 C 
BRANCH  14  15
ATOM     15  N   UNL     1      -6.038  -3.926 130.381  0.00  0.00    +0.000 NA
ATOM     16  C   UNL     1      -5.476  -5.027 131.218  0.00  0.00    +0.000 C 
ATOM     17  C   UNL     1      -4.473  -4.574 132.285  0.00  0.00    +0.000 C 
ATOM     18  O   UNL     1      -3.450  -3.610 131.709  0.00  0.00    +0.000 OA
ATOM     19  C   UNL     1      -3.868  -2.613 130.642  0.00  0.00    +0.000 C 
ATOM     20  C   UNL     1      -4.911  -3.219 129.700  0.00  0.00    +0.000 C 
ENDBRANCH  14  15
ENDBRANCH  11  14
ENDBRANCH   6   8
BRANCH   4  21
ATOM     21  C   UNL     1     -10.079   5.336 129.495  0.00  0.00    +0.000 C 
ATOM     22  O   UNL     1      -9.838   5.922 128.441  0.00  0.00    +0.000 OA
ATOM     23  N   UNL     1     -11.360   5.194 129.943  0.00  0.00    +0.000 N 
ATOM     24  H   UNL     1     -11.584   4.693 130.774  0.00  0.00    +0.000 HD
BRANCH  23  25
ATOM     25  C   UNL     1     -12.515   5.712 129.304  0.00  0.00    +0.000 C 
BRANCH  25  26
ATOM     26  C   UNL     1     -12.748   7.179 129.592  0.00  0.00    +0.000 A 
ATOM     27  C   UNL     1     -12.905   8.055 128.580  0.00  0.00    +0.000 A 
ATOM     28  C   UNL     1     -12.858   7.652 127.138  0.00  0.00    +0.000 C 
ATOM     29  C   UNL     1     -13.132   9.466 128.828  0.00  0.00    +0.000 A 
ATOM     30  C   UNL     1     -13.200   9.953 130.075  0.00  0.00    +0.000 A 
ATOM     31  C   UNL     1     -13.436  11.388 130.392  0.00  0.00    +0.000 C 
ATOM     32  N   UNL     1     -13.046   9.098 131.118  0.00  0.00    +0.000 N 
ATOM     33  C   UNL     1     -12.823   7.753 130.985  0.00  0.00    +0.000 A 
ATOM     34  O   UNL     1     -12.711   7.109 131.987  0.00  0.00    +0.000 OA
ATOM     35  H   UNL     1     -13.089   9.416 132.080  0.00  0.00    +0.000 HD
ENDBRANCH  25  26
ENDBRANCH  23  25
ENDBRANCH   4  21
BRANCH   1  36
ATOM     36  N   UNL     1      -6.113   5.485 132.730  0.00  0.00    +0.000 N 
BRANCH  36  37
ATOM     37  C   UNL     1      -6.193   5.428 134.221  0.00  0.00    +0.000 C 
ATOM     38  C   UNL     1      -7.571   5.830 134.747  0.00  0.00    +0.000 C 
ATOM     39  C   UNL     1      -7.548   5.864 136.276  0.00  0.00    +0.000 C 
ATOM     40  O   UNL     1      -6.490   6.671 136.793  0.00  0.00    +0.000 OA
ATOM     41  C   UNL     1      -5.204   6.192 136.411  0.00  0.00    +0.000 C 
ATOM     42  C   UNL     1      -5.099   6.222 134.915  0.00  0.00    +0.000 C 
ENDBRANCH  36  37
BRANCH  36  44
ATOM     43  C   UNL     1      -4.368   5.472 130.895  0.00  0.00    +0.000 C 
ATOM     44  C   UNL     1      -4.989   6.204 132.072  0.00  0.00    +0.000 C 
ENDBRANCH  36  44
ENDBRANCH   1  36
TORSDOF 9
ENDMDL
MODEL 8
REMARK VINA RESULT:      -9.1      4.435      7.588
REMARK  Name = Tazemetostat
REMARK  13 active torsions:
REMARK  status: ('A' for Active; 'I' for Inactive)
REMARK    1  A    between atoms: C_1  and  C_2
REMARK    2  A    between atoms: C_2  and  N_3
REMARK    3  A    between atoms: N_3  and  C_4
REMARK    4  A    between atoms: N_3  and  C_10
REMARK    5  A    between atoms: C_11  and  C_12
REMARK    6  A    between atoms: C_13  and  C_30
REMARK    7  A    between atoms: C_15  and  C_17
REMARK    8  A    between atoms: C_20  and  C_21
REMARK    9  A    between atoms: C_21  and  N_22
REMARK   10  A    between atoms: N_32  and  C_33
REMARK   11  A    between atoms: C_33  and  C_34
REMARK   12  A    between atoms: C_35  and  C_36
REMARK   13  A    between atoms: C_38  and  C_39
REMARK                            x       y       z     vdW  Elec       q    Type
REMARK                         _______ _______ _______ _____ _____    ______ ____
ROOT
ATOM      1  C   UNL     1      -6.797   2.095 124.048  0.00  0.00    +0.000 A 
ATOM      2  C   UNL     1      -6.591   0.736 124.310  0.00  0.00    +0.000 A 
ATOM      3  C   UNL     1      -7.206  -0.225 123.383  0.00  0.00    +0.000 C 
ATOM      4  C   UNL     1      -5.798   0.255 125.408  0.00  0.00    +0.000 A 
ATOM      5  C   UNL     1      -5.071   1.163 126.156  0.00  0.00    +0.000 A 
ATOM      6  C   UNL     1      -5.153   2.496 125.847  0.00  0.00    +0.000 A 
ATOM      7  C   UNL     1      -6.119   2.935 124.921  0.00  0.00    +0.000 A 
ENDROOT
BRANCH   6   8
ATOM      8  C   UNL     1      -4.341   3.443 126.565  0.00  0.00    +0.000 A 
ATOM      9  C   UNL     1      -4.948   4.589 126.875  0.00  0.00    +0.000 A 
ATOM     10  C   UNL     1      -4.118   5.427 127.546  0.00  0.00    +0.000 A 
ATOM     11  C   UNL     1      -2.855   5.474 128.027  0.00  0.00    +0.000 A 
ATOM     12  C   UNL     1      -2.242   4.301 127.716  0.00  0.00    +0.000 A 
ATOM     13  C   UNL     1      -2.983   3.290 126.986  0.00  0.00    +0.000 A 
BRANCH  11  14
ATOM     14  C   UNL     1      -2.469   6.770 128.769  0.00  0.00    +0.000 C 
BRANCH  14  15
ATOM     15  N   UNL     1      -2.519   6.896 130.309  0.00  0.00    +0.000 NA
ATOM     16  C   UNL     1      -2.401   5.632 131.094  0.00  0.00    +0.000 C 
ATOM     17  C   UNL     1      -3.680   4.790 131.151  0.00  0.00    +0.000 C 
ATOM     18  O   UNL     1      -4.892   5.646 131.478  0.00  0.00    +0.000 OA
ATOM     19  C   UNL     1      -4.984   7.063 130.938  0.00  0.00    +0.000 C 
ATOM     20  C   UNL     1      -3.607   7.730 130.904  0.00  0.00    +0.000 C 
ENDBRANCH  14  15
ENDBRANCH  11  14
ENDBRANCH   6   8
BRANCH   4  21
ATOM     21  C   UNL     1      -5.601  -1.175 125.845  0.00  0.00    +0.000 C 
ATOM     22  O   UNL     1      -5.510  -2.077 125.015  0.00  0.00    +0.000 OA
ATOM     23  N   UNL     1      -5.521  -1.438 127.182  0.00  0.00    +0.000 N 
ATOM     24  H   UNL     1      -5.556  -0.721 127.872  0.00  0.00    +0.000 HD
BRANCH  23  25
ATOM     25  C   UNL     1      -5.372  -2.725 127.757  0.00  0.00    +0.000 C 
BRANCH  25  26
ATOM     26  C   UNL     1      -5.855  -2.798 129.189  0.00  0.00    +0.000 A 
ATOM     27  C   UNL     1      -7.142  -3.093 129.458  0.00  0.00    +0.000 A 
ATOM     28  C   UNL     1      -8.160  -3.359 128.391  0.00  0.00    +0.000 C 
ATOM     29  C   UNL     1      -7.631  -3.172 130.822  0.00  0.00    +0.000 A 
ATOM     30  C   UNL     1      -6.820  -2.960 131.867  0.00  0.00    +0.000 A 
ATOM     31  C   UNL     1      -7.262  -3.033 133.287  0.00  0.00    +0.000 C 
ATOM     32  N   UNL     1      -5.517  -2.661 131.631  0.00  0.00    +0.000 N 
ATOM     33  C   UNL     1      -4.965  -2.559 130.382  0.00  0.00    +0.000 A 
ATOM     34  O   UNL     1      -3.799  -2.294 130.312  0.00  0.00    +0.000 OA
ATOM     35  H   UNL     1      -4.863  -2.491 132.387  0.00  0.00    +0.000 HD
ENDBRANCH  25  26
ENDBRANCH  23  25
ENDBRANCH   4  21
BRANCH   1  36
ATOM     36  N   UNL     1      -7.556   2.587 122.973  0.00  0.00    +0.000 N 
BRANCH  36  37
ATOM     37  C   UNL     1      -6.880   3.018 121.712  0.00  0.00    +0.000 C 
ATOM     38  C   UNL     1      -5.634   3.863 121.977  0.00  0.00    +0.000 C 
ATOM     39  C   UNL     1      -5.063   4.366 120.650  0.00  0.00    +0.000 C 
ATOM     40  O   UNL     1      -6.037   5.034 119.849  0.00  0.00    +0.000 OA
ATOM     41  C   UNL     1      -7.122   4.183 119.489  0.00  0.00    +0.000 C 
ATOM     42  C   UNL     1      -7.811   3.720 120.738  0.00  0.00    +0.000 C 
ENDBRANCH  36  37
BRANCH  36  44
ATOM     43  C   UNL     1      -9.606   2.042 124.357  0.00  0.00    +0.000 C 
ATOM     44  C   UNL     1      -9.039   2.626 123.073  0.00  0.00    +0.000 C 
ENDBRANCH  36  44
ENDBRANCH   1  36
TORSDOF 9
ENDMDL
MODEL 9
REMARK VINA RESULT:      -9.1      2.489      9.559
REMARK  Name = Tazemetostat
REMARK  13 active torsions:
REMARK  status: ('A' for Active; 'I' for Inactive)
REMARK    1  A    between atoms: C_1  and  C_2
REMARK    2  A    between atoms: C_2  and  N_3
REMARK    3  A    between atoms: N_3  and  C_4
REMARK    4  A    between atoms: N_3  and  C_10
REMARK    5  A    between atoms: C_11  and  C_12
REMARK    6  A    between atoms: C_13  and  C_30
REMARK    7  A    between atoms: C_15  and  C_17
REMARK    8  A    between atoms: C_20  and  C_21
REMARK    9  A    between atoms: C_21  and  N_22
REMARK   10  A    between atoms: N_32  and  C_33
REMARK   11  A    between atoms: C_33  and  C_34
REMARK   12  A    between atoms: C_35  and  C_36
REMARK   13  A    between atoms: C_38  and  C_39
REMARK                            x       y       z     vdW  Elec       q    Type
REMARK                         _______ _______ _______ _____ _____    ______ ____
ROOT
ATOM      1  C   UNL     1      -8.700   4.552 130.254  0.00  0.00    +0.000 A 
ATOM      2  C   UNL     1      -7.411   5.095 130.240  0.00  0.00    +0.000 A 
ATOM      3  C   UNL     1      -7.138   6.196 131.176  0.00  0.00    +0.000 C 
ATOM      4  C   UNL     1      -6.359   4.611 129.389  0.00  0.00    +0.000 A 
ATOM      5  C   UNL     1      -6.569   3.457 128.656  0.00  0.00    +0.000 A 
ATOM      6  C   UNL     1      -7.784   2.828 128.741  0.00  0.00    +0.000 A 
ATOM      7  C   UNL     1      -8.852   3.467 129.401  0.00  0.00    +0.000 A 
ENDROOT
BRANCH   6   8
ATOM      8  C   UNL     1      -7.990   1.584 128.046  0.00  0.00    +0.000 A 
ATOM      9  C   UNL     1      -7.459   0.512 128.636  0.00  0.00    +0.000 A 
ATOM     10  C   UNL     1      -7.692  -0.617 127.920  0.00  0.00    +0.000 A 
ATOM     11  C   UNL     1      -8.314  -1.021 126.790  0.00  0.00    +0.000 A 
ATOM     12  C   UNL     1      -8.860   0.073 126.196  0.00  0.00    +0.000 A 
ATOM     13  C   UNL     1      -8.697   1.371 126.823  0.00  0.00    +0.000 A 
BRANCH  11  14
ATOM     14  C   UNL     1      -8.249  -2.534 126.495  0.00  0.00    +0.000 C 
BRANCH  14  15
ATOM     15  N   UNL     1      -7.506  -3.113 125.269  0.00  0.00    +0.000 NA
ATOM     16  C   UNL     1      -6.198  -2.489 124.914  0.00  0.00    +0.000 C 
ATOM     17  C   UNL     1      -6.305  -1.149 124.179  0.00  0.00    +0.000 C 
ATOM     18  O   UNL     1      -7.319  -1.216 123.049  0.00  0.00    +0.000 OA
ATOM     19  C   UNL     1      -8.577  -2.052 123.212  0.00  0.00    +0.000 C 
ATOM     20  C   UNL     1      -8.292  -3.324 124.016  0.00  0.00    +0.000 C 
ENDBRANCH  14  15
ENDBRANCH  11  14
ENDBRANCH   6   8
BRANCH   4  21
ATOM     21  C   UNL     1      -4.976   5.187 129.215  0.00  0.00    +0.000 C 
ATOM     22  O   UNL     1      -4.673   5.791 128.187  0.00  0.00    +0.000 OA
ATOM     23  N   UNL     1      -4.076   5.027 130.228  0.00  0.00    +0.000 N 
ATOM     24  H   UNL     1      -4.309   4.574 131.084  0.00  0.00    +0.000 HD
BRANCH  23  25
ATOM     25  C   UNL     1      -2.732   5.477 130.210  0.00  0.00    +0.000 C 
BRANCH  25  26
ATOM     26  C   UNL     1      -2.457   6.578 131.212  0.00  0.00    +0.000 A 
ATOM     27  C   UNL     1      -1.611   6.367 132.239  0.00  0.00    +0.000 A 
ATOM     28  C   UNL     1      -0.904   5.065 132.460  0.00  0.00    +0.000 C 
ATOM     29  C   UNL     1      -1.328   7.406 133.211  0.00  0.00    +0.000 A 
ATOM     30  C   UNL     1      -1.894   8.617 133.123  0.00  0.00    +0.000 A 
ATOM     31  C   UNL     1      -1.639   9.723 134.086  0.00  0.00    +0.000 C 
ATOM     32  N   UNL     1      -2.752   8.863 132.099  0.00  0.00    +0.000 N 
ATOM     33  C   UNL     1      -3.085   7.947 131.138  0.00  0.00    +0.000 A 
ATOM     34  O   UNL     1      -3.851   8.293 130.285  0.00  0.00    +0.000 OA
ATOM     35  H   UNL     1      -3.206   9.763 131.988  0.00  0.00    +0.000 HD
ENDBRANCH  25  26
ENDBRANCH  23  25
ENDBRANCH   4  21
BRANCH   1  36
ATOM     36  N   UNL     1      -9.739   5.000 131.087  0.00  0.00    +0.000 N 
BRANCH  36  37
ATOM     37  C   UNL     1     -10.871   5.790 130.516  0.00  0.00    +0.000 C 
ATOM     38  C   UNL     1     -10.402   6.826 129.494  0.00  0.00    +0.000 C 
ATOM     39  C   UNL     1     -11.591   7.675 129.040  0.00  0.00    +0.000 C 
ATOM     40  O   UNL     1     -12.309   8.247 130.134  0.00  0.00    +0.000 OA
ATOM     41  C   UNL     1     -12.864   7.258 130.996  0.00  0.00    +0.000 C 
ATOM     42  C   UNL     1     -11.750   6.436 131.573  0.00  0.00    +0.000 C 
ENDBRANCH  36  37
BRANCH  36  44
ATOM     43  C   UNL     1      -9.330   3.203 132.824  0.00  0.00    +0.000 C 
ATOM     44  C   UNL     1      -9.737   4.637 132.529  0.00  0.00    +0.000 C 
ENDBRANCH  36  44
ENDBRANCH   1  36
TORSDOF 9
ENDMDL
