MODEL 1
REMARK VINA RESULT:      -9.1      0.000      0.000
REMARK  Name = Tecovirimat
REMARK  3 active torsions:
REMARK  status: ('A' for Active; 'I' for Inactive)
REMARK    1  A    between atoms: C_2  and  C_5
REMARK    2  A    between atoms: C_8  and  C_11
REMARK    3  A    between atoms: N_13  and  N_14
REMARK                            x       y       z     vdW  Elec       q    Type
REMARK                         _______ _______ _______ _____ _____    ______ ____
ROOT
ATOM      1  C   UNL     1      -8.883   3.526 130.759  0.00  0.00    +0.000 C 
ATOM      2  O   UNL     1      -8.067   4.306 131.246  0.00  0.00    +0.000 OA
ATOM      3  N   UNL     1     -10.089   3.927 130.201  0.00  0.00    +0.000 N 
ATOM      4  H   UNL     1     -10.808   3.297 129.874  0.00  0.00    +0.000 HD
ENDROOT
BRANCH   3   5
ATOM      5  N   UNL     1     -10.376   5.292 130.088  0.00  0.00    +0.000 N 
ATOM      6  C   UNL     1     -10.993   6.011 131.083  0.00  0.00    +0.000 C 
ATOM      7  O   UNL     1     -11.319   5.638 132.206  0.00  0.00    +0.000 OA
ATOM      8  C   UNL     1     -11.186   7.416 130.587  0.00  0.00    +0.000 C 
ATOM      9  C   UNL     1     -10.459   7.461 129.209  0.00  0.00    +0.000 C 
ATOM     10  C   UNL     1     -11.474   7.867 128.099  0.00  0.00    +0.000 C 
ATOM     11  C   UNL     1     -12.594   6.830 128.149  0.00  0.00    +0.000 C 
ATOM     12  C   UNL     1     -13.221   6.758 129.341  0.00  0.00    +0.000 C 
ATOM     13  C   UNL     1     -12.694   7.736 130.394  0.00  0.00    +0.000 C 
ATOM     14  C   UNL     1     -12.753   9.171 129.836  0.00  0.00    +0.000 C 
ATOM     15  C   UNL     1     -13.528   9.542 128.591  0.00  0.00    +0.000 C 
ATOM     16  C   UNL     1     -12.042   9.249 128.494  0.00  0.00    +0.000 C 
ATOM     17  C   UNL     1      -9.955   6.045 129.017  0.00  0.00    +0.000 C 
ATOM     18  O   UNL     1      -9.274   5.670 128.071  0.00  0.00    +0.000 OA
ENDBRANCH   3   5
BRANCH   1  22
ATOM     19  C   UNL     1      -8.031  -0.706 130.494  0.00  0.00    +0.000 A 
ATOM     20  C   UNL     1      -7.677   0.176 129.465  0.00  0.00    +0.000 A 
ATOM     21  C   UNL     1      -7.898   1.549 129.607  0.00  0.00    +0.000 A 
ATOM     22  C   UNL     1      -8.555   2.063 130.740  0.00  0.00    +0.000 A 
ATOM     23  C   UNL     1      -8.911   1.180 131.765  0.00  0.00    +0.000 A 
ATOM     24  C   UNL     1      -8.644  -0.190 131.646  0.00  0.00    +0.000 A 
BRANCH  19  26
ATOM     25  F   UNL     1      -7.817  -2.842 131.547  0.00  0.00    +0.000 F 
ATOM     26  C   UNL     1      -7.728  -2.179 130.362  0.00  0.00    +0.000 C 
ATOM     27  F   UNL     1      -6.479  -2.433 129.882  0.00  0.00    +0.000 F 
ATOM     28  F   UNL     1      -8.587  -2.808 129.513  0.00  0.00    +0.000 F 
ENDBRANCH  19  26
ENDBRANCH   1  22
TORSDOF 3
ENDMDL
MODEL 2
REMARK VINA RESULT:      -8.8      7.287      9.601
REMARK  Name = Tecovirimat
REMARK  3 active torsions:
REMARK  status: ('A' for Active; 'I' for Inactive)
REMARK    1  A    between atoms: C_2  and  C_5
REMARK    2  A    between atoms: C_8  and  C_11
REMARK    3  A    between atoms: N_13  and  N_14
REMARK                            x       y       z     vdW  Elec       q    Type
REMARK                         _______ _______ _______ _____ _____    ______ ____
ROOT
ATOM      1  C   UNL     1      -5.354   2.192 126.178  0.00  0.00    +0.000 C 
ATOM      2  O   UNL     1      -4.811   1.092 126.255  0.00  0.00    +0.000 OA
ATOM      3  N   UNL     1      -6.630   2.384 125.665  0.00  0.00    +0.000 N 
ATOM      4  H   UNL     1      -7.059   3.286 125.515  0.00  0.00    +0.000 HD
ENDROOT
BRANCH   3   5
ATOM      5  N   UNL     1      -7.399   1.273 125.298  0.00  0.00    +0.000 N 
ATOM      6  C   UNL     1      -8.281   0.659 126.154  0.00  0.00    +0.000 C 
ATOM      7  O   UNL     1      -8.596   0.989 127.294  0.00  0.00    +0.000 OA
ATOM      8  C   UNL     1      -8.876  -0.520 125.437  0.00  0.00    +0.000 C 
ATOM      9  C   UNL     1      -8.326  -0.427 123.982  0.00  0.00    +0.000 C 
ATOM     10  C   UNL     1      -7.544  -1.730 123.638  0.00  0.00    +0.000 C 
ATOM     11  C   UNL     1      -6.439  -1.849 124.687  0.00  0.00    +0.000 C 
ATOM     12  C   UNL     1      -6.892  -1.908 125.956  0.00  0.00    +0.000 C 
ATOM     13  C   UNL     1      -8.417  -1.855 126.087  0.00  0.00    +0.000 C 
ATOM     14  C   UNL     1      -9.043  -2.975 125.235  0.00  0.00    +0.000 C 
ATOM     15  C   UNL     1      -8.242  -4.124 124.662  0.00  0.00    +0.000 C 
ATOM     16  C   UNL     1      -8.532  -2.905 123.805  0.00  0.00    +0.000 C 
ATOM     17  C   UNL     1      -7.415   0.783 124.013  0.00  0.00    +0.000 C 
ATOM     18  O   UNL     1      -6.824   1.235 123.041  0.00  0.00    +0.000 OA
ENDBRANCH   3   5
BRANCH   1  22
ATOM     19  C   UNL     1      -3.186   5.548 127.835  0.00  0.00    +0.000 A 
ATOM     20  C   UNL     1      -2.657   4.251 127.861  0.00  0.00    +0.000 A 
ATOM     21  C   UNL     1      -3.345   3.196 127.254  0.00  0.00    +0.000 A 
ATOM     22  C   UNL     1      -4.615   3.395 126.684  0.00  0.00    +0.000 A 
ATOM     23  C   UNL     1      -5.145   4.690 126.662  0.00  0.00    +0.000 A 
ATOM     24  C   UNL     1      -4.432   5.756 127.225  0.00  0.00    +0.000 A 
BRANCH  19  26
ATOM     25  F   UNL     1      -1.745   7.424 127.496  0.00  0.00    +0.000 F 
ATOM     26  C   UNL     1      -2.406   6.693 128.433  0.00  0.00    +0.000 C 
ATOM     27  F   UNL     1      -1.463   6.294 129.332  0.00  0.00    +0.000 F 
ATOM     28  F   UNL     1      -3.207   7.570 129.099  0.00  0.00    +0.000 F 
ENDBRANCH  19  26
ENDBRANCH   1  22
TORSDOF 3
ENDMDL
MODEL 3
REMARK VINA RESULT:      -8.8      8.344     10.943
REMARK  Name = Tecovirimat
REMARK  3 active torsions:
REMARK  status: ('A' for Active; 'I' for Inactive)
REMARK    1  A    between atoms: C_2  and  C_5
REMARK    2  A    between atoms: C_8  and  C_11
REMARK    3  A    between atoms: N_13  and  N_14
REMARK                            x       y       z     vdW  Elec       q    Type
REMARK                         _______ _______ _______ _____ _____    ______ ____
ROOT
ATOM      1  C   UNL     1      -8.132   2.314 123.264  0.00  0.00    +0.000 C 
ATOM      2  O   UNL     1      -9.009   2.829 123.954  0.00  0.00    +0.000 OA
ATOM      3  N   UNL     1      -7.530   1.101 123.568  0.00  0.00    +0.000 N 
ATOM      4  H   UNL     1      -6.751   0.703 123.063  0.00  0.00    +0.000 HD
ENDROOT
BRANCH   3   5
ATOM      5  N   UNL     1      -7.994   0.356 124.660  0.00  0.00    +0.000 N 
ATOM      6  C   UNL     1      -7.578   0.582 125.949  0.00  0.00    +0.000 C 
ATOM      7  O   UNL     1      -6.834   1.463 126.369  0.00  0.00    +0.000 OA
ATOM      8  C   UNL     1      -8.239  -0.437 126.834  0.00  0.00    +0.000 C 
ATOM      9  C   UNL     1      -9.221  -1.206 125.899  0.00  0.00    +0.000 C 
ATOM     10  C   UNL     1      -8.864  -2.723 125.907  0.00  0.00    +0.000 C 
ATOM     11  C   UNL     1      -7.410  -2.818 125.451  0.00  0.00    +0.000 C 
ATOM     12  C   UNL     1      -6.545  -2.140 126.233  0.00  0.00    +0.000 C 
ATOM     13  C   UNL     1      -7.194  -1.424 127.422  0.00  0.00    +0.000 C 
ATOM     14  C   UNL     1      -7.996  -2.441 128.255  0.00  0.00    +0.000 C 
ATOM     15  C   UNL     1      -7.856  -3.939 128.090  0.00  0.00    +0.000 C 
ATOM     16  C   UNL     1      -8.971  -3.202 127.371  0.00  0.00    +0.000 C 
ATOM     17  C   UNL     1      -8.992  -0.583 124.538  0.00  0.00    +0.000 C 
ATOM     18  O   UNL     1      -9.617  -0.871 123.525  0.00  0.00    +0.000 OA
ENDBRANCH   3   5
BRANCH   1  22
ATOM     19  C   UNL     1      -6.767   4.490 119.784  0.00  0.00    +0.000 A 
ATOM     20  C   UNL     1      -5.879   4.088 120.789  0.00  0.00    +0.000 A 
ATOM     21  C   UNL     1      -6.333   3.323 121.867  0.00  0.00    +0.000 A 
ATOM     22  C   UNL     1      -7.698   3.015 122.012  0.00  0.00    +0.000 A 
ATOM     23  C   UNL     1      -8.586   3.421 121.009  0.00  0.00    +0.000 A 
ATOM     24  C   UNL     1      -8.122   4.144 119.902  0.00  0.00    +0.000 A 
BRANCH  19  26
ATOM     25  F   UNL     1      -4.908   5.164 118.442  0.00  0.00    +0.000 F 
ATOM     26  C   UNL     1      -6.257   5.258 118.589  0.00  0.00    +0.000 C 
ATOM     27  F   UNL     1      -6.538   6.590 118.642  0.00  0.00    +0.000 F 
ATOM     28  F   UNL     1      -6.795   4.811 117.420  0.00  0.00    +0.000 F 
ENDBRANCH  19  26
ENDBRANCH   1  22
TORSDOF 3
ENDMDL
MODEL 4
REMARK VINA RESULT:      -8.4      8.033     10.551
REMARK  Name = Tecovirimat
REMARK  3 active torsions:
REMARK  status: ('A' for Active; 'I' for Inactive)
REMARK    1  A    between atoms: C_2  and  C_5
REMARK    2  A    between atoms: C_8  and  C_11
REMARK    3  A    between atoms: N_13  and  N_14
REMARK                            x       y       z     vdW  Elec       q    Type
REMARK                         _______ _______ _______ _____ _____    ______ ____
ROOT
ATOM      1  C   UNL     1      -7.170   2.495 124.215  0.00  0.00    +0.000 C 
ATOM      2  O   UNL     1      -7.191   3.334 125.113  0.00  0.00    +0.000 OA
ATOM      3  N   UNL     1      -7.017   1.134 124.441  0.00  0.00    +0.000 N 
ATOM      4  H   UNL     1      -6.912   0.439 123.715  0.00  0.00    +0.000 HD
ENDROOT
BRANCH   3   5
ATOM      5  N   UNL     1      -6.979   0.653 125.756  0.00  0.00    +0.000 N 
ATOM      6  C   UNL     1      -5.844   0.683 126.529  0.00  0.00    +0.000 C 
ATOM      7  O   UNL     1      -4.749   1.170 126.262  0.00  0.00    +0.000 OA
ATOM      8  C   UNL     1      -6.165   0.037 127.847  0.00  0.00    +0.000 C 
ATOM      9  C   UNL     1      -7.697  -0.248 127.794  0.00  0.00    +0.000 C 
ATOM     10  C   UNL     1      -7.948  -1.775 127.983  0.00  0.00    +0.000 C 
ATOM     11  C   UNL     1      -7.172  -2.472 126.867  0.00  0.00    +0.000 C 
ATOM     12  C   UNL     1      -5.847  -2.221 126.880  0.00  0.00    +0.000 C 
ATOM     13  C   UNL     1      -5.389  -1.299 128.015  0.00  0.00    +0.000 C 
ATOM     14  C   UNL     1      -5.844  -1.884 129.365  0.00  0.00    +0.000 C 
ATOM     15  C   UNL     1      -6.349  -3.302 129.524  0.00  0.00    +0.000 C 
ATOM     16  C   UNL     1      -7.338  -2.165 129.347  0.00  0.00    +0.000 C 
ATOM     17  C   UNL     1      -8.107   0.221 126.413  0.00  0.00    +0.000 C 
ATOM     18  O   UNL     1      -9.256   0.222 125.990  0.00  0.00    +0.000 OA
ENDBRANCH   3   5
BRANCH   1  22
ATOM     19  C   UNL     1      -7.532   4.003 120.178  0.00  0.00    +0.000 A 
ATOM     20  C   UNL     1      -6.284   3.875 120.800  0.00  0.00    +0.000 A 
ATOM     21  C   UNL     1      -6.188   3.316 122.079  0.00  0.00    +0.000 A 
ATOM     22  C   UNL     1      -7.341   2.954 122.799  0.00  0.00    +0.000 A 
ATOM     23  C   UNL     1      -8.588   3.087 122.177  0.00  0.00    +0.000 A 
ATOM     24  C   UNL     1      -8.680   3.599 120.876  0.00  0.00    +0.000 A 
BRANCH  19  26
ATOM     25  F   UNL     1      -8.875   4.962 118.449  0.00  0.00    +0.000 F 
ATOM     26  C   UNL     1      -7.621   4.544 118.772  0.00  0.00    +0.000 C 
ATOM     27  F   UNL     1      -7.271   3.636 117.819  0.00  0.00    +0.000 F 
ATOM     28  F   UNL     1      -6.805   5.618 118.580  0.00  0.00    +0.000 F 
ENDBRANCH  19  26
ENDBRANCH   1  22
TORSDOF 3
ENDMDL
MODEL 5
REMARK VINA RESULT:      -8.4      7.554      9.049
REMARK  Name = Tecovirimat
REMARK  3 active torsions:
REMARK  status: ('A' for Active; 'I' for Inactive)
REMARK    1  A    between atoms: C_2  and  C_5
REMARK    2  A    between atoms: C_8  and  C_11
REMARK    3  A    between atoms: N_13  and  N_14
REMARK                            x       y       z     vdW  Elec       q    Type
REMARK                         _______ _______ _______ _____ _____    ______ ____
ROOT
ATOM      1  C   UNL     1      -6.426  -3.015 129.452  0.00  0.00    +0.000 C 
ATOM      2  O   UNL     1      -5.480  -3.130 128.674  0.00  0.00    +0.000 OA
ATOM      3  N   UNL     1      -7.637  -2.433 129.105  0.00  0.00    +0.000 N 
ATOM      4  H   UNL     1      -8.394  -2.252 129.750  0.00  0.00    +0.000 HD
ENDROOT
BRANCH   3   5
ATOM      5  N   UNL     1      -7.856  -2.033 127.781  0.00  0.00    +0.000 N 
ATOM      6  C   UNL     1      -8.525  -2.810 126.866  0.00  0.00    +0.000 C 
ATOM      7  O   UNL     1      -9.083  -3.889 127.043  0.00  0.00    +0.000 OA
ATOM      8  C   UNL     1      -8.514  -2.087 125.549  0.00  0.00    +0.000 C 
ATOM      9  C   UNL     1      -7.869  -0.701 125.855  0.00  0.00    +0.000 C 
ATOM     10  C   UNL     1      -6.601  -0.513 124.969  0.00  0.00    +0.000 C 
ATOM     11  C   UNL     1      -5.678  -1.686 125.295  0.00  0.00    +0.000 C 
ATOM     12  C   UNL     1      -6.226  -2.896 125.060  0.00  0.00    +0.000 C 
ATOM     13  C   UNL     1      -7.652  -2.848 124.504  0.00  0.00    +0.000 C 
ATOM     14  C   UNL     1      -7.677  -1.984 123.229  0.00  0.00    +0.000 C 
ATOM     15  C   UNL     1      -6.424  -1.562 122.492  0.00  0.00    +0.000 C 
ATOM     16  C   UNL     1      -7.061  -0.620 123.498  0.00  0.00    +0.000 C 
ATOM     17  C   UNL     1      -7.518  -0.780 127.327  0.00  0.00    +0.000 C 
ATOM     18  O   UNL     1      -7.036   0.139 127.978  0.00  0.00    +0.000 OA
ENDBRANCH   3   5
BRANCH   1  22
ATOM     19  C   UNL     1      -6.037  -4.774 133.384  0.00  0.00    +0.000 A 
ATOM     20  C   UNL     1      -5.302  -5.255 132.293  0.00  0.00    +0.000 A 
ATOM     21  C   UNL     1      -5.391  -4.622 131.049  0.00  0.00    +0.000 A 
ATOM     22  C   UNL     1      -6.281  -3.551 130.844  0.00  0.00    +0.000 A 
ATOM     23  C   UNL     1      -7.018  -3.076 131.934  0.00  0.00    +0.000 A 
ATOM     24  C   UNL     1      -6.890  -3.677 133.193  0.00  0.00    +0.000 A 
BRANCH  19  26
ATOM     25  F   UNL     1      -5.598  -4.522 135.719  0.00  0.00    +0.000 F 
ATOM     26  C   UNL     1      -5.885  -5.420 134.739  0.00  0.00    +0.000 C 
ATOM     27  F   UNL     1      -4.895  -6.355 134.784  0.00  0.00    +0.000 F 
ATOM     28  F   UNL     1      -7.019  -6.061 135.136  0.00  0.00    +0.000 F 
ENDBRANCH  19  26
ENDBRANCH   1  22
TORSDOF 3
ENDMDL
MODEL 6
REMARK VINA RESULT:      -8.2      8.273     10.671
REMARK  Name = Tecovirimat
REMARK  3 active torsions:
REMARK  status: ('A' for Active; 'I' for Inactive)
REMARK    1  A    between atoms: C_2  and  C_5
REMARK    2  A    between atoms: C_8  and  C_11
REMARK    3  A    between atoms: N_13  and  N_14
REMARK                            x       y       z     vdW  Elec       q    Type
REMARK                         _______ _______ _______ _____ _____    ______ ____
ROOT
ATOM      1  C   UNL     1      -7.034   1.556 123.770  0.00  0.00    +0.000 C 
ATOM      2  O   UNL     1      -6.778   2.102 124.842  0.00  0.00    +0.000 OA
ATOM      3  N   UNL     1      -7.269   0.195 123.640  0.00  0.00    +0.000 N 
ATOM      4  H   UNL     1      -7.395  -0.285 122.760  0.00  0.00    +0.000 HD
ENDROOT
BRANCH   3   5
ATOM      5  N   UNL     1      -7.319  -0.609 124.786  0.00  0.00    +0.000 N 
ATOM      6  C   UNL     1      -8.428  -0.692 125.592  0.00  0.00    +0.000 C 
ATOM      7  O   UNL     1      -9.530  -0.174 125.433  0.00  0.00    +0.000 OA
ATOM      8  C   UNL     1      -8.095  -1.596 126.745  0.00  0.00    +0.000 C 
ATOM      9  C   UNL     1      -6.675  -2.153 126.424  0.00  0.00    +0.000 C 
ATOM     10  C   UNL     1      -5.697  -1.778 127.578  0.00  0.00    +0.000 C 
ATOM     11  C   UNL     1      -5.731  -0.255 127.683  0.00  0.00    +0.000 C 
ATOM     12  C   UNL     1      -6.955   0.250 127.937  0.00  0.00    +0.000 C 
ATOM     13  C   UNL     1      -8.057  -0.803 128.081  0.00  0.00    +0.000 C 
ATOM     14  C   UNL     1      -7.655  -1.821 129.164  0.00  0.00    +0.000 C 
ATOM     15  C   UNL     1      -6.520  -1.587 130.138  0.00  0.00    +0.000 C 
ATOM     16  C   UNL     1      -6.275  -2.390 128.873  0.00  0.00    +0.000 C 
ATOM     17  C   UNL     1      -6.300  -1.468 125.126  0.00  0.00    +0.000 C 
ATOM     18  O   UNL     1      -5.269  -1.678 124.500  0.00  0.00    +0.000 OA
ENDBRANCH   3   5
BRANCH   1  22
ATOM     19  C   UNL     1      -7.453   3.860 120.133  0.00  0.00    +0.000 A 
ATOM     20  C   UNL     1      -8.562   3.531 120.922  0.00  0.00    +0.000 A 
ATOM     21  C   UNL     1      -8.392   2.849 122.131  0.00  0.00    +0.000 A 
ATOM     22  C   UNL     1      -7.121   2.403 122.536  0.00  0.00    +0.000 A 
ATOM     23  C   UNL     1      -6.013   2.728 121.745  0.00  0.00    +0.000 A 
ATOM     24  C   UNL     1      -6.178   3.456 120.560  0.00  0.00    +0.000 A 
BRANCH  19  26
ATOM     25  F   UNL     1      -8.911   5.114 118.714  0.00  0.00    +0.000 F 
ATOM     26  C   UNL     1      -7.638   4.655 118.865  0.00  0.00    +0.000 C 
ATOM     27  F   UNL     1      -7.359   3.945 117.736  0.00  0.00    +0.000 F 
ATOM     28  F   UNL     1      -6.834   5.753 118.822  0.00  0.00    +0.000 F 
ENDBRANCH  19  26
ENDBRANCH   1  22
TORSDOF 3
ENDMDL
MODEL 7
REMARK VINA RESULT:      -8.1      5.175      8.924
REMARK  Name = Tecovirimat
REMARK  3 active torsions:
REMARK  status: ('A' for Active; 'I' for Inactive)
REMARK    1  A    between atoms: C_2  and  C_5
REMARK    2  A    between atoms: C_8  and  C_11
REMARK    3  A    between atoms: N_13  and  N_14
REMARK                            x       y       z     vdW  Elec       q    Type
REMARK                         _______ _______ _______ _____ _____    ______ ____
ROOT
ATOM      1  C   UNL     1      -8.311   1.574 128.278  0.00  0.00    +0.000 C 
ATOM      2  O   UNL     1      -8.106   0.468 128.775  0.00  0.00    +0.000 OA
ATOM      3  N   UNL     1      -8.329   1.808 126.910  0.00  0.00    +0.000 N 
ATOM      4  H   UNL     1      -8.410   2.720 126.484  0.00  0.00    +0.000 HD
ENDROOT
BRANCH   3   5
ATOM      5  N   UNL     1      -8.206   0.730 126.025  0.00  0.00    +0.000 N 
ATOM      6  C   UNL     1      -9.287   0.103 125.456  0.00  0.00    +0.000 C 
ATOM      7  O   UNL     1     -10.476   0.394 125.549  0.00  0.00    +0.000 OA
ATOM      8  C   UNL     1      -8.775  -1.033 124.616  0.00  0.00    +0.000 C 
ATOM      9  C   UNL     1      -7.223  -0.895 124.654  0.00  0.00    +0.000 C 
ATOM     10  C   UNL     1      -6.600  -2.201 125.233  0.00  0.00    +0.000 C 
ATOM     11  C   UNL     1      -7.216  -2.386 126.618  0.00  0.00    +0.000 C 
ATOM     12  C   UNL     1      -8.561  -2.485 126.611  0.00  0.00    +0.000 C 
ATOM     13  C   UNL     1      -9.194  -2.403 125.218  0.00  0.00    +0.000 C 
ATOM     14  C   UNL     1      -8.567  -3.474 124.307  0.00  0.00    +0.000 C 
ATOM     15  C   UNL     1      -7.725  -4.616 124.832  0.00  0.00    +0.000 C 
ATOM     16  C   UNL     1      -7.051  -3.358 124.316  0.00  0.00    +0.000 C 
ATOM     17  C   UNL     1      -6.985   0.292 125.566  0.00  0.00    +0.000 C 
ATOM     18  O   UNL     1      -5.886   0.769 125.815  0.00  0.00    +0.000 OA
ENDBRANCH   3   5
BRANCH   1  22
ATOM     19  C   UNL     1      -8.863   4.973 130.894  0.00  0.00    +0.000 A 
ATOM     20  C   UNL     1      -8.207   5.098 129.663  0.00  0.00    +0.000 A 
ATOM     21  C   UNL     1      -8.106   4.000 128.803  0.00  0.00    +0.000 A 
ATOM     22  C   UNL     1      -8.579   2.733 129.190  0.00  0.00    +0.000 A 
ATOM     23  C   UNL     1      -9.231   2.609 130.422  0.00  0.00    +0.000 A 
ATOM     24  C   UNL     1      -9.378   3.721 131.261  0.00  0.00    +0.000 A 
BRANCH  19  26
ATOM     25  F   UNL     1      -8.936   7.353 131.104  0.00  0.00    +0.000 F 
ATOM     26  C   UNL     1      -9.027   6.179 131.786  0.00  0.00    +0.000 C 
ATOM     27  F   UNL     1      -8.097   6.248 132.779  0.00  0.00    +0.000 F 
ATOM     28  F   UNL     1     -10.238   6.199 132.410  0.00  0.00    +0.000 F 
ENDBRANCH  19  26
ENDBRANCH   1  22
TORSDOF 3
ENDMDL
MODEL 8
REMARK VINA RESULT:      -8.1      4.660      6.102
REMARK  Name = Tecovirimat
REMARK  3 active torsions:
REMARK  status: ('A' for Active; 'I' for Inactive)
REMARK    1  A    between atoms: C_2  and  C_5
REMARK    2  A    between atoms: C_8  and  C_11
REMARK    3  A    between atoms: N_13  and  N_14
REMARK                            x       y       z     vdW  Elec       q    Type
REMARK                         _______ _______ _______ _____ _____    ______ ____
ROOT
ATOM      1  C   UNL     1      -7.687  -1.086 129.779  0.00  0.00    +0.000 C 
ATOM      2  O   UNL     1      -7.233  -1.673 130.759  0.00  0.00    +0.000 OA
ATOM      3  N   UNL     1      -8.084   0.244 129.798  0.00  0.00    +0.000 N 
ATOM      4  H   UNL     1      -8.538   0.719 129.031  0.00  0.00    +0.000 HD
ENDROOT
BRANCH   3   5
ATOM      5  N   UNL     1      -7.880   1.008 130.954  0.00  0.00    +0.000 N 
ATOM      6  C   UNL     1      -8.772   1.038 131.998  0.00  0.00    +0.000 C 
ATOM      7  O   UNL     1      -9.806   0.390 132.139  0.00  0.00    +0.000 OA
ATOM      8  C   UNL     1      -8.250   2.001 133.025  0.00  0.00    +0.000 C 
ATOM      9  C   UNL     1      -6.844   2.426 132.503  0.00  0.00    +0.000 C 
ATOM     10  C   UNL     1      -6.806   3.972 132.315  0.00  0.00    +0.000 C 
ATOM     11  C   UNL     1      -7.931   4.308 131.338  0.00  0.00    +0.000 C 
ATOM     12  C   UNL     1      -9.154   3.928 131.761  0.00  0.00    +0.000 C 
ATOM     13  C   UNL     1      -9.168   3.250 133.134  0.00  0.00    +0.000 C 
ATOM     14  C   UNL     1      -8.500   4.176 134.168  0.00  0.00    +0.000 C 
ATOM     15  C   UNL     1      -8.208   5.637 133.904  0.00  0.00    +0.000 C 
ATOM     16  C   UNL     1      -7.120   4.600 133.690  0.00  0.00    +0.000 C 
ATOM     17  C   UNL     1      -6.711   1.696 131.182  0.00  0.00    +0.000 C 
ATOM     18  O   UNL     1      -5.714   1.719 130.471  0.00  0.00    +0.000 OA
ENDBRANCH   3   5
BRANCH   1  22
ATOM     19  C   UNL     1      -8.104  -3.048 125.947  0.00  0.00    +0.000 A 
ATOM     20  C   UNL     1      -7.502  -1.788 126.062  0.00  0.00    +0.000 A 
ATOM     21  C   UNL     1      -7.313  -1.208 127.320  0.00  0.00    +0.000 A 
ATOM     22  C   UNL     1      -7.799  -1.831 128.484  0.00  0.00    +0.000 A 
ATOM     23  C   UNL     1      -8.404  -3.088 128.368  0.00  0.00    +0.000 A 
ATOM     24  C   UNL     1      -8.547  -3.692 127.112  0.00  0.00    +0.000 A 
BRANCH  19  26
ATOM     25  F   UNL     1      -7.444  -3.124 123.652  0.00  0.00    +0.000 F 
ATOM     26  C   UNL     1      -8.243  -3.697 124.592  0.00  0.00    +0.000 C 
ATOM     27  F   UNL     1      -9.509  -3.643 124.093  0.00  0.00    +0.000 F 
ATOM     28  F   UNL     1      -7.909  -5.017 124.616  0.00  0.00    +0.000 F 
ENDBRANCH  19  26
ENDBRANCH   1  22
TORSDOF 3
ENDMDL
MODEL 9
REMARK VINA RESULT:      -8.0      4.817      5.988
REMARK  Name = Tecovirimat
REMARK  3 active torsions:
REMARK  status: ('A' for Active; 'I' for Inactive)
REMARK    1  A    between atoms: C_2  and  C_5
REMARK    2  A    between atoms: C_8  and  C_11
REMARK    3  A    between atoms: N_13  and  N_14
REMARK                            x       y       z     vdW  Elec       q    Type
REMARK                         _______ _______ _______ _____ _____    ______ ____
ROOT
ATOM      1  C   UNL     1      -8.549   5.289 132.354  0.00  0.00    +0.000 C 
ATOM      2  O   UNL     1      -8.922   4.147 132.092  0.00  0.00    +0.000 OA
ATOM      3  N   UNL     1      -9.041   6.420 131.718  0.00  0.00    +0.000 N 
ATOM      4  H   UNL     1      -8.688   7.357 131.858  0.00  0.00    +0.000 HD
ENDROOT
BRANCH   3   5
ATOM      5  N   UNL     1     -10.086   6.293 130.795  0.00  0.00    +0.000 N 
ATOM      6  C   UNL     1      -9.876   6.096 129.452  0.00  0.00    +0.000 C 
ATOM      7  O   UNL     1      -8.812   5.930 128.860  0.00  0.00    +0.000 OA
ATOM      8  C   UNL     1     -11.216   6.065 128.773  0.00  0.00    +0.000 C 
ATOM      9  C   UNL     1     -12.256   6.125 129.932  0.00  0.00    +0.000 C 
ATOM     10  C   UNL     1     -13.171   7.372 129.743  0.00  0.00    +0.000 C 
ATOM     11  C   UNL     1     -12.239   8.582 129.715  0.00  0.00    +0.000 C 
ATOM     12  C   UNL     1     -11.315   8.538 128.733  0.00  0.00    +0.000 C 
ATOM     13  C   UNL     1     -11.396   7.295 127.842  0.00  0.00    +0.000 C 
ATOM     14  C   UNL     1     -12.816   7.177 127.256  0.00  0.00    +0.000 C 
ATOM     15  C   UNL     1     -13.825   8.304 127.300  0.00  0.00    +0.000 C 
ATOM     16  C   UNL     1     -13.855   7.223 128.366  0.00  0.00    +0.000 C 
ATOM     17  C   UNL     1     -11.404   6.238 131.180  0.00  0.00    +0.000 C 
ATOM     18  O   UNL     1     -11.843   6.256 132.324  0.00  0.00    +0.000 OA
ENDBRANCH   3   5
BRANCH   1  22
ATOM     19  C   UNL     1      -5.743   5.986 135.570  0.00  0.00    +0.000 A 
ATOM     20  C   UNL     1      -7.074   5.634 135.826  0.00  0.00    +0.000 A 
ATOM     21  C   UNL     1      -7.942   5.343 134.769  0.00  0.00    +0.000 A 
ATOM     22  C   UNL     1      -7.526   5.480 133.432  0.00  0.00    +0.000 A 
ATOM     23  C   UNL     1      -6.196   5.836 133.178  0.00  0.00    +0.000 A 
ATOM     24  C   UNL     1      -5.313   6.078 134.238  0.00  0.00    +0.000 A 
BRANCH  19  26
ATOM     25  F   UNL     1      -4.220   7.465 136.668  0.00  0.00    +0.000 F 
ATOM     26  C   UNL     1      -4.795   6.233 136.718  0.00  0.00    +0.000 C 
ATOM     27  F   UNL     1      -3.767   5.340 136.773  0.00  0.00    +0.000 F 
ATOM     28  F   UNL     1      -5.418   6.157 137.927  0.00  0.00    +0.000 F 
ENDBRANCH  19  26
ENDBRANCH   1  22
TORSDOF 3
ENDMDL
