MODEL 1
REMARK VINA RESULT:      -8.1      0.000      0.000
REMARK  Name = Tedizolid phosphate
REMARK  9 active torsions:
REMARK  status: ('A' for Active; 'I' for Inactive)
REMARK    1  A    between atoms: C_1  and  N_2
REMARK    2  A    between atoms: C_5  and  C_7
REMARK    3  A    between atoms: C_10  and  C_13
REMARK    4  A    between atoms: C_16  and  N_20
REMARK    5  A    between atoms: C_22  and  C_23
REMARK    6  A    between atoms: C_23  and  O_24
REMARK    7  A    between atoms: O_24  and  P_25
REMARK    8  A    between atoms: P_25  and  O_26
REMARK    9  A    between atoms: P_25  and  O_27
REMARK                            x       y       z     vdW  Elec       q    Type
REMARK                         _______ _______ _______ _____ _____    ______ ____
ROOT
ATOM      1  C   UNL     1      -6.927  -3.017 128.991  0.00  0.00    +0.000 A 
ATOM      2  C   UNL     1      -5.991  -2.293 128.231  0.00  0.00    +0.000 A 
ATOM      3  C   UNL     1      -6.327  -1.794 126.972  0.00  0.00    +0.000 A 
ATOM      4  C   UNL     1      -7.626  -1.965 126.492  0.00  0.00    +0.000 A 
ATOM      5  C   UNL     1      -8.577  -2.651 127.239  0.00  0.00    +0.000 A 
ATOM      6  C   UNL     1      -8.216  -3.188 128.463  0.00  0.00    +0.000 A 
ATOM      7  F   UNL     1      -9.138  -3.885 129.144  0.00  0.00    +0.000 F 
ENDROOT
BRANCH   1  11
ATOM      8  C   UNL     1      -5.939  -4.558 132.803  0.00  0.00    +0.000 A 
ATOM      9  C   UNL     1      -5.392  -5.172 131.681  0.00  0.00    +0.000 A 
ATOM     10  C   UNL     1      -5.718  -4.674 130.418  0.00  0.00    +0.000 A 
ATOM     11  C   UNL     1      -6.568  -3.570 130.295  0.00  0.00    +0.000 A 
ATOM     12  C   UNL     1      -7.064  -3.030 131.481  0.00  0.00    +0.000 A 
ATOM     13  N   UNL     1      -6.773  -3.490 132.721  0.00  0.00    +0.000 NA
BRANCH   8  18
ATOM     14  C   UNL     1      -3.751  -5.549 137.003  0.00  0.00    +0.000 C 
ATOM     15  N   UNL     1      -4.721  -5.479 135.943  0.00  0.00    +0.000 N 
ATOM     16  N   UNL     1      -5.909  -6.098 136.019  0.00  0.00    +0.000 NA
ATOM     17  N   UNL     1      -6.503  -5.827 134.864  0.00  0.00    +0.000 NA
ATOM     18  C   UNL     1      -5.621  -5.058 134.134  0.00  0.00    +0.000 A 
ATOM     19  N   UNL     1      -4.484  -4.797 134.811  0.00  0.00    +0.000 NA
ENDBRANCH   8  18
ENDBRANCH   1  11
BRANCH   4  20
ATOM     20  N   UNL     1      -7.988  -1.460 125.251  0.00  0.00    +0.000 N 
ATOM     21  C   UNL     1      -8.359  -0.104 125.050  0.00  0.00    +0.000 C 
ATOM     22  C   UNL     1      -8.292  -0.012 123.548  0.00  0.00    +0.000 C 
ATOM     23  O   UNL     1      -8.290  -1.350 123.046  0.00  0.00    +0.000 OA
ATOM     24  C   UNL     1      -7.981  -2.175 124.079  0.00  0.00    +0.000 C 
ATOM     25  O   UNL     1      -7.782  -3.372 123.932  0.00  0.00    +0.000 OA
BRANCH  22  26
ATOM     26  C   UNL     1      -9.446   0.720 122.936  0.00  0.00    +0.000 C 
BRANCH  26  27
ATOM     27  O   UNL     1      -9.421   2.154 123.192  0.00  0.00    +0.000 OA
BRANCH  27  28
ATOM     28  P   UNL     1      -7.950   2.936 122.723  0.00  0.00    +0.000 P 
ATOM     29  O   UNL     1      -6.634   3.634 122.303  0.00  0.00    +0.000 OA
BRANCH  28  30
ATOM     30  O   UNL     1      -8.815   3.742 121.590  0.00  0.00    +0.000 OA
ATOM     31  H   UNL     1      -8.827   4.702 121.725  0.00  0.00    +0.000 HD
ENDBRANCH  28  30
BRANCH  28  32
ATOM     32  O   UNL     1      -8.243   3.937 123.986  0.00  0.00    +0.000 OA
ATOM     33  H   UNL     1      -8.678   3.486 124.730  0.00  0.00    +0.000 HD
ENDBRANCH  28  32
ENDBRANCH  27  28
ENDBRANCH  26  27
ENDBRANCH  22  26
ENDBRANCH   4  20
TORSDOF 8
ENDMDL
MODEL 2
REMARK VINA RESULT:      -8.1      0.985      1.469
REMARK  Name = Tedizolid phosphate
REMARK  9 active torsions:
REMARK  status: ('A' for Active; 'I' for Inactive)
REMARK    1  A    between atoms: C_1  and  N_2
REMARK    2  A    between atoms: C_5  and  C_7
REMARK    3  A    between atoms: C_10  and  C_13
REMARK    4  A    between atoms: C_16  and  N_20
REMARK    5  A    between atoms: C_22  and  C_23
REMARK    6  A    between atoms: C_23  and  O_24
REMARK    7  A    between atoms: O_24  and  P_25
REMARK    8  A    between atoms: P_25  and  O_26
REMARK    9  A    between atoms: P_25  and  O_27
REMARK                            x       y       z     vdW  Elec       q    Type
REMARK                         _______ _______ _______ _____ _____    ______ ____
ROOT
ATOM      1  C   UNL     1      -6.965  -3.059 129.045  0.00  0.00    +0.000 A 
ATOM      2  C   UNL     1      -8.215  -3.344 128.467  0.00  0.00    +0.000 A 
ATOM      3  C   UNL     1      -8.580  -2.781 127.243  0.00  0.00    +0.000 A 
ATOM      4  C   UNL     1      -7.667  -1.976 126.561  0.00  0.00    +0.000 A 
ATOM      5  C   UNL     1      -6.415  -1.705 127.099  0.00  0.00    +0.000 A 
ATOM      6  C   UNL     1      -6.085  -2.226 128.339  0.00  0.00    +0.000 A 
ATOM      7  F   UNL     1      -4.889  -1.912 128.858  0.00  0.00    +0.000 F 
ENDROOT
BRANCH   1  11
ATOM      8  C   UNL     1      -5.940  -4.623 132.839  0.00  0.00    +0.000 A 
ATOM      9  C   UNL     1      -5.379  -5.210 131.709  0.00  0.00    +0.000 A 
ATOM     10  C   UNL     1      -5.717  -4.705 130.453  0.00  0.00    +0.000 A 
ATOM     11  C   UNL     1      -6.593  -3.620 130.343  0.00  0.00    +0.000 A 
ATOM     12  C   UNL     1      -7.101  -3.106 131.535  0.00  0.00    +0.000 A 
ATOM     13  N   UNL     1      -6.799  -3.573 132.770  0.00  0.00    +0.000 NA
BRANCH   8  18
ATOM     14  C   UNL     1      -6.135  -6.638 137.233  0.00  0.00    +0.000 C 
ATOM     15  N   UNL     1      -5.658  -6.005 136.033  0.00  0.00    +0.000 N 
ATOM     16  N   UNL     1      -4.381  -5.620 135.886  0.00  0.00    +0.000 NA
ATOM     17  N   UNL     1      -4.334  -5.065 134.683  0.00  0.00    +0.000 NA
ATOM     18  C   UNL     1      -5.610  -5.131 134.164  0.00  0.00    +0.000 A 
ATOM     19  N   UNL     1      -6.471  -5.752 134.994  0.00  0.00    +0.000 NA
ENDBRANCH   8  18
ENDBRANCH   1  11
BRANCH   4  20
ATOM     20  N   UNL     1      -8.001  -1.422 125.334  0.00  0.00    +0.000 N 
ATOM     21  C   UNL     1      -8.559  -0.123 125.201  0.00  0.00    +0.000 C 
ATOM     22  C   UNL     1      -8.386   0.110 123.723  0.00  0.00    +0.000 C 
ATOM     23  O   UNL     1      -8.138  -1.164 123.124  0.00  0.00    +0.000 OA
ATOM     24  C   UNL     1      -7.791  -2.022 124.117  0.00  0.00    +0.000 C 
ATOM     25  O   UNL     1      -7.399  -3.160 123.899  0.00  0.00    +0.000 OA
BRANCH  22  26
ATOM     26  C   UNL     1      -9.585   0.717 123.063  0.00  0.00    +0.000 C 
BRANCH  26  27
ATOM     27  O   UNL     1      -9.566   2.174 123.058  0.00  0.00    +0.000 OA
BRANCH  27  28
ATOM     28  P   UNL     1      -8.008   2.865 122.760  0.00  0.00    +0.000 P 
ATOM     29  O   UNL     1      -6.614   3.483 122.492  0.00  0.00    +0.000 OA
BRANCH  28  30
ATOM     30  O   UNL     1      -8.709   3.783 121.599  0.00  0.00    +0.000 OA
ATOM     31  H   UNL     1      -8.347   3.626 120.713  0.00  0.00    +0.000 HD
ENDBRANCH  28  30
BRANCH  28  32
ATOM     32  O   UNL     1      -8.344   3.828 124.041  0.00  0.00    +0.000 OA
ATOM     33  H   UNL     1      -7.631   4.460 124.233  0.00  0.00    +0.000 HD
ENDBRANCH  28  32
ENDBRANCH  27  28
ENDBRANCH  26  27
ENDBRANCH  22  26
ENDBRANCH   4  20
TORSDOF 8
ENDMDL
MODEL 3
REMARK VINA RESULT:      -7.9      7.162     11.399
REMARK  Name = Tedizolid phosphate
REMARK  9 active torsions:
REMARK  status: ('A' for Active; 'I' for Inactive)
REMARK    1  A    between atoms: C_1  and  N_2
REMARK    2  A    between atoms: C_5  and  C_7
REMARK    3  A    between atoms: C_10  and  C_13
REMARK    4  A    between atoms: C_16  and  N_20
REMARK    5  A    between atoms: C_22  and  C_23
REMARK    6  A    between atoms: C_23  and  O_24
REMARK    7  A    between atoms: O_24  and  P_25
REMARK    8  A    between atoms: P_25  and  O_26
REMARK    9  A    between atoms: P_25  and  O_27
REMARK                            x       y       z     vdW  Elec       q    Type
REMARK                         _______ _______ _______ _____ _____    ______ ____
ROOT
ATOM      1  C   UNL     1      -6.788  -3.616 130.226  0.00  0.00    +0.000 A 
ATOM      2  C   UNL     1      -5.884  -4.687 130.350  0.00  0.00    +0.000 A 
ATOM      3  C   UNL     1      -5.298  -4.985 131.581  0.00  0.00    +0.000 A 
ATOM      4  C   UNL     1      -5.662  -4.250 132.709  0.00  0.00    +0.000 A 
ATOM      5  C   UNL     1      -6.575  -3.207 132.616  0.00  0.00    +0.000 A 
ATOM      6  C   UNL     1      -7.110  -2.885 131.379  0.00  0.00    +0.000 A 
ATOM      7  F   UNL     1      -7.953  -1.846 131.307  0.00  0.00    +0.000 F 
ENDROOT
BRANCH   1  11
ATOM      8  C   UNL     1      -8.431  -2.583 126.468  0.00  0.00    +0.000 A 
ATOM      9  C   UNL     1      -9.080  -3.550 127.229  0.00  0.00    +0.000 A 
ATOM     10  C   UNL     1      -8.541  -3.902 128.468  0.00  0.00    +0.000 A 
ATOM     11  C   UNL     1      -7.378  -3.279 128.931  0.00  0.00    +0.000 A 
ATOM     12  C   UNL     1      -6.805  -2.325 128.092  0.00  0.00    +0.000 A 
ATOM     13  N   UNL     1      -7.297  -1.962 126.884  0.00  0.00    +0.000 NA
BRANCH   8  18
ATOM     14  C   UNL     1      -9.864  -0.089 122.578  0.00  0.00    +0.000 C 
ATOM     15  N   UNL     1      -9.567  -1.162 123.488  0.00  0.00    +0.000 N 
ATOM     16  N   UNL     1      -9.854  -2.442 123.202  0.00  0.00    +0.000 NA
ATOM     17  N   UNL     1      -9.464  -3.120 124.273  0.00  0.00    +0.000 NA
ATOM     18  C   UNL     1      -8.967  -2.198 125.169  0.00  0.00    +0.000 A 
ATOM     19  N   UNL     1      -8.995  -0.941 124.682  0.00  0.00    +0.000 NA
ENDBRANCH   8  18
ENDBRANCH   1  11
BRANCH   4  20
ATOM     20  N   UNL     1      -5.106  -4.542 133.947  0.00  0.00    +0.000 N 
ATOM     21  C   UNL     1      -3.849  -4.034 134.366  0.00  0.00    +0.000 C 
ATOM     22  C   UNL     1      -3.899  -4.336 135.842  0.00  0.00    +0.000 C 
ATOM     23  O   UNL     1      -4.938  -5.297 136.037  0.00  0.00    +0.000 OA
ATOM     24  C   UNL     1      -5.710  -5.298 134.921  0.00  0.00    +0.000 C 
ATOM     25  O   UNL     1      -6.754  -5.931 134.840  0.00  0.00    +0.000 OA
BRANCH  22  26
ATOM     26  C   UNL     1      -2.623  -4.901 136.385  0.00  0.00    +0.000 C 
BRANCH  26  27
ATOM     27  O   UNL     1      -1.461  -4.601 135.562  0.00  0.00    +0.000 OA
BRANCH  27  28
ATOM     28  P   UNL     1      -0.089  -4.027 136.448  0.00  0.00    +0.000 P 
ATOM     29  O   UNL     1       1.137  -3.513 137.242  0.00  0.00    +0.000 OA
BRANCH  28  30
ATOM     30  O   UNL     1      -0.165  -5.404 137.331  0.00  0.00    +0.000 OA
ATOM     31  H   UNL     1       0.554  -6.025 137.139  0.00  0.00    +0.000 HD
ENDBRANCH  28  30
BRANCH  28  32
ATOM     32  O   UNL     1       0.789  -4.611 135.195  0.00  0.00    +0.000 OA
ATOM     33  H   UNL     1       0.388  -5.398 134.790  0.00  0.00    +0.000 HD
ENDBRANCH  28  32
ENDBRANCH  27  28
ENDBRANCH  26  27
ENDBRANCH  22  26
ENDBRANCH   4  20
TORSDOF 8
ENDMDL
MODEL 4
REMARK VINA RESULT:      -7.8      1.757      2.193
REMARK  Name = Tedizolid phosphate
REMARK  9 active torsions:
REMARK  status: ('A' for Active; 'I' for Inactive)
REMARK    1  A    between atoms: C_1  and  N_2
REMARK    2  A    between atoms: C_5  and  C_7
REMARK    3  A    between atoms: C_10  and  C_13
REMARK    4  A    between atoms: C_16  and  N_20
REMARK    5  A    between atoms: C_22  and  C_23
REMARK    6  A    between atoms: C_23  and  O_24
REMARK    7  A    between atoms: O_24  and  P_25
REMARK    8  A    between atoms: P_25  and  O_26
REMARK    9  A    between atoms: P_25  and  O_27
REMARK                            x       y       z     vdW  Elec       q    Type
REMARK                         _______ _______ _______ _____ _____    ______ ____
ROOT
ATOM      1  C   UNL     1      -5.854  -3.063 129.386  0.00  0.00    +0.000 A 
ATOM      2  C   UNL     1      -5.152  -2.691 128.226  0.00  0.00    +0.000 A 
ATOM      3  C   UNL     1      -5.833  -2.266 127.085  0.00  0.00    +0.000 A 
ATOM      4  C   UNL     1      -7.223  -2.153 127.121  0.00  0.00    +0.000 A 
ATOM      5  C   UNL     1      -7.937  -2.487 128.266  0.00  0.00    +0.000 A 
ATOM      6  C   UNL     1      -7.253  -2.959 129.374  0.00  0.00    +0.000 A 
ATOM      7  F   UNL     1      -7.967  -3.318 130.451  0.00  0.00    +0.000 F 
ENDROOT
BRANCH   1  11
ATOM      8  C   UNL     1      -3.754  -4.376 132.815  0.00  0.00    +0.000 A 
ATOM      9  C   UNL     1      -4.780  -5.177 132.322  0.00  0.00    +0.000 A 
ATOM     10  C   UNL     1      -5.482  -4.748 131.195  0.00  0.00    +0.000 A 
ATOM     11  C   UNL     1      -5.145  -3.542 130.572  0.00  0.00    +0.000 A 
ATOM     12  C   UNL     1      -4.104  -2.814 131.146  0.00  0.00    +0.000 A 
ATOM     13  N   UNL     1      -3.404  -3.197 132.240  0.00  0.00    +0.000 NA
BRANCH   8  18
ATOM     14  C   UNL     1      -2.346  -6.525 136.914  0.00  0.00    +0.000 C 
ATOM     15  N   UNL     1      -2.369  -5.712 135.729  0.00  0.00    +0.000 N 
ATOM     16  N   UNL     1      -1.354  -4.898 135.399  0.00  0.00    +0.000 NA
ATOM     17  N   UNL     1      -1.747  -4.309 134.278  0.00  0.00    +0.000 NA
ATOM     18  C   UNL     1      -3.005  -4.795 133.993  0.00  0.00    +0.000 A 
ATOM     19  N   UNL     1      -3.417  -5.714 134.888  0.00  0.00    +0.000 NA
ENDBRANCH   8  18
ENDBRANCH   1  11
BRANCH   4  20
ATOM     20  N   UNL     1      -7.920  -1.713 126.004  0.00  0.00    +0.000 N 
ATOM     21  C   UNL     1      -7.458  -0.658 125.174  0.00  0.00    +0.000 C 
ATOM     22  C   UNL     1      -8.348  -0.834 123.971  0.00  0.00    +0.000 C 
ATOM     23  O   UNL     1      -9.442  -1.661 124.376  0.00  0.00    +0.000 OA
ATOM     24  C   UNL     1      -9.089  -2.264 125.540  0.00  0.00    +0.000 C 
ATOM     25  O   UNL     1      -9.773  -3.129 126.069  0.00  0.00    +0.000 OA
BRANCH  22  26
ATOM     26  C   UNL     1      -8.900   0.451 123.436  0.00  0.00    +0.000 C 
BRANCH  26  27
ATOM     27  O   UNL     1      -7.927   1.535 123.418  0.00  0.00    +0.000 OA
BRANCH  27  28
ATOM     28  P   UNL     1      -8.378   2.912 124.363  0.00  0.00    +0.000 P 
ATOM     29  O   UNL     1      -8.779   4.146 125.209  0.00  0.00    +0.000 OA
BRANCH  28  30
ATOM     30  O   UNL     1      -8.463   3.763 122.966  0.00  0.00    +0.000 OA
ATOM     31  H   UNL     1      -8.390   4.721 123.093  0.00  0.00    +0.000 HD
ENDBRANCH  28  30
BRANCH  28  32
ATOM     32  O   UNL     1      -9.884   2.270 124.329  0.00  0.00    +0.000 OA
ATOM     33  H   UNL     1      -9.944   1.485 123.758  0.00  0.00    +0.000 HD
ENDBRANCH  28  32
ENDBRANCH  27  28
ENDBRANCH  26  27
ENDBRANCH  22  26
ENDBRANCH   4  20
TORSDOF 8
ENDMDL
MODEL 5
REMARK VINA RESULT:      -7.8      5.664      6.707
REMARK  Name = Tedizolid phosphate
REMARK  9 active torsions:
REMARK  status: ('A' for Active; 'I' for Inactive)
REMARK    1  A    between atoms: C_1  and  N_2
REMARK    2  A    between atoms: C_5  and  C_7
REMARK    3  A    between atoms: C_10  and  C_13
REMARK    4  A    between atoms: C_16  and  N_20
REMARK    5  A    between atoms: C_22  and  C_23
REMARK    6  A    between atoms: C_23  and  O_24
REMARK    7  A    between atoms: O_24  and  P_25
REMARK    8  A    between atoms: P_25  and  O_26
REMARK    9  A    between atoms: P_25  and  O_27
REMARK                            x       y       z     vdW  Elec       q    Type
REMARK                         _______ _______ _______ _____ _____    ______ ____
ROOT
ATOM      1  C   UNL     1      -8.177   1.517 131.796  0.00  0.00    +0.000 A 
ATOM      2  C   UNL     1      -8.660   2.393 132.785  0.00  0.00    +0.000 A 
ATOM      3  C   UNL     1      -9.239   3.613 132.435  0.00  0.00    +0.000 A 
ATOM      4  C   UNL     1      -9.393   3.937 131.087  0.00  0.00    +0.000 A 
ATOM      5  C   UNL     1      -8.951   3.073 130.092  0.00  0.00    +0.000 A 
ATOM      6  C   UNL     1      -8.329   1.889 130.452  0.00  0.00    +0.000 A 
ATOM      7  F   UNL     1      -7.870   1.094 129.474  0.00  0.00    +0.000 F 
ENDROOT
BRANCH   1  11
ATOM      8  C   UNL     1      -6.256  -2.099 132.856  0.00  0.00    +0.000 A 
ATOM      9  C   UNL     1      -7.620  -2.131 132.583  0.00  0.00    +0.000 A 
ATOM     10  C   UNL     1      -8.263  -0.942 132.238  0.00  0.00    +0.000 A 
ATOM     11  C   UNL     1      -7.539   0.252 132.159  0.00  0.00    +0.000 A 
ATOM     12  C   UNL     1      -6.179   0.178 132.454  0.00  0.00    +0.000 A 
ATOM     13  N   UNL     1      -5.523  -0.957 132.795  0.00  0.00    +0.000 NA
BRANCH   8  18
ATOM     14  C   UNL     1      -2.867  -5.421 133.795  0.00  0.00    +0.000 C 
ATOM     15  N   UNL     1      -4.132  -4.754 133.651  0.00  0.00    +0.000 N 
ATOM     16  N   UNL     1      -5.298  -5.372 133.897  0.00  0.00    +0.000 NA
ATOM     17  N   UNL     1      -6.224  -4.458 133.633  0.00  0.00    +0.000 NA
ATOM     18  C   UNL     1      -5.557  -3.324 133.222  0.00  0.00    +0.000 A 
ATOM     19  N   UNL     1      -4.218  -3.476 133.250  0.00  0.00    +0.000 NA
ENDBRANCH   8  18
ENDBRANCH   1  11
BRANCH   4  20
ATOM     20  N   UNL     1      -9.984   5.136 130.716  0.00  0.00    +0.000 N 
ATOM     21  C   UNL     1     -11.359   5.246 130.381  0.00  0.00    +0.000 C 
ATOM     22  C   UNL     1     -11.543   6.741 130.422  0.00  0.00    +0.000 C 
ATOM     23  O   UNL     1     -10.238   7.325 130.376  0.00  0.00    +0.000 OA
ATOM     24  C   UNL     1      -9.343   6.350 130.680  0.00  0.00    +0.000 C 
ATOM     25  O   UNL     1      -8.152   6.575 130.841  0.00  0.00    +0.000 OA
BRANCH  22  26
ATOM     26  C   UNL     1     -12.343   7.283 129.279  0.00  0.00    +0.000 C 
BRANCH  26  27
ATOM     27  O   UNL     1     -12.197   6.510 128.053  0.00  0.00    +0.000 OA
BRANCH  27  28
ATOM     28  P   UNL     1     -11.424   7.363 126.762  0.00  0.00    +0.000 P 
ATOM     29  O   UNL     1     -10.733   8.127 125.605  0.00  0.00    +0.000 OA
BRANCH  28  30
ATOM     30  O   UNL     1     -11.376   8.674 127.742  0.00  0.00    +0.000 OA
ATOM     31  H   UNL     1     -11.538   8.464 128.675  0.00  0.00    +0.000 HD
ENDBRANCH  28  30
BRANCH  28  32
ATOM     32  O   UNL     1     -10.053   6.637 127.288  0.00  0.00    +0.000 OA
ATOM     33  H   UNL     1      -9.250   7.123 127.034  0.00  0.00    +0.000 HD
ENDBRANCH  28  32
ENDBRANCH  27  28
ENDBRANCH  26  27
ENDBRANCH  22  26
ENDBRANCH   4  20
TORSDOF 8
ENDMDL
MODEL 6
REMARK VINA RESULT:      -7.6      8.868     11.810
REMARK  Name = Tedizolid phosphate
REMARK  9 active torsions:
REMARK  status: ('A' for Active; 'I' for Inactive)
REMARK    1  A    between atoms: C_1  and  N_2
REMARK    2  A    between atoms: C_5  and  C_7
REMARK    3  A    between atoms: C_10  and  C_13
REMARK    4  A    between atoms: C_16  and  N_20
REMARK    5  A    between atoms: C_22  and  C_23
REMARK    6  A    between atoms: C_23  and  O_24
REMARK    7  A    between atoms: O_24  and  P_25
REMARK    8  A    between atoms: P_25  and  O_26
REMARK    9  A    between atoms: P_25  and  O_27
REMARK                            x       y       z     vdW  Elec       q    Type
REMARK                         _______ _______ _______ _____ _____    ______ ____
ROOT
ATOM      1  C   UNL     1      -6.935   2.152 131.761  0.00  0.00    +0.000 A 
ATOM      2  C   UNL     1      -6.052   1.709 130.760  0.00  0.00    +0.000 A 
ATOM      3  C   UNL     1      -4.940   0.931 131.084  0.00  0.00    +0.000 A 
ATOM      4  C   UNL     1      -4.740   0.540 132.408  0.00  0.00    +0.000 A 
ATOM      5  C   UNL     1      -5.617   0.941 133.410  0.00  0.00    +0.000 A 
ATOM      6  C   UNL     1      -6.687   1.758 133.083  0.00  0.00    +0.000 A 
ATOM      7  F   UNL     1      -7.492   2.169 134.074  0.00  0.00    +0.000 F 
ENDROOT
BRANCH   1  11
ATOM      8  C   UNL     1     -10.208   4.664 130.828  0.00  0.00    +0.000 A 
ATOM      9  C   UNL     1     -10.345   3.295 130.618  0.00  0.00    +0.000 A 
ATOM     10  C   UNL     1      -9.268   2.459 130.917  0.00  0.00    +0.000 A 
ATOM     11  C   UNL     1      -8.083   2.996 131.430  0.00  0.00    +0.000 A 
ATOM     12  C   UNL     1      -8.047   4.379 131.601  0.00  0.00    +0.000 A 
ATOM     13  N   UNL     1      -9.070   5.220 131.318  0.00  0.00    +0.000 NA
BRANCH   8  18
ATOM     14  C   UNL     1     -13.600   7.266 128.564  0.00  0.00    +0.000 C 
ATOM     15  N   UNL     1     -12.784   6.666 129.584  0.00  0.00    +0.000 N 
ATOM     16  N   UNL     1     -12.948   6.945 130.887  0.00  0.00    +0.000 NA
ATOM     17  N   UNL     1     -12.013   6.233 131.502  0.00  0.00    +0.000 NA
ATOM     18  C   UNL     1     -11.314   5.562 130.521  0.00  0.00    +0.000 A 
ATOM     19  N   UNL     1     -11.803   5.798 129.288  0.00  0.00    +0.000 NA
ENDBRANCH   8  18
ENDBRANCH   1  11
BRANCH   4  20
ATOM     20  N   UNL     1      -3.652  -0.251 132.750  0.00  0.00    +0.000 N 
ATOM     21  C   UNL     1      -2.717   0.118 133.753  0.00  0.00    +0.000 C 
ATOM     22  C   UNL     1      -2.001  -1.191 133.967  0.00  0.00    +0.000 C 
ATOM     23  O   UNL     1      -2.302  -2.022 132.844  0.00  0.00    +0.000 OA
ATOM     24  C   UNL     1      -3.377  -1.484 132.213  0.00  0.00    +0.000 C 
ATOM     25  O   UNL     1      -3.946  -2.042 131.285  0.00  0.00    +0.000 OA
BRANCH  22  26
ATOM     26  C   UNL     1      -0.514  -1.055 134.071  0.00  0.00    +0.000 C 
BRANCH  26  27
ATOM     27  O   UNL     1       0.200  -2.290 133.776  0.00  0.00    +0.000 OA
BRANCH  27  28
ATOM     28  P   UNL     1       0.374  -3.352 135.131  0.00  0.00    +0.000 P 
ATOM     29  O   UNL     1       0.528  -4.303 136.344  0.00  0.00    +0.000 OA
BRANCH  28  30
ATOM     30  O   UNL     1      -0.742  -4.324 134.429  0.00  0.00    +0.000 OA
ATOM     31  H   UNL     1      -1.462  -4.578 135.026  0.00  0.00    +0.000 HD
ENDBRANCH  28  30
BRANCH  28  32
ATOM     32  O   UNL     1       1.693  -3.917 134.342  0.00  0.00    +0.000 OA
ATOM     33  H   UNL     1       2.092  -3.253 133.755  0.00  0.00    +0.000 HD
ENDBRANCH  28  32
ENDBRANCH  27  28
ENDBRANCH  26  27
ENDBRANCH  22  26
ENDBRANCH   4  20
TORSDOF 8
ENDMDL
MODEL 7
REMARK VINA RESULT:      -7.4      6.134     11.408
REMARK  Name = Tedizolid phosphate
REMARK  9 active torsions:
REMARK  status: ('A' for Active; 'I' for Inactive)
REMARK    1  A    between atoms: C_1  and  N_2
REMARK    2  A    between atoms: C_5  and  C_7
REMARK    3  A    between atoms: C_10  and  C_13
REMARK    4  A    between atoms: C_16  and  N_20
REMARK    5  A    between atoms: C_22  and  C_23
REMARK    6  A    between atoms: C_23  and  O_24
REMARK    7  A    between atoms: O_24  and  P_25
REMARK    8  A    between atoms: P_25  and  O_26
REMARK    9  A    between atoms: P_25  and  O_27
REMARK                            x       y       z     vdW  Elec       q    Type
REMARK                         _______ _______ _______ _____ _____    ______ ____
ROOT
ATOM      1  C   UNL     1      -6.426   1.175 126.142  0.00  0.00    +0.000 A 
ATOM      2  C   UNL     1      -5.419   0.302 126.589  0.00  0.00    +0.000 A 
ATOM      3  C   UNL     1      -5.586  -0.439 127.760  0.00  0.00    +0.000 A 
ATOM      4  C   UNL     1      -6.791  -0.355 128.457  0.00  0.00    +0.000 A 
ATOM      5  C   UNL     1      -7.812   0.479 128.018  0.00  0.00    +0.000 A 
ATOM      6  C   UNL     1      -7.614   1.250 126.884  0.00  0.00    +0.000 A 
ATOM      7  F   UNL     1      -8.596   2.081 126.506  0.00  0.00    +0.000 F 
ENDROOT
BRANCH   1  11
ATOM      8  C   UNL     1      -5.843   3.556 122.696  0.00  0.00    +0.000 A 
ATOM      9  C   UNL     1      -6.597   2.393 122.574  0.00  0.00    +0.000 A 
ATOM     10  C   UNL     1      -6.789   1.598 123.705  0.00  0.00    +0.000 A 
ATOM     11  C   UNL     1      -6.241   1.979 124.934  0.00  0.00    +0.000 A 
ATOM     12  C   UNL     1      -5.502   3.160 124.949  0.00  0.00    +0.000 A 
ATOM     13  N   UNL     1      -5.292   3.954 123.871  0.00  0.00    +0.000 NA
BRANCH   8  18
ATOM     14  C   UNL     1      -6.084   5.620 118.326  0.00  0.00    +0.000 C 
ATOM     15  N   UNL     1      -5.717   5.319 119.684  0.00  0.00    +0.000 N 
ATOM     16  N   UNL     1      -4.755   5.994 120.331  0.00  0.00    +0.000 NA
ATOM     17  N   UNL     1      -4.690   5.421 121.526  0.00  0.00    +0.000 NA
ATOM     18  C   UNL     1      -5.622   4.405 121.532  0.00  0.00    +0.000 A 
ATOM     19  N   UNL     1      -6.312   4.334 120.377  0.00  0.00    +0.000 NA
ENDBRANCH   8  18
ENDBRANCH   1  11
BRANCH   4  20
ATOM     20  N   UNL     1      -6.987  -1.098 129.613  0.00  0.00    +0.000 N 
ATOM     21  C   UNL     1      -6.491  -0.696 130.881  0.00  0.00    +0.000 C 
ATOM     22  C   UNL     1      -7.263  -1.614 131.792  0.00  0.00    +0.000 C 
ATOM     23  O   UNL     1      -7.786  -2.667 130.980  0.00  0.00    +0.000 OA
ATOM     24  C   UNL     1      -7.712  -2.261 129.687  0.00  0.00    +0.000 C 
ATOM     25  O   UNL     1      -8.200  -2.901 128.765  0.00  0.00    +0.000 OA
BRANCH  22  26
ATOM     26  C   UNL     1      -6.433  -2.223 132.879  0.00  0.00    +0.000 C 
BRANCH  26  27
ATOM     27  O   UNL     1      -5.034  -1.824 132.831  0.00  0.00    +0.000 OA
BRANCH  27  28
ATOM     28  P   UNL     1      -3.918  -3.145 132.759  0.00  0.00    +0.000 P 
ATOM     29  O   UNL     1      -2.921  -4.328 132.696  0.00  0.00    +0.000 OA
BRANCH  28  30
ATOM     30  O   UNL     1      -4.954  -3.880 131.725  0.00  0.00    +0.000 OA
ATOM     31  H   UNL     1      -4.533  -4.178 130.905  0.00  0.00    +0.000 HD
ENDBRANCH  28  30
BRANCH  28  32
ATOM     32  O   UNL     1      -3.118  -2.229 131.663  0.00  0.00    +0.000 OA
ATOM     33  H   UNL     1      -2.497  -1.605 132.077  0.00  0.00    +0.000 HD
ENDBRANCH  28  32
ENDBRANCH  27  28
ENDBRANCH  26  27
ENDBRANCH  22  26
ENDBRANCH   4  20
TORSDOF 8
ENDMDL
MODEL 8
REMARK VINA RESULT:      -7.4      8.237     11.314
REMARK  Name = Tedizolid phosphate
REMARK  9 active torsions:
REMARK  status: ('A' for Active; 'I' for Inactive)
REMARK    1  A    between atoms: C_1  and  N_2
REMARK    2  A    between atoms: C_5  and  C_7
REMARK    3  A    between atoms: C_10  and  C_13
REMARK    4  A    between atoms: C_16  and  N_20
REMARK    5  A    between atoms: C_22  and  C_23
REMARK    6  A    between atoms: C_23  and  O_24
REMARK    7  A    between atoms: O_24  and  P_25
REMARK    8  A    between atoms: P_25  and  O_26
REMARK    9  A    between atoms: P_25  and  O_27
REMARK                            x       y       z     vdW  Elec       q    Type
REMARK                         _______ _______ _______ _____ _____    ______ ____
ROOT
ATOM      1  C   UNL     1      -7.568   1.484 131.765  0.00  0.00    +0.000 A 
ATOM      2  C   UNL     1      -6.217   1.802 131.989  0.00  0.00    +0.000 A 
ATOM      3  C   UNL     1      -5.289   0.804 132.290  0.00  0.00    +0.000 A 
ATOM      4  C   UNL     1      -5.700  -0.529 132.308  0.00  0.00    +0.000 A 
ATOM      5  C   UNL     1      -7.025  -0.870 132.061  0.00  0.00    +0.000 A 
ATOM      6  C   UNL     1      -7.947   0.135 131.817  0.00  0.00    +0.000 A 
ATOM      7  F   UNL     1      -9.227  -0.216 131.627  0.00  0.00    +0.000 F 
ENDROOT
BRANCH   1  11
ATOM      8  C   UNL     1     -10.417   4.479 130.870  0.00  0.00    +0.000 A 
ATOM      9  C   UNL     1      -9.836   4.477 132.134  0.00  0.00    +0.000 A 
ATOM     10  C   UNL     1      -8.900   3.489 132.440  0.00  0.00    +0.000 A 
ATOM     11  C   UNL     1      -8.549   2.531 131.483  0.00  0.00    +0.000 A 
ATOM     12  C   UNL     1      -9.190   2.620 130.249  0.00  0.00    +0.000 A 
ATOM     13  N   UNL     1     -10.105   3.562 129.918  0.00  0.00    +0.000 NA
BRANCH   8  18
ATOM     14  C   UNL     1     -13.449   7.400 128.486  0.00  0.00    +0.000 C 
ATOM     15  N   UNL     1     -12.718   6.740 129.534  0.00  0.00    +0.000 N 
ATOM     16  N   UNL     1     -12.849   7.086 130.824  0.00  0.00    +0.000 NA
ATOM     17  N   UNL     1     -12.013   6.286 131.472  0.00  0.00    +0.000 NA
ATOM     18  C   UNL     1     -11.400   5.497 130.522  0.00  0.00    +0.000 A 
ATOM     19  N   UNL     1     -11.852   5.747 129.277  0.00  0.00    +0.000 NA
ENDBRANCH   8  18
ENDBRANCH   1  11
BRANCH   4  20
ATOM     20  N   UNL     1      -4.791  -1.540 132.586  0.00  0.00    +0.000 N 
ATOM     21  C   UNL     1      -4.825  -2.299 133.785  0.00  0.00    +0.000 C 
ATOM     22  C   UNL     1      -3.909  -3.439 133.425  0.00  0.00    +0.000 C 
ATOM     23  O   UNL     1      -3.164  -3.031 132.275  0.00  0.00    +0.000 OA
ATOM     24  C   UNL     1      -3.800  -1.962 131.733  0.00  0.00    +0.000 C 
ATOM     25  O   UNL     1      -3.468  -1.467 130.666  0.00  0.00    +0.000 OA
BRANCH  22  26
ATOM     26  C   UNL     1      -2.943  -3.803 134.509  0.00  0.00    +0.000 C 
BRANCH  26  27
ATOM     27  O   UNL     1      -1.556  -3.822 134.065  0.00  0.00    +0.000 OA
BRANCH  27  28
ATOM     28  P   UNL     1      -0.524  -2.716 134.907  0.00  0.00    +0.000 P 
ATOM     29  O   UNL     1       0.399  -1.728 135.661  0.00  0.00    +0.000 OA
BRANCH  28  30
ATOM     30  O   UNL     1       0.751  -3.506 134.249  0.00  0.00    +0.000 OA
ATOM     31  H   UNL     1       0.556  -4.427 134.017  0.00  0.00    +0.000 HD
ENDBRANCH  28  30
BRANCH  28  32
ATOM     32  O   UNL     1      -0.829  -1.700 133.659  0.00  0.00    +0.000 OA
ATOM     33  H   UNL     1      -0.176  -0.982 133.591  0.00  0.00    +0.000 HD
ENDBRANCH  28  32
ENDBRANCH  27  28
ENDBRANCH  26  27
ENDBRANCH  22  26
ENDBRANCH   4  20
TORSDOF 8
ENDMDL
MODEL 9
REMARK VINA RESULT:      -7.3      7.373      8.992
REMARK  Name = Tedizolid phosphate
REMARK  9 active torsions:
REMARK  status: ('A' for Active; 'I' for Inactive)
REMARK    1  A    between atoms: C_1  and  N_2
REMARK    2  A    between atoms: C_5  and  C_7
REMARK    3  A    between atoms: C_10  and  C_13
REMARK    4  A    between atoms: C_16  and  N_20
REMARK    5  A    between atoms: C_22  and  C_23
REMARK    6  A    between atoms: C_23  and  O_24
REMARK    7  A    between atoms: O_24  and  P_25
REMARK    8  A    between atoms: P_25  and  O_26
REMARK    9  A    between atoms: P_25  and  O_27
REMARK                            x       y       z     vdW  Elec       q    Type
REMARK                         _______ _______ _______ _____ _____    ______ ____
ROOT
ATOM      1  C   UNL     1      -5.033   4.153 127.909  0.00  0.00    +0.000 A 
ATOM      2  C   UNL     1      -4.483   3.619 126.730  0.00  0.00    +0.000 A 
ATOM      3  C   UNL     1      -5.288   2.950 125.807  0.00  0.00    +0.000 A 
ATOM      4  C   UNL     1      -6.662   2.865 126.032  0.00  0.00    +0.000 A 
ATOM      5  C   UNL     1      -7.232   3.411 127.176  0.00  0.00    +0.000 A 
ATOM      6  C   UNL     1      -6.416   4.026 128.110  0.00  0.00    +0.000 A 
ATOM      7  F   UNL     1      -6.983   4.504 129.227  0.00  0.00    +0.000 F 
ENDROOT
BRANCH   1  11
ATOM      8  C   UNL     1      -2.598   6.173 130.716  0.00  0.00    +0.000 A 
ATOM      9  C   UNL     1      -2.833   4.814 130.902  0.00  0.00    +0.000 A 
ATOM     10  C   UNL     1      -3.640   4.141 129.984  0.00  0.00    +0.000 A 
ATOM     11  C   UNL     1      -4.188   4.826 128.895  0.00  0.00    +0.000 A 
ATOM     12  C   UNL     1      -3.894   6.185 128.800  0.00  0.00    +0.000 A 
ATOM     13  N   UNL     1      -3.118   6.870 129.674  0.00  0.00    +0.000 NA
BRANCH   8  18
ATOM     14  C   UNL     1      -0.878   9.412 133.871  0.00  0.00    +0.000 C 
ATOM     15  N   UNL     1      -1.011   8.257 133.025  0.00  0.00    +0.000 N 
ATOM     16  N   UNL     1      -0.036   7.344 132.902  0.00  0.00    +0.000 NA
ATOM     17  N   UNL     1      -0.511   6.462 132.032  0.00  0.00    +0.000 NA
ATOM     18  C   UNL     1      -1.762   6.903 131.660  0.00  0.00    +0.000 A 
ATOM     19  N   UNL     1      -2.120   8.035 132.300  0.00  0.00    +0.000 NA
ENDBRANCH   8  18
ENDBRANCH   1  11
BRANCH   4  20
ATOM     20  N   UNL     1      -7.484   2.221 125.118  0.00  0.00    +0.000 N 
ATOM     21  C   UNL     1      -7.660   0.812 125.099  0.00  0.00    +0.000 C 
ATOM     22  C   UNL     1      -8.870   0.690 124.210  0.00  0.00    +0.000 C 
ATOM     23  O   UNL     1      -9.011   1.933 123.519  0.00  0.00    +0.000 OA
ATOM     24  C   UNL     1      -8.256   2.852 124.174  0.00  0.00    +0.000 C 
ATOM     25  O   UNL     1      -8.271   4.042 123.891  0.00  0.00    +0.000 OA
BRANCH  22  26
ATOM     26  C   UNL     1      -8.765  -0.406 123.195  0.00  0.00    +0.000 C 
BRANCH  26  27
ATOM     27  O   UNL     1      -9.700  -1.498 123.424  0.00  0.00    +0.000 OA
BRANCH  27  28
ATOM     28  P   UNL     1      -8.998  -2.891 124.174  0.00  0.00    +0.000 P 
ATOM     29  O   UNL     1      -8.369  -4.136 124.845  0.00  0.00    +0.000 OA
BRANCH  28  30
ATOM     30  O   UNL     1      -9.810  -2.486 125.537  0.00  0.00    +0.000 OA
ATOM     31  H   UNL     1     -10.475  -3.142 125.799  0.00  0.00    +0.000 HD
ENDBRANCH  28  30
BRANCH  28  32
ATOM     32  O   UNL     1     -10.199  -3.723 123.434  0.00  0.00    +0.000 OA
ATOM     33  H   UNL     1     -10.545  -3.264 122.649  0.00  0.00    +0.000 HD
ENDBRANCH  28  32
ENDBRANCH  27  28
ENDBRANCH  26  27
ENDBRANCH  22  26
ENDBRANCH   4  20
TORSDOF 8
ENDMDL
