MODEL 1
REMARK VINA RESULT:      -7.9      0.000      0.000
REMARK  Name = Tedizolid
REMARK  6 active torsions:
REMARK  status: ('A' for Active; 'I' for Inactive)
REMARK    1  A    between atoms: C_1  and  N_2
REMARK    2  A    between atoms: C_5  and  C_7
REMARK    3  A    between atoms: C_10  and  C_13
REMARK    4  A    between atoms: C_17  and  N_20
REMARK    5  A    between atoms: C_22  and  C_23
REMARK    6  A    between atoms: C_23  and  O_24
REMARK                            x       y       z     vdW  Elec       q    Type
REMARK                         _______ _______ _______ _____ _____    ______ ____
ROOT
ATOM      1  C   UNL     1      -6.236  -2.753 128.465  0.00  0.00    +0.000 A 
ATOM      2  C   UNL     1      -7.637  -2.682 128.435  0.00  0.00    +0.000 A 
ATOM      3  F   UNL     1      -8.348  -3.080 129.502  0.00  0.00    +0.000 F 
ATOM      4  C   UNL     1      -8.333  -2.207 127.321  0.00  0.00    +0.000 A 
ATOM      5  C   UNL     1      -7.629  -1.837 126.177  0.00  0.00    +0.000 A 
ATOM      6  C   UNL     1      -6.234  -1.912 126.175  0.00  0.00    +0.000 A 
ATOM      7  C   UNL     1      -5.542  -2.338 127.317  0.00  0.00    +0.000 A 
ENDROOT
BRANCH   1  11
ATOM      8  C   UNL     1      -4.108  -4.116 131.871  0.00  0.00    +0.000 A 
ATOM      9  N   UNL     1      -3.680  -2.997 131.230  0.00  0.00    +0.000 NA
ATOM     10  C   UNL     1      -4.390  -2.599 130.145  0.00  0.00    +0.000 A 
ATOM     11  C   UNL     1      -5.521  -3.246 129.648  0.00  0.00    +0.000 A 
ATOM     12  C   UNL     1      -5.939  -4.386 130.344  0.00  0.00    +0.000 A 
ATOM     13  C   UNL     1      -5.227  -4.833 131.459  0.00  0.00    +0.000 A 
BRANCH   8  18
ATOM     14  C   UNL     1      -0.933  -4.446 135.508  0.00  0.00    +0.000 C 
ATOM     15  N   UNL     1      -2.017  -4.718 134.603  0.00  0.00    +0.000 N 
ATOM     16  N   UNL     1      -2.752  -5.838 134.685  0.00  0.00    +0.000 NA
ATOM     17  N   UNL     1      -3.616  -5.745 133.682  0.00  0.00    +0.000 NA
ATOM     18  C   UNL     1      -3.342  -4.562 133.029  0.00  0.00    +0.000 A 
ATOM     19  N   UNL     1      -2.343  -3.871 133.613  0.00  0.00    +0.000 NA
ENDBRANCH   8  18
ENDBRANCH   1  11
BRANCH   5  20
ATOM     20  N   UNL     1      -8.297  -1.396 125.025  0.00  0.00    +0.000 N 
ATOM     21  C   UNL     1      -8.401  -0.028 124.633  0.00  0.00    +0.000 C 
ATOM     22  C   UNL     1      -8.956  -0.136 123.219  0.00  0.00    +0.000 C 
ATOM     23  O   UNL     1      -9.512  -1.459 123.141  0.00  0.00    +0.000 OA
ATOM     24  C   UNL     1      -8.973  -2.214 124.148  0.00  0.00    +0.000 C 
ATOM     25  O   UNL     1      -9.148  -3.422 124.242  0.00  0.00    +0.000 OA
BRANCH  22  26
ATOM     26  C   UNL     1      -9.990   0.953 122.914  0.00  0.00    +0.000 C 
BRANCH  26  27
ATOM     27  O   UNL     1     -11.309   0.466 122.706  0.00  0.00    +0.000 OA
ATOM     28  H   UNL     1     -11.933   1.152 123.008  0.00  0.00    +0.000 HD
ENDBRANCH  26  27
ENDBRANCH  22  26
ENDBRANCH   5  20
TORSDOF 5
ENDMDL
MODEL 2
REMARK VINA RESULT:      -7.7      1.761      2.119
REMARK  Name = Tedizolid
REMARK  6 active torsions:
REMARK  status: ('A' for Active; 'I' for Inactive)
REMARK    1  A    between atoms: C_1  and  N_2
REMARK    2  A    between atoms: C_5  and  C_7
REMARK    3  A    between atoms: C_10  and  C_13
REMARK    4  A    between atoms: C_17  and  N_20
REMARK    5  A    between atoms: C_22  and  C_23
REMARK    6  A    between atoms: C_23  and  O_24
REMARK                            x       y       z     vdW  Elec       q    Type
REMARK                         _______ _______ _______ _____ _____    ______ ____
ROOT
ATOM      1  C   UNL     1      -7.007  -3.109 128.978  0.00  0.00    +0.000 A 
ATOM      2  C   UNL     1      -6.123  -2.349 128.197  0.00  0.00    +0.000 A 
ATOM      3  F   UNL     1      -4.890  -2.081 128.656  0.00  0.00    +0.000 F 
ATOM      4  C   UNL     1      -6.479  -1.853 126.942  0.00  0.00    +0.000 A 
ATOM      5  C   UNL     1      -7.769  -2.066 126.459  0.00  0.00    +0.000 A 
ATOM      6  C   UNL     1      -8.674  -2.807 127.223  0.00  0.00    +0.000 A 
ATOM      7  C   UNL     1      -8.289  -3.347 128.457  0.00  0.00    +0.000 A 
ENDROOT
BRANCH   1  11
ATOM      8  C   UNL     1      -5.910  -4.552 132.812  0.00  0.00    +0.000 A 
ATOM      9  N   UNL     1      -6.779  -3.512 132.722  0.00  0.00    +0.000 NA
ATOM     10  C   UNL     1      -7.101  -3.083 131.477  0.00  0.00    +0.000 A 
ATOM     11  C   UNL     1      -6.612  -3.631 130.292  0.00  0.00    +0.000 A 
ATOM     12  C   UNL     1      -5.730  -4.710 130.425  0.00  0.00    +0.000 A 
ATOM     13  C   UNL     1      -5.368  -5.173 131.691  0.00  0.00    +0.000 A 
BRANCH   8  18
ATOM     14  C   UNL     1      -3.523  -5.565 136.898  0.00  0.00    +0.000 C 
ATOM     15  N   UNL     1      -4.560  -5.433 135.911  0.00  0.00    +0.000 N 
ATOM     16  N   UNL     1      -5.803  -5.897 136.114  0.00  0.00    +0.000 NA
ATOM     17  N   UNL     1      -6.451  -5.622 134.988  0.00  0.00    +0.000 NA
ATOM     18  C   UNL     1      -5.546  -5.010 134.148  0.00  0.00    +0.000 A 
ATOM     19  N   UNL     1      -4.337  -4.851 134.721  0.00  0.00    +0.000 NA
ENDBRANCH   8  18
ENDBRANCH   1  11
BRANCH   5  20
ATOM     20  N   UNL     1      -8.176  -1.545 125.221  0.00  0.00    +0.000 N 
ATOM     21  C   UNL     1      -8.466  -0.168 124.988  0.00  0.00    +0.000 C 
ATOM     22  C   UNL     1      -8.574  -0.112 123.470  0.00  0.00    +0.000 C 
ATOM     23  O   UNL     1      -8.782  -1.474 123.064  0.00  0.00    +0.000 OA
ATOM     24  C   UNL     1      -8.389  -2.295 124.086  0.00  0.00    +0.000 C 
ATOM     25  O   UNL     1      -8.313  -3.511 123.972  0.00  0.00    +0.000 OA
BRANCH  22  26
ATOM     26  C   UNL     1      -9.699   0.818 123.000  0.00  0.00    +0.000 C 
BRANCH  26  27
ATOM     27  O   UNL     1     -10.853   0.144 122.516  0.00  0.00    +0.000 OA
ATOM     28  H   UNL     1     -11.010  -0.630 123.089  0.00  0.00    +0.000 HD
ENDBRANCH  26  27
ENDBRANCH  22  26
ENDBRANCH   5  20
TORSDOF 5
ENDMDL
MODEL 3
REMARK VINA RESULT:      -7.6      4.625     10.157
REMARK  Name = Tedizolid
REMARK  6 active torsions:
REMARK  status: ('A' for Active; 'I' for Inactive)
REMARK    1  A    between atoms: C_1  and  N_2
REMARK    2  A    between atoms: C_5  and  C_7
REMARK    3  A    between atoms: C_10  and  C_13
REMARK    4  A    between atoms: C_17  and  N_20
REMARK    5  A    between atoms: C_22  and  C_23
REMARK    6  A    between atoms: C_23  and  O_24
REMARK                            x       y       z     vdW  Elec       q    Type
REMARK                         _______ _______ _______ _____ _____    ______ ____
ROOT
ATOM      1  C   UNL     1      -6.738  -3.610 130.221  0.00  0.00    +0.000 A 
ATOM      2  C   UNL     1      -7.040  -2.926 131.409  0.00  0.00    +0.000 A 
ATOM      3  F   UNL     1      -7.874  -1.874 131.379  0.00  0.00    +0.000 F 
ATOM      4  C   UNL     1      -6.500  -3.302 132.640  0.00  0.00    +0.000 A 
ATOM      5  C   UNL     1      -5.588  -4.354 132.699  0.00  0.00    +0.000 A 
ATOM      6  C   UNL     1      -5.259  -5.042 131.528  0.00  0.00    +0.000 A 
ATOM      7  C   UNL     1      -5.849  -4.693 130.307  0.00  0.00    +0.000 A 
ENDROOT
BRANCH   1  11
ATOM      8  C   UNL     1      -8.367  -2.383 126.503  0.00  0.00    +0.000 A 
ATOM      9  N   UNL     1      -7.211  -1.817 126.935  0.00  0.00    +0.000 NA
ATOM     10  C   UNL     1      -6.727  -2.239 128.130  0.00  0.00    +0.000 A 
ATOM     11  C   UNL     1      -7.324  -3.207 128.937  0.00  0.00    +0.000 A 
ATOM     12  C   UNL     1      -8.506  -3.777 128.451  0.00  0.00    +0.000 A 
ATOM     13  C   UNL     1      -9.040  -3.360 127.230  0.00  0.00    +0.000 A 
BRANCH   8  18
ATOM     14  C   UNL     1      -9.788   0.321 122.749  0.00  0.00    +0.000 C 
ATOM     15  N   UNL     1      -9.497  -0.800 123.601  0.00  0.00    +0.000 N 
ATOM     16  N   UNL     1      -9.801  -2.060 123.253  0.00  0.00    +0.000 NA
ATOM     17  N   UNL     1      -9.415  -2.796 124.288  0.00  0.00    +0.000 NA
ATOM     18  C   UNL     1      -8.904  -1.925 125.227  0.00  0.00    +0.000 A 
ATOM     19  N   UNL     1      -8.918  -0.646 124.804  0.00  0.00    +0.000 NA
ENDBRANCH   8  18
ENDBRANCH   1  11
BRANCH   5  20
ATOM     20  N   UNL     1      -4.992  -4.731 133.911  0.00  0.00    +0.000 N 
ATOM     21  C   UNL     1      -3.642  -4.435 134.267  0.00  0.00    +0.000 C 
ATOM     22  C   UNL     1      -3.606  -4.807 135.743  0.00  0.00    +0.000 C 
ATOM     23  O   UNL     1      -4.745  -5.662 135.936  0.00  0.00    +0.000 OA
ATOM     24  C   UNL     1      -5.612  -5.469 134.895  0.00  0.00    +0.000 C 
ATOM     25  O   UNL     1      -6.736  -5.952 134.865  0.00  0.00    +0.000 OA
BRANCH  22  26
ATOM     26  C   UNL     1      -2.291  -5.485 136.142  0.00  0.00    +0.000 C 
BRANCH  26  27
ATOM     27  O   UNL     1      -1.475  -5.871 135.044  0.00  0.00    +0.000 OA
ATOM     28  H   UNL     1      -1.769  -5.370 134.261  0.00  0.00    +0.000 HD
ENDBRANCH  26  27
ENDBRANCH  22  26
ENDBRANCH   5  20
TORSDOF 5
ENDMDL
MODEL 4
REMARK VINA RESULT:      -7.5      4.590     10.144
REMARK  Name = Tedizolid
REMARK  6 active torsions:
REMARK  status: ('A' for Active; 'I' for Inactive)
REMARK    1  A    between atoms: C_1  and  N_2
REMARK    2  A    between atoms: C_5  and  C_7
REMARK    3  A    between atoms: C_10  and  C_13
REMARK    4  A    between atoms: C_17  and  N_20
REMARK    5  A    between atoms: C_22  and  C_23
REMARK    6  A    between atoms: C_23  and  O_24
REMARK                            x       y       z     vdW  Elec       q    Type
REMARK                         _______ _______ _______ _____ _____    ______ ____
ROOT
ATOM      1  C   UNL     1      -7.051  -3.345 129.918  0.00  0.00    +0.000 A 
ATOM      2  C   UNL     1      -7.406  -2.712 131.119  0.00  0.00    +0.000 A 
ATOM      3  F   UNL     1      -8.247  -1.665 131.097  0.00  0.00    +0.000 F 
ATOM      4  C   UNL     1      -6.914  -3.134 132.356  0.00  0.00    +0.000 A 
ATOM      5  C   UNL     1      -5.998  -4.183 132.409  0.00  0.00    +0.000 A 
ATOM      6  C   UNL     1      -5.615  -4.820 131.226  0.00  0.00    +0.000 A 
ATOM      7  C   UNL     1      -6.157  -4.425 129.996  0.00  0.00    +0.000 A 
ENDROOT
BRANCH   1  11
ATOM      8  C   UNL     1      -8.551  -1.966 126.199  0.00  0.00    +0.000 A 
ATOM      9  N   UNL     1      -7.602  -1.235 126.840  0.00  0.00    +0.000 NA
ATOM     10  C   UNL     1      -7.153  -1.713 128.026  0.00  0.00    +0.000 A 
ATOM     11  C   UNL     1      -7.586  -2.894 128.628  0.00  0.00    +0.000 A 
ATOM     12  C   UNL     1      -8.554  -3.626 127.931  0.00  0.00    +0.000 A 
ATOM     13  C   UNL     1      -9.048  -3.160 126.711  0.00  0.00    +0.000 A 
BRANCH   8  18
ATOM     14  C   UNL     1     -10.051   0.904 122.603  0.00  0.00    +0.000 C 
ATOM     15  N   UNL     1      -9.674  -0.252 123.370  0.00  0.00    +0.000 N 
ATOM     16  N   UNL     1      -9.780  -1.498 122.883  0.00  0.00    +0.000 NA
ATOM     17  N   UNL     1      -9.373  -2.281 123.876  0.00  0.00    +0.000 NA
ATOM     18  C   UNL     1      -9.052  -1.452 124.930  0.00  0.00    +0.000 A 
ATOM     19  N   UNL     1      -9.208  -0.149 124.626  0.00  0.00    +0.000 NA
ENDBRANCH   8  18
ENDBRANCH   1  11
BRANCH   5  20
ATOM     20  N   UNL     1      -5.449  -4.605 133.629  0.00  0.00    +0.000 N 
ATOM     21  C   UNL     1      -6.066  -5.552 134.500  0.00  0.00    +0.000 C 
ATOM     22  C   UNL     1      -4.954  -5.850 135.497  0.00  0.00    +0.000 C 
ATOM     23  O   UNL     1      -4.035  -4.752 135.363  0.00  0.00    +0.000 OA
ATOM     24  C   UNL     1      -4.272  -4.134 134.165  0.00  0.00    +0.000 C 
ATOM     25  O   UNL     1      -3.546  -3.258 133.713  0.00  0.00    +0.000 OA
BRANCH  22  26
ATOM     26  C   UNL     1      -5.479  -6.002 136.929  0.00  0.00    +0.000 C 
BRANCH  26  27
ATOM     27  O   UNL     1      -6.450  -5.035 137.303  0.00  0.00    +0.000 OA
ATOM     28  H   UNL     1      -6.516  -5.037 138.276  0.00  0.00    +0.000 HD
ENDBRANCH  26  27
ENDBRANCH  22  26
ENDBRANCH   5  20
TORSDOF 5
ENDMDL
MODEL 5
REMARK VINA RESULT:      -7.2      6.888      7.904
REMARK  Name = Tedizolid
REMARK  6 active torsions:
REMARK  status: ('A' for Active; 'I' for Inactive)
REMARK    1  A    between atoms: C_1  and  N_2
REMARK    2  A    between atoms: C_5  and  C_7
REMARK    3  A    between atoms: C_10  and  C_13
REMARK    4  A    between atoms: C_17  and  N_20
REMARK    5  A    between atoms: C_22  and  C_23
REMARK    6  A    between atoms: C_23  and  O_24
REMARK                            x       y       z     vdW  Elec       q    Type
REMARK                         _______ _______ _______ _____ _____    ______ ____
ROOT
ATOM      1  C   UNL     1      -8.509   3.024 130.074  0.00  0.00    +0.000 A 
ATOM      2  C   UNL     1      -9.747   2.909 130.726  0.00  0.00    +0.000 A 
ATOM      3  F   UNL     1     -10.066   1.767 131.355  0.00  0.00    +0.000 F 
ATOM      4  C   UNL     1     -10.674   3.953 130.747  0.00  0.00    +0.000 A 
ATOM      5  C   UNL     1     -10.397   5.133 130.059  0.00  0.00    +0.000 A 
ATOM      6  C   UNL     1      -9.179   5.267 129.389  0.00  0.00    +0.000 A 
ATOM      7  C   UNL     1      -8.232   4.234 129.420  0.00  0.00    +0.000 A 
ENDROOT
BRANCH   1  11
ATOM      8  C   UNL     1      -5.656  -0.114 130.101  0.00  0.00    +0.000 A 
ATOM      9  N   UNL     1      -5.346   1.065 130.699  0.00  0.00    +0.000 NA
ATOM     10  C   UNL     1      -6.287   2.040 130.665  0.00  0.00    +0.000 A 
ATOM     11  C   UNL     1      -7.543   1.919 130.071  0.00  0.00    +0.000 A 
ATOM     12  C   UNL     1      -7.831   0.684 129.478  0.00  0.00    +0.000 A 
ATOM     13  C   UNL     1      -6.883  -0.340 129.484  0.00  0.00    +0.000 A 
BRANCH   8  18
ATOM     14  C   UNL     1      -2.838  -3.884 128.977  0.00  0.00    +0.000 C 
ATOM     15  N   UNL     1      -3.412  -2.753 129.654  0.00  0.00    +0.000 N 
ATOM     16  N   UNL     1      -2.973  -2.340 130.854  0.00  0.00    +0.000 NA
ATOM     17  N   UNL     1      -3.753  -1.311 131.160  0.00  0.00    +0.000 NA
ATOM     18  C   UNL     1      -4.645  -1.164 130.118  0.00  0.00    +0.000 A 
ATOM     19  N   UNL     1      -4.432  -2.054 129.129  0.00  0.00    +0.000 NA
ENDBRANCH   8  18
ENDBRANCH   1  11
BRANCH   5  20
ATOM     20  N   UNL     1     -11.323   6.186 130.022  0.00  0.00    +0.000 N 
ATOM     21  C   UNL     1     -11.948   6.663 128.832  0.00  0.00    +0.000 C 
ATOM     22  C   UNL     1     -13.032   7.582 129.379  0.00  0.00    +0.000 C 
ATOM     23  O   UNL     1     -12.624   7.871 130.726  0.00  0.00    +0.000 OA
ATOM     24  C   UNL     1     -11.718   6.923 131.117  0.00  0.00    +0.000 C 
ATOM     25  O   UNL     1     -11.308   6.826 132.266  0.00  0.00    +0.000 OA
BRANCH  22  26
ATOM     26  C   UNL     1     -13.202   8.850 128.534  0.00  0.00    +0.000 C 
BRANCH  26  27
ATOM     27  O   UNL     1     -12.832  10.051 129.199  0.00  0.00    +0.000 OA
ATOM     28  H   UNL     1     -13.523  10.254 129.856  0.00  0.00    +0.000 HD
ENDBRANCH  26  27
ENDBRANCH  22  26
ENDBRANCH   5  20
TORSDOF 5
ENDMDL
MODEL 6
REMARK VINA RESULT:      -7.0      6.685      7.374
REMARK  Name = Tedizolid
REMARK  6 active torsions:
REMARK  status: ('A' for Active; 'I' for Inactive)
REMARK    1  A    between atoms: C_1  and  N_2
REMARK    2  A    between atoms: C_5  and  C_7
REMARK    3  A    between atoms: C_10  and  C_13
REMARK    4  A    between atoms: C_17  and  N_20
REMARK    5  A    between atoms: C_22  and  C_23
REMARK    6  A    between atoms: C_23  and  O_24
REMARK                            x       y       z     vdW  Elec       q    Type
REMARK                         _______ _______ _______ _____ _____    ______ ____
ROOT
ATOM      1  C   UNL     1      -8.814   2.679 130.919  0.00  0.00    +0.000 A 
ATOM      2  C   UNL     1     -10.193   2.928 130.988  0.00  0.00    +0.000 A 
ATOM      3  F   UNL     1     -11.015   1.992 131.490  0.00  0.00    +0.000 F 
ATOM      4  C   UNL     1     -10.754   4.129 130.551  0.00  0.00    +0.000 A 
ATOM      5  C   UNL     1      -9.937   5.100 129.975  0.00  0.00    +0.000 A 
ATOM      6  C   UNL     1      -8.562   4.871 129.879  0.00  0.00    +0.000 A 
ATOM      7  C   UNL     1      -8.002   3.685 130.372  0.00  0.00    +0.000 A 
ENDROOT
BRANCH   1  11
ATOM      8  C   UNL     1      -7.132  -0.937 132.363  0.00  0.00    +0.000 A 
ATOM      9  N   UNL     1      -7.167   0.148 133.180  0.00  0.00    +0.000 NA
ATOM     10  C   UNL     1      -7.712   1.282 132.677  0.00  0.00    +0.000 A 
ATOM     11  C   UNL     1      -8.240   1.413 131.393  0.00  0.00    +0.000 A 
ATOM     12  C   UNL     1      -8.200   0.271 130.585  0.00  0.00    +0.000 A 
ATOM     13  C   UNL     1      -7.636  -0.913 131.067  0.00  0.00    +0.000 A 
BRANCH   8  18
ATOM     14  C   UNL     1      -6.409  -5.253 134.428  0.00  0.00    +0.000 C 
ATOM     15  N   UNL     1      -6.198  -4.007 133.743  0.00  0.00    +0.000 N 
ATOM     16  N   UNL     1      -4.978  -3.601 133.357  0.00  0.00    +0.000 NA
ATOM     17  N   UNL     1      -5.182  -2.414 132.798  0.00  0.00    +0.000 NA
ATOM     18  C   UNL     1      -6.534  -2.157 132.890  0.00  0.00    +0.000 A 
ATOM     19  N   UNL     1      -7.212  -3.170 133.465  0.00  0.00    +0.000 NA
ENDBRANCH   8  18
ENDBRANCH   1  11
BRANCH   5  20
ATOM     20  N   UNL     1     -10.471   6.301 129.485  0.00  0.00    +0.000 N 
ATOM     21  C   UNL     1     -11.311   7.172 130.241  0.00  0.00    +0.000 C 
ATOM     22  C   UNL     1     -11.366   8.415 129.363  0.00  0.00    +0.000 C 
ATOM     23  O   UNL     1     -10.954   7.965 128.061  0.00  0.00    +0.000 OA
ATOM     24  C   UNL     1     -10.293   6.774 128.204  0.00  0.00    +0.000 C 
ATOM     25  O   UNL     1      -9.700   6.227 127.284  0.00  0.00    +0.000 OA
BRANCH  22  26
ATOM     26  C   UNL     1     -12.757   9.057 129.347  0.00  0.00    +0.000 C 
BRANCH  26  27
ATOM     27  O   UNL     1     -13.479   8.863 128.138  0.00  0.00    +0.000 OA
ATOM     28  H   UNL     1     -14.125   8.149 128.286  0.00  0.00    +0.000 HD
ENDBRANCH  26  27
ENDBRANCH  22  26
ENDBRANCH   5  20
TORSDOF 5
ENDMDL
MODEL 7
REMARK VINA RESULT:      -6.9      4.868     10.176
REMARK  Name = Tedizolid
REMARK  6 active torsions:
REMARK  status: ('A' for Active; 'I' for Inactive)
REMARK    1  A    between atoms: C_1  and  N_2
REMARK    2  A    between atoms: C_5  and  C_7
REMARK    3  A    between atoms: C_10  and  C_13
REMARK    4  A    between atoms: C_17  and  N_20
REMARK    5  A    between atoms: C_22  and  C_23
REMARK    6  A    between atoms: C_23  and  O_24
REMARK                            x       y       z     vdW  Elec       q    Type
REMARK                         _______ _______ _______ _____ _____    ______ ____
ROOT
ATOM      1  C   UNL     1      -6.951  -3.289 130.646  0.00  0.00    +0.000 A 
ATOM      2  C   UNL     1      -5.980  -4.240 130.994  0.00  0.00    +0.000 A 
ATOM      3  F   UNL     1      -5.407  -4.988 130.037  0.00  0.00    +0.000 F 
ATOM      4  C   UNL     1      -5.577  -4.442 132.315  0.00  0.00    +0.000 A 
ATOM      5  C   UNL     1      -6.190  -3.720 133.338  0.00  0.00    +0.000 A 
ATOM      6  C   UNL     1      -7.172  -2.778 133.021  0.00  0.00    +0.000 A 
ATOM      7  C   UNL     1      -7.529  -2.544 131.687  0.00  0.00    +0.000 A 
ENDROOT
BRANCH   1  11
ATOM      8  C   UNL     1      -8.052  -2.634 126.603  0.00  0.00    +0.000 A 
ATOM      9  N   UNL     1      -6.945  -2.018 127.093  0.00  0.00    +0.000 NA
ATOM     10  C   UNL     1      -6.631  -2.256 128.391  0.00  0.00    +0.000 A 
ATOM     11  C   UNL     1      -7.354  -3.083 129.250  0.00  0.00    +0.000 A 
ATOM     12  C   UNL     1      -8.480  -3.710 128.704  0.00  0.00    +0.000 A 
ATOM     13  C   UNL     1      -8.840  -3.482 127.374  0.00  0.00    +0.000 A 
BRANCH   8  18
ATOM     14  C   UNL     1      -9.823  -0.711 122.531  0.00  0.00    +0.000 C 
ATOM     15  N   UNL     1      -9.128  -1.563 123.457  0.00  0.00    +0.000 N 
ATOM     16  N   UNL     1      -8.478  -2.668 123.062  0.00  0.00    +0.000 NA
ATOM     17  N   UNL     1      -8.000  -3.194 124.183  0.00  0.00    +0.000 NA
ATOM     18  C   UNL     1      -8.406  -2.373 125.213  0.00  0.00    +0.000 A 
ATOM     19  N   UNL     1      -9.105  -1.307 124.776  0.00  0.00    +0.000 NA
ENDBRANCH   8  18
ENDBRANCH   1  11
BRANCH   5  20
ATOM     20  N   UNL     1      -5.842  -3.928 134.681  0.00  0.00    +0.000 N 
ATOM     21  C   UNL     1      -4.736  -3.301 135.329  0.00  0.00    +0.000 C 
ATOM     22  C   UNL     1      -4.981  -3.643 136.793  0.00  0.00    +0.000 C 
ATOM     23  O   UNL     1      -5.891  -4.755 136.765  0.00  0.00    +0.000 OA
ATOM     24  C   UNL     1      -6.491  -4.792 135.535  0.00  0.00    +0.000 C 
ATOM     25  O   UNL     1      -7.421  -5.542 135.270  0.00  0.00    +0.000 OA
BRANCH  22  26
ATOM     26  C   UNL     1      -3.683  -3.967 137.541  0.00  0.00    +0.000 C 
BRANCH  26  27
ATOM     27  O   UNL     1      -2.512  -3.427 136.944  0.00  0.00    +0.000 OA
ATOM     28  H   UNL     1      -2.085  -4.135 136.428  0.00  0.00    +0.000 HD
ENDBRANCH  26  27
ENDBRANCH  22  26
ENDBRANCH   5  20
TORSDOF 5
ENDMDL
MODEL 8
REMARK VINA RESULT:      -6.9      1.776      2.312
REMARK  Name = Tedizolid
REMARK  6 active torsions:
REMARK  status: ('A' for Active; 'I' for Inactive)
REMARK    1  A    between atoms: C_1  and  N_2
REMARK    2  A    between atoms: C_5  and  C_7
REMARK    3  A    between atoms: C_10  and  C_13
REMARK    4  A    between atoms: C_17  and  N_20
REMARK    5  A    between atoms: C_22  and  C_23
REMARK    6  A    between atoms: C_23  and  O_24
REMARK                            x       y       z     vdW  Elec       q    Type
REMARK                         _______ _______ _______ _____ _____    ______ ____
ROOT
ATOM      1  C   UNL     1      -5.772  -3.276 130.081  0.00  0.00    +0.000 A 
ATOM      2  C   UNL     1      -5.156  -2.951 128.863  0.00  0.00    +0.000 A 
ATOM      3  F   UNL     1      -3.832  -3.120 128.720  0.00  0.00    +0.000 F 
ATOM      4  C   UNL     1      -5.876  -2.451 127.776  0.00  0.00    +0.000 A 
ATOM      5  C   UNL     1      -7.243  -2.212 127.909  0.00  0.00    +0.000 A 
ATOM      6  C   UNL     1      -7.878  -2.513 129.116  0.00  0.00    +0.000 A 
ATOM      7  C   UNL     1      -7.157  -3.066 130.182  0.00  0.00    +0.000 A 
ENDROOT
BRANCH   1  11
ATOM      8  C   UNL     1      -3.485  -4.751 133.334  0.00  0.00    +0.000 A 
ATOM      9  N   UNL     1      -3.149  -3.558 132.779  0.00  0.00    +0.000 NA
ATOM     10  C   UNL     1      -3.907  -3.126 131.741  0.00  0.00    +0.000 A 
ATOM     11  C   UNL     1      -5.001  -3.810 131.210  0.00  0.00    +0.000 A 
ATOM     12  C   UNL     1      -5.325  -5.028 131.818  0.00  0.00    +0.000 A 
ATOM     13  C   UNL     1      -4.561  -5.510 132.883  0.00  0.00    +0.000 A 
BRANCH   8  18
ATOM     14  C   UNL     1      -0.678  -5.047 137.264  0.00  0.00    +0.000 C 
ATOM     15  N   UNL     1      -1.490  -5.390 136.129  0.00  0.00    +0.000 N 
ATOM     16  N   UNL     1      -1.680  -6.662 135.745  0.00  0.00    +0.000 NA
ATOM     17  N   UNL     1      -2.445  -6.574 134.664  0.00  0.00    +0.000 NA
ATOM     18  C   UNL     1      -2.667  -5.232 134.441  0.00  0.00    +0.000 A 
ATOM     19  N   UNL     1      -2.092  -4.453 135.378  0.00  0.00    +0.000 NA
ENDBRANCH   8  18
ENDBRANCH   1  11
BRANCH   5  20
ATOM     20  N   UNL     1      -7.990  -1.670 126.852  0.00  0.00    +0.000 N 
ATOM     21  C   UNL     1      -7.812  -0.350 126.340  0.00  0.00    +0.000 C 
ATOM     22  C   UNL     1      -8.647  -0.381 125.066  0.00  0.00    +0.000 C 
ATOM     23  O   UNL     1      -9.530  -1.503 125.231  0.00  0.00    +0.000 OA
ATOM     24  C   UNL     1      -9.015  -2.319 126.202  0.00  0.00    +0.000 C 
ATOM     25  O   UNL     1      -9.474  -3.425 126.455  0.00  0.00    +0.000 OA
BRANCH  22  26
ATOM     26  C   UNL     1      -9.404   0.931 124.834  0.00  0.00    +0.000 C 
BRANCH  26  27
ATOM     27  O   UNL     1      -9.305   1.862 125.902  0.00  0.00    +0.000 OA
ATOM     28  H   UNL     1      -9.686   2.707 125.599  0.00  0.00    +0.000 HD
ENDBRANCH  26  27
ENDBRANCH  22  26
ENDBRANCH   5  20
TORSDOF 5
ENDMDL
MODEL 9
REMARK VINA RESULT:      -6.8      9.360     10.110
REMARK  Name = Tedizolid
REMARK  6 active torsions:
REMARK  status: ('A' for Active; 'I' for Inactive)
REMARK    1  A    between atoms: C_1  and  N_2
REMARK    2  A    between atoms: C_5  and  C_7
REMARK    3  A    between atoms: C_10  and  C_13
REMARK    4  A    between atoms: C_17  and  N_20
REMARK    5  A    between atoms: C_22  and  C_23
REMARK    6  A    between atoms: C_23  and  O_24
REMARK                            x       y       z     vdW  Elec       q    Type
REMARK                         _______ _______ _______ _____ _____    ______ ____
ROOT
ATOM      1  C   UNL     1      -3.241   5.758 129.814  0.00  0.00    +0.000 A 
ATOM      2  C   UNL     1      -2.832   5.969 128.488  0.00  0.00    +0.000 A 
ATOM      3  F   UNL     1      -1.784   6.768 128.233  0.00  0.00    +0.000 F 
ATOM      4  C   UNL     1      -3.482   5.371 127.407  0.00  0.00    +0.000 A 
ATOM      5  C   UNL     1      -4.606   4.579 127.632  0.00  0.00    +0.000 A 
ATOM      6  C   UNL     1      -5.043   4.365 128.942  0.00  0.00    +0.000 A 
ATOM      7  C   UNL     1      -4.352   4.925 130.024  0.00  0.00    +0.000 A 
ENDROOT
BRANCH   1  11
ATOM      8  C   UNL     1      -1.163   7.504 133.073  0.00  0.00    +0.000 A 
ATOM      9  N   UNL     1      -0.724   6.322 132.567  0.00  0.00    +0.000 NA
ATOM     10  C   UNL     1      -1.419   5.800 131.527  0.00  0.00    +0.000 A 
ATOM     11  C   UNL     1      -2.540   6.387 130.940  0.00  0.00    +0.000 A 
ATOM     12  C   UNL     1      -2.953   7.611 131.479  0.00  0.00    +0.000 A 
ATOM     13  C   UNL     1      -2.268   8.174 132.557  0.00  0.00    +0.000 A 
BRANCH   8  18
ATOM     14  C   UNL     1       0.334  10.312 136.719  0.00  0.00    +0.000 C 
ATOM     15  N   UNL     1       0.215   9.231 135.778  0.00  0.00    +0.000 N 
ATOM     16  N   UNL     1       1.080   8.204 135.757  0.00  0.00    +0.000 NA
ATOM     17  N   UNL     1       0.668   7.441 134.751  0.00  0.00    +0.000 NA
ATOM     18  C   UNL     1      -0.431   8.066 134.202  0.00  0.00    +0.000 A 
ATOM     19  N   UNL     1      -0.761   9.197 134.855  0.00  0.00    +0.000 NA
ENDBRANCH   8  18
ENDBRANCH   1  11
BRANCH   5  20
ATOM     20  N   UNL     1      -5.310   3.998 126.567  0.00  0.00    +0.000 N 
ATOM     21  C   UNL     1      -6.441   4.593 125.934  0.00  0.00    +0.000 C 
ATOM     22  C   UNL     1      -6.628   3.712 124.706  0.00  0.00    +0.000 C 
ATOM     23  O   UNL     1      -5.911   2.504 125.006  0.00  0.00    +0.000 OA
ATOM     24  C   UNL     1      -5.030   2.765 126.021  0.00  0.00    +0.000 C 
ATOM     25  O   UNL     1      -4.181   1.964 126.389  0.00  0.00    +0.000 OA
BRANCH  22  26
ATOM     26  C   UNL     1      -8.106   3.453 124.394  0.00  0.00    +0.000 C 
BRANCH  26  27
ATOM     27  O   UNL     1      -9.013   4.057 125.307  0.00  0.00    +0.000 OA
ATOM     28  H   UNL     1      -8.517   4.713 125.831  0.00  0.00    +0.000 HD
ENDBRANCH  26  27
ENDBRANCH  22  26
ENDBRANCH   5  20
TORSDOF 5
ENDMDL
