MODEL 1
REMARK VINA RESULT:      -6.6      0.000      0.000
REMARK  Name = Tegafur
REMARK  1 active torsions:
REMARK  status: ('A' for Active; 'I' for Inactive)
REMARK    1  A    between atoms: N_4  and  C_5
REMARK                            x       y       z     vdW  Elec       q    Type
REMARK                         _______ _______ _______ _____ _____    ______ ____
ROOT
ATOM      1  F   UNL     1      -7.275   6.527 131.537  0.00  0.00    +0.000 F 
ATOM      2  C   UNL     1      -8.620   6.477 131.490  0.00  0.00    +0.000 A 
ATOM      3  C   UNL     1      -9.318   6.748 130.382  0.00  0.00    +0.000 A 
ATOM      4  N   UNL     1     -10.706   6.777 130.388  0.00  0.00    +0.000 N 
ATOM      5  C   UNL     1     -11.422   6.453 131.542  0.00  0.00    +0.000 A 
ATOM      6  O   UNL     1     -12.640   6.557 131.664  0.00  0.00    +0.000 OA
ATOM      7  N   UNL     1     -10.679   5.991 132.600  0.00  0.00    +0.000 N 
ATOM      8  C   UNL     1      -9.326   6.121 132.734  0.00  0.00    +0.000 A 
ATOM      9  O   UNL     1      -8.751   5.950 133.807  0.00  0.00    +0.000 OA
ATOM     10  H   UNL     1     -11.196   5.762 133.435  0.00  0.00    +0.000 HD
ENDROOT
BRANCH   4  11
ATOM     11  C   UNL     1     -11.469   7.332 129.270  0.00  0.00    +0.000 C 
ATOM     12  C   UNL     1     -12.373   8.525 129.553  0.00  0.00    +0.000 C 
ATOM     13  C   UNL     1     -13.351   8.436 128.401  0.00  0.00    +0.000 C 
ATOM     14  C   UNL     1     -13.509   6.941 128.211  0.00  0.00    +0.000 C 
ATOM     15  O   UNL     1     -12.316   6.314 128.706  0.00  0.00    +0.000 OA
ENDBRANCH   4  11
TORSDOF 1
ENDMDL
MODEL 2
REMARK VINA RESULT:      -6.4      2.323      4.682
REMARK  Name = Tegafur
REMARK  1 active torsions:
REMARK  status: ('A' for Active; 'I' for Inactive)
REMARK    1  A    between atoms: N_4  and  C_5
REMARK                            x       y       z     vdW  Elec       q    Type
REMARK                         _______ _______ _______ _____ _____    ______ ____
ROOT
ATOM      1  F   UNL     1     -11.047   8.698 127.136  0.00  0.00    +0.000 F 
ATOM      2  C   UNL     1     -11.316   8.201 128.359  0.00  0.00    +0.000 A 
ATOM      3  C   UNL     1     -10.367   7.725 129.173  0.00  0.00    +0.000 A 
ATOM      4  N   UNL     1     -10.685   7.136 130.390  0.00  0.00    +0.000 N 
ATOM      5  C   UNL     1     -12.006   7.086 130.836  0.00  0.00    +0.000 A 
ATOM      6  O   UNL     1     -12.385   6.492 131.842  0.00  0.00    +0.000 OA
ATOM      7  N   UNL     1     -12.925   7.757 130.068  0.00  0.00    +0.000 N 
ATOM      8  C   UNL     1     -12.727   8.180 128.784  0.00  0.00    +0.000 A 
ATOM      9  O   UNL     1     -13.654   8.517 128.051  0.00  0.00    +0.000 OA
ATOM     10  H   UNL     1     -13.881   7.717 130.388  0.00  0.00    +0.000 HD
ENDROOT
BRANCH   4  11
ATOM     11  C   UNL     1      -9.699   6.375 131.157  0.00  0.00    +0.000 C 
ATOM     12  C   UNL     1      -8.248   6.835 131.098  0.00  0.00    +0.000 C 
ATOM     13  C   UNL     1      -7.518   5.567 131.489  0.00  0.00    +0.000 C 
ATOM     14  C   UNL     1      -8.368   4.483 130.858  0.00  0.00    +0.000 C 
ATOM     15  O   UNL     1      -9.700   5.002 130.724  0.00  0.00    +0.000 OA
ENDBRANCH   4  11
TORSDOF 1
ENDMDL
MODEL 3
REMARK VINA RESULT:      -6.3      2.774      4.929
REMARK  Name = Tegafur
REMARK  1 active torsions:
REMARK  status: ('A' for Active; 'I' for Inactive)
REMARK    1  A    between atoms: N_4  and  C_5
REMARK                            x       y       z     vdW  Elec       q    Type
REMARK                         _______ _______ _______ _____ _____    ______ ____
ROOT
ATOM      1  F   UNL     1     -13.376   7.993 131.872  0.00  0.00    +0.000 F 
ATOM      2  C   UNL     1     -12.523   7.494 130.958  0.00  0.00    +0.000 A 
ATOM      3  C   UNL     1     -11.895   6.324 131.113  0.00  0.00    +0.000 A 
ATOM      4  N   UNL     1     -10.951   5.879 130.196  0.00  0.00    +0.000 N 
ATOM      5  C   UNL     1     -10.680   6.611 129.039  0.00  0.00    +0.000 A 
ATOM      6  O   UNL     1      -9.791   6.346 128.234  0.00  0.00    +0.000 OA
ATOM      7  N   UNL     1     -11.483   7.702 128.816  0.00  0.00    +0.000 N 
ATOM      8  C   UNL     1     -12.279   8.303 129.750  0.00  0.00    +0.000 A 
ATOM      9  O   UNL     1     -12.752   9.426 129.587  0.00  0.00    +0.000 OA
ATOM     10  H   UNL     1     -11.284   8.233 127.983  0.00  0.00    +0.000 HD
ENDROOT
BRANCH   4  11
ATOM     11  C   UNL     1     -10.068   4.750 130.487  0.00  0.00    +0.000 C 
ATOM     12  C   UNL     1     -10.688   3.359 130.534  0.00  0.00    +0.000 C 
ATOM     13  C   UNL     1      -9.675   2.611 131.374  0.00  0.00    +0.000 C 
ATOM     14  C   UNL     1      -9.222   3.662 132.367  0.00  0.00    +0.000 C 
ATOM     15  O   UNL     1      -9.431   4.946 131.762  0.00  0.00    +0.000 OA
ENDBRANCH   4  11
TORSDOF 1
ENDMDL
MODEL 4
REMARK VINA RESULT:      -6.2      2.402      2.640
REMARK  Name = Tegafur
REMARK  1 active torsions:
REMARK  status: ('A' for Active; 'I' for Inactive)
REMARK    1  A    between atoms: N_4  and  C_5
REMARK                            x       y       z     vdW  Elec       q    Type
REMARK                         _______ _______ _______ _____ _____    ______ ____
ROOT
ATOM      1  F   UNL     1     -10.706   2.824 130.994  0.00  0.00    +0.000 F 
ATOM      2  C   UNL     1     -10.380   4.103 130.729  0.00  0.00    +0.000 A 
ATOM      3  C   UNL     1     -11.237   4.972 130.182  0.00  0.00    +0.000 A 
ATOM      4  N   UNL     1     -10.844   6.258 129.836  0.00  0.00    +0.000 N 
ATOM      5  C   UNL     1      -9.553   6.710 130.116  0.00  0.00    +0.000 A 
ATOM      6  O   UNL     1      -9.093   7.789 129.750  0.00  0.00    +0.000 OA
ATOM      7  N   UNL     1      -8.766   5.860 130.852  0.00  0.00    +0.000 N 
ATOM      8  C   UNL     1      -9.007   4.530 131.052  0.00  0.00    +0.000 A 
ATOM      9  O   UNL     1      -8.144   3.761 131.470  0.00  0.00    +0.000 OA
ATOM     10  H   UNL     1      -7.832   6.185 131.050  0.00  0.00    +0.000 HD
ENDROOT
BRANCH   4  11
ATOM     11  C   UNL     1     -11.679   7.119 128.998  0.00  0.00    +0.000 C 
ATOM     12  C   UNL     1     -13.187   7.057 129.202  0.00  0.00    +0.000 C 
ATOM     13  C   UNL     1     -13.688   7.584 127.874  0.00  0.00    +0.000 C 
ATOM     14  C   UNL     1     -12.675   7.033 126.892  0.00  0.00    +0.000 C 
ATOM     15  O   UNL     1     -11.452   6.815 127.610  0.00  0.00    +0.000 OA
ENDBRANCH   4  11
TORSDOF 1
ENDMDL
MODEL 5
REMARK VINA RESULT:      -6.1      1.706      2.015
REMARK  Name = Tegafur
REMARK  1 active torsions:
REMARK  status: ('A' for Active; 'I' for Inactive)
REMARK    1  A    between atoms: N_4  and  C_5
REMARK                            x       y       z     vdW  Elec       q    Type
REMARK                         _______ _______ _______ _____ _____    ______ ____
ROOT
ATOM      1  F   UNL     1      -8.346   6.324 133.526  0.00  0.00    +0.000 F 
ATOM      2  C   UNL     1      -9.109   5.771 132.565  0.00  0.00    +0.000 A 
ATOM      3  C   UNL     1      -9.574   6.463 131.519  0.00  0.00    +0.000 A 
ATOM      4  N   UNL     1     -10.433   5.887 130.592  0.00  0.00    +0.000 N 
ATOM      5  C   UNL     1     -10.784   4.539 130.684  0.00  0.00    +0.000 A 
ATOM      6  O   UNL     1     -11.617   3.981 129.975  0.00  0.00    +0.000 OA
ATOM      7  N   UNL     1     -10.135   3.815 131.653  0.00  0.00    +0.000 N 
ATOM      8  C   UNL     1      -9.442   4.342 132.706  0.00  0.00    +0.000 A 
ATOM      9  O   UNL     1      -9.125   3.672 133.687  0.00  0.00    +0.000 OA
ATOM     10  H   UNL     1     -10.392   2.842 131.723  0.00  0.00    +0.000 HD
ENDROOT
BRANCH   4  11
ATOM     11  C   UNL     1     -11.159   6.694 129.611  0.00  0.00    +0.000 C 
ATOM     12  C   UNL     1     -10.400   7.818 128.919  0.00  0.00    +0.000 C 
ATOM     13  C   UNL     1     -11.537   8.713 128.472  0.00  0.00    +0.000 C 
ATOM     14  C   UNL     1     -12.534   8.576 129.605  0.00  0.00    +0.000 C 
ATOM     15  O   UNL     1     -12.301   7.309 130.235  0.00  0.00    +0.000 OA
ENDBRANCH   4  11
TORSDOF 1
ENDMDL
MODEL 6
REMARK VINA RESULT:      -6.1      1.794      2.352
REMARK  Name = Tegafur
REMARK  1 active torsions:
REMARK  status: ('A' for Active; 'I' for Inactive)
REMARK    1  A    between atoms: N_4  and  C_5
REMARK                            x       y       z     vdW  Elec       q    Type
REMARK                         _______ _______ _______ _____ _____    ______ ____
ROOT
ATOM      1  F   UNL     1      -9.922   5.136 133.314  0.00  0.00    +0.000 F 
ATOM      2  C   UNL     1      -9.994   5.928 132.228  0.00  0.00    +0.000 A 
ATOM      3  C   UNL     1     -11.152   6.376 131.731  0.00  0.00    +0.000 A 
ATOM      4  N   UNL     1     -11.201   7.116 130.557  0.00  0.00    +0.000 N 
ATOM      5  C   UNL     1     -10.028   7.478 129.892  0.00  0.00    +0.000 A 
ATOM      6  O   UNL     1      -9.985   8.035 128.799  0.00  0.00    +0.000 OA
ATOM      7  N   UNL     1      -8.854   7.170 130.534  0.00  0.00    +0.000 N 
ATOM      8  C   UNL     1      -8.725   6.288 131.569  0.00  0.00    +0.000 A 
ATOM      9  O   UNL     1      -7.636   5.837 131.919  0.00  0.00    +0.000 OA
ATOM     10  H   UNL     1      -8.007   7.428 130.052  0.00  0.00    +0.000 HD
ENDROOT
BRANCH   4  11
ATOM     11  C   UNL     1     -12.462   7.375 129.863  0.00  0.00    +0.000 C 
ATOM     12  C   UNL     1     -12.674   6.712 128.508  0.00  0.00    +0.000 C 
ATOM     13  C   UNL     1     -13.726   7.613 127.897  0.00  0.00    +0.000 C 
ATOM     14  C   UNL     1     -13.335   8.982 128.416  0.00  0.00    +0.000 C 
ATOM     15  O   UNL     1     -12.614   8.790 129.642  0.00  0.00    +0.000 OA
ENDBRANCH   4  11
TORSDOF 1
ENDMDL
MODEL 7
REMARK VINA RESULT:      -6.0     10.079     11.239
REMARK  Name = Tegafur
REMARK  1 active torsions:
REMARK  status: ('A' for Active; 'I' for Inactive)
REMARK    1  A    between atoms: N_4  and  C_5
REMARK                            x       y       z     vdW  Elec       q    Type
REMARK                         _______ _______ _______ _____ _____    ______ ____
ROOT
ATOM      1  F   UNL     1      -6.265   2.514 123.514  0.00  0.00    +0.000 F 
ATOM      2  C   UNL     1      -7.335   1.711 123.360  0.00  0.00    +0.000 A 
ATOM      3  C   UNL     1      -7.320   0.412 123.679  0.00  0.00    +0.000 A 
ATOM      4  N   UNL     1      -8.410  -0.410 123.423  0.00  0.00    +0.000 N 
ATOM      5  C   UNL     1      -9.588   0.111 122.886  0.00  0.00    +0.000 A 
ATOM      6  O   UNL     1     -10.554  -0.559 122.532  0.00  0.00    +0.000 OA
ATOM      7  N   UNL     1      -9.635   1.477 122.756  0.00  0.00    +0.000 N 
ATOM      8  C   UNL     1      -8.556   2.315 122.797  0.00  0.00    +0.000 A 
ATOM      9  O   UNL     1      -8.610   3.477 122.399  0.00  0.00    +0.000 OA
ATOM     10  H   UNL     1     -10.484   1.853 122.364  0.00  0.00    +0.000 HD
ENDROOT
BRANCH   4  11
ATOM     11  C   UNL     1      -8.311  -1.867 123.511  0.00  0.00    +0.000 C 
ATOM     12  C   UNL     1      -8.889  -2.542 124.749  0.00  0.00    +0.000 C 
ATOM     13  C   UNL     1      -8.131  -3.853 124.753  0.00  0.00    +0.000 C 
ATOM     14  C   UNL     1      -6.762  -3.450 124.242  0.00  0.00    +0.000 C 
ATOM     15  O   UNL     1      -6.929  -2.266 123.448  0.00  0.00    +0.000 OA
ENDBRANCH   4  11
TORSDOF 1
ENDMDL
MODEL 8
REMARK VINA RESULT:      -6.0      2.393      4.907
REMARK  Name = Tegafur
REMARK  1 active torsions:
REMARK  status: ('A' for Active; 'I' for Inactive)
REMARK    1  A    between atoms: N_4  and  C_5
REMARK                            x       y       z     vdW  Elec       q    Type
REMARK                         _______ _______ _______ _____ _____    ______ ____
ROOT
ATOM      1  F   UNL     1     -11.595   9.244 128.346  0.00  0.00    +0.000 F 
ATOM      2  C   UNL     1     -11.492   8.029 128.918  0.00  0.00    +0.000 A 
ATOM      3  C   UNL     1     -10.455   7.673 129.683  0.00  0.00    +0.000 A 
ATOM      4  N   UNL     1     -10.332   6.384 130.185  0.00  0.00    +0.000 N 
ATOM      5  C   UNL     1     -11.330   5.433 129.963  0.00  0.00    +0.000 A 
ATOM      6  O   UNL     1     -11.252   4.248 130.276  0.00  0.00    +0.000 OA
ATOM      7  N   UNL     1     -12.467   5.889 129.343  0.00  0.00    +0.000 N 
ATOM      8  C   UNL     1     -12.578   7.067 128.659  0.00  0.00    +0.000 A 
ATOM      9  O   UNL     1     -13.512   7.297 127.893  0.00  0.00    +0.000 OA
ATOM     10  H   UNL     1     -13.186   5.202 129.179  0.00  0.00    +0.000 HD
ENDROOT
BRANCH   4  11
ATOM     11  C   UNL     1      -9.086   5.907 130.785  0.00  0.00    +0.000 C 
ATOM     12  C   UNL     1      -8.949   6.000 132.299  0.00  0.00    +0.000 C 
ATOM     13  C   UNL     1      -7.444   5.977 132.463  0.00  0.00    +0.000 C 
ATOM     14  C   UNL     1      -6.964   6.752 131.252  0.00  0.00    +0.000 C 
ATOM     15  O   UNL     1      -7.972   6.637 130.238  0.00  0.00    +0.000 OA
ENDBRANCH   4  11
TORSDOF 1
ENDMDL
MODEL 9
REMARK VINA RESULT:      -5.9     10.838     11.852
REMARK  Name = Tegafur
REMARK  1 active torsions:
REMARK  status: ('A' for Active; 'I' for Inactive)
REMARK    1  A    between atoms: N_4  and  C_5
REMARK                            x       y       z     vdW  Elec       q    Type
REMARK                         _______ _______ _______ _____ _____    ______ ____
ROOT
ATOM      1  F   UNL     1      -4.502  -3.123 123.894  0.00  0.00    +0.000 F 
ATOM      2  C   UNL     1      -5.691  -2.551 124.165  0.00  0.00    +0.000 A 
ATOM      3  C   UNL     1      -6.235  -2.554 125.387  0.00  0.00    +0.000 A 
ATOM      4  N   UNL     1      -7.504  -2.036 125.617  0.00  0.00    +0.000 N 
ATOM      5  C   UNL     1      -8.224  -1.429 124.587  0.00  0.00    +0.000 A 
ATOM      6  O   UNL     1      -9.387  -1.044 124.678  0.00  0.00    +0.000 OA
ATOM      7  N   UNL     1      -7.556  -1.269 123.399  0.00  0.00    +0.000 N 
ATOM      8  C   UNL     1      -6.406  -1.915 123.044  0.00  0.00    +0.000 A 
ATOM      9  O   UNL     1      -6.006  -1.957 121.882  0.00  0.00    +0.000 OA
ATOM     10  H   UNL     1      -8.078  -0.834 122.654  0.00  0.00    +0.000 HD
ENDROOT
BRANCH   4  11
ATOM     11  C   UNL     1      -8.216  -2.275 126.872  0.00  0.00    +0.000 C 
ATOM     12  C   UNL     1      -7.389  -2.376 128.147  0.00  0.00    +0.000 C 
ATOM     13  C   UNL     1      -8.327  -3.151 129.048  0.00  0.00    +0.000 C 
ATOM     14  C   UNL     1      -9.006  -4.103 128.085  0.00  0.00    +0.000 C 
ATOM     15  O   UNL     1      -8.961  -3.504 126.782  0.00  0.00    +0.000 OA
ENDBRANCH   4  11
TORSDOF 1
ENDMDL
