MODEL 1
REMARK VINA RESULT:      -7.4      0.000      0.000
REMARK  Name = Tegaserod
REMARK  9 active torsions:
REMARK  status: ('A' for Active; 'I' for Inactive)
REMARK    1  A    between atoms: C_1  and  C_2
REMARK    2  A    between atoms: C_2  and  C_3
REMARK    3  A    between atoms: C_3  and  C_4
REMARK    4  A    between atoms: C_4  and  C_5
REMARK    5  A    between atoms: C_5  and  N_6
REMARK    6  A    between atoms: N_9  and  N_10
REMARK    7  A    between atoms: C_11  and  C_12
REMARK    8  A    between atoms: C_18  and  O_19
REMARK    9  A    between atoms: O_19  and  C_20
REMARK                            x       y       z     vdW  Elec       q    Type
REMARK                         _______ _______ _______ _____ _____    ______ ____
ROOT
ATOM      1  N   UNL     1      -9.342   5.782 126.547  0.00  0.00    +0.000 NA
ATOM      2  C   UNL     1     -10.043   6.869 126.473  0.00  0.00    +0.000 C 
ENDROOT
BRANCH   2   3
ATOM      3  C   UNL     1     -11.215   7.004 127.339  0.00  0.00    +0.000 A 
ATOM      4  C   UNL     1     -12.508   7.282 126.920  0.00  0.00    +0.000 A 
ATOM      5  N   UNL     1     -13.339   7.259 128.017  0.00  0.00    +0.000 N 
ATOM      6  C   UNL     1     -12.605   7.080 129.165  0.00  0.00    +0.000 A 
ATOM      7  C   UNL     1     -11.275   6.912 128.772  0.00  0.00    +0.000 A 
ATOM      8  C   UNL     1     -10.304   6.732 129.777  0.00  0.00    +0.000 A 
ATOM      9  C   UNL     1     -10.674   6.742 131.128  0.00  0.00    +0.000 A 
ATOM     10  C   UNL     1     -12.014   6.897 131.482  0.00  0.00    +0.000 A 
ATOM     11  C   UNL     1     -13.008   7.056 130.507  0.00  0.00    +0.000 A 
ATOM     12  H   UNL     1     -14.343   7.383 127.997  0.00  0.00    +0.000 HD
BRANCH   9  13
ATOM     13  O   UNL     1      -9.630   6.599 132.005  0.00  0.00    +0.000 OA
ATOM     14  C   UNL     1      -9.370   5.282 132.471  0.00  0.00    +0.000 C 
ENDBRANCH   9  13
ENDBRANCH   2   3
BRANCH   1  18
ATOM     15  N   UNL     1      -6.931   4.280 124.252  0.00  0.00    +0.000 N 
ATOM     16  C   UNL     1      -8.072   4.414 125.013  0.00  0.00    +0.000 C 
ATOM     17  N   UNL     1      -8.969   3.483 125.071  0.00  0.00    +0.000 NA
ATOM     18  N   UNL     1      -8.239   5.594 125.725  0.00  0.00    +0.000 N 
ATOM     19  H   UNL     1      -6.245   5.020 124.235  0.00  0.00    +0.000 HD
ATOM     20  H   UNL     1      -8.704   2.687 124.501  0.00  0.00    +0.000 HD
ATOM     21  H   UNL     1      -7.529   6.310 125.655  0.00  0.00    +0.000 HD
BRANCH  15  22
ATOM     22  C   UNL     1      -6.630   3.080 123.464  0.00  0.00    +0.000 C 
BRANCH  22  23
ATOM     23  C   UNL     1      -6.833   3.247 121.955  0.00  0.00    +0.000 C 
BRANCH  23  24
ATOM     24  C   UNL     1      -5.506   3.608 121.260  0.00  0.00    +0.000 C 
BRANCH  24  26
ATOM     25  C   UNL     1      -6.988   4.349 119.357  0.00  0.00    +0.000 C 
ATOM     26  C   UNL     1      -5.705   4.620 120.130  0.00  0.00    +0.000 C 
ENDBRANCH  24  26
ENDBRANCH  23  24
ENDBRANCH  22  23
ENDBRANCH  15  22
ENDBRANCH   1  18
TORSDOF 7
ENDMDL
MODEL 2
REMARK VINA RESULT:      -7.3      2.027      2.908
REMARK  Name = Tegaserod
REMARK  9 active torsions:
REMARK  status: ('A' for Active; 'I' for Inactive)
REMARK    1  A    between atoms: C_1  and  C_2
REMARK    2  A    between atoms: C_2  and  C_3
REMARK    3  A    between atoms: C_3  and  C_4
REMARK    4  A    between atoms: C_4  and  C_5
REMARK    5  A    between atoms: C_5  and  N_6
REMARK    6  A    between atoms: N_9  and  N_10
REMARK    7  A    between atoms: C_11  and  C_12
REMARK    8  A    between atoms: C_18  and  O_19
REMARK    9  A    between atoms: O_19  and  C_20
REMARK                            x       y       z     vdW  Elec       q    Type
REMARK                         _______ _______ _______ _____ _____    ______ ____
ROOT
ATOM      1  N   UNL     1      -8.616   4.892 127.198  0.00  0.00    +0.000 NA
ATOM      2  C   UNL     1      -8.195   4.620 128.393  0.00  0.00    +0.000 C 
ENDROOT
BRANCH   2   3
ATOM      3  C   UNL     1      -9.139   4.724 129.506  0.00  0.00    +0.000 A 
ATOM      4  C   UNL     1      -9.299   3.797 130.525  0.00  0.00    +0.000 A 
ATOM      5  N   UNL     1     -10.228   4.282 131.417  0.00  0.00    +0.000 N 
ATOM      6  C   UNL     1     -10.765   5.459 130.951  0.00  0.00    +0.000 A 
ATOM      7  C   UNL     1     -10.099   5.762 129.762  0.00  0.00    +0.000 A 
ATOM      8  C   UNL     1     -10.484   6.925 129.064  0.00  0.00    +0.000 A 
ATOM      9  C   UNL     1     -11.519   7.732 129.553  0.00  0.00    +0.000 A 
ATOM     10  C   UNL     1     -12.151   7.405 130.752  0.00  0.00    +0.000 A 
ATOM     11  C   UNL     1     -11.777   6.269 131.482  0.00  0.00    +0.000 A 
ATOM     12  H   UNL     1     -10.506   3.832 132.280  0.00  0.00    +0.000 HD
BRANCH   9  13
ATOM     13  O   UNL     1     -11.825   8.807 128.759  0.00  0.00    +0.000 OA
ATOM     14  C   UNL     1     -12.996   9.535 129.102  0.00  0.00    +0.000 C 
ENDBRANCH   9  13
ENDBRANCH   2   3
BRANCH   1  18
ATOM     15  N   UNL     1      -7.094   3.976 124.007  0.00  0.00    +0.000 N 
ATOM     16  C   UNL     1      -8.019   4.013 125.028  0.00  0.00    +0.000 C 
ATOM     17  N   UNL     1      -9.106   3.312 124.992  0.00  0.00    +0.000 NA
ATOM     18  N   UNL     1      -7.751   4.837 126.113  0.00  0.00    +0.000 N 
ATOM     19  H   UNL     1      -6.250   4.527 124.069  0.00  0.00    +0.000 HD
ATOM     20  H   UNL     1      -9.156   2.763 124.141  0.00  0.00    +0.000 HD
ATOM     21  H   UNL     1      -6.901   5.382 126.113  0.00  0.00    +0.000 HD
BRANCH  15  22
ATOM     22  C   UNL     1      -7.251   3.139 122.814  0.00  0.00    +0.000 C 
BRANCH  22  23
ATOM     23  C   UNL     1      -6.127   3.288 121.783  0.00  0.00    +0.000 C 
BRANCH  23  24
ATOM     24  C   UNL     1      -6.603   4.110 120.569  0.00  0.00    +0.000 C 
BRANCH  24  26
ATOM     25  C   UNL     1      -5.906   5.590 118.646  0.00  0.00    +0.000 C 
ATOM     26  C   UNL     1      -5.463   4.911 119.936  0.00  0.00    +0.000 C 
ENDBRANCH  24  26
ENDBRANCH  23  24
ENDBRANCH  22  23
ENDBRANCH  15  22
ENDBRANCH   1  18
TORSDOF 7
ENDMDL
MODEL 3
REMARK VINA RESULT:      -7.0      4.592      5.944
REMARK  Name = Tegaserod
REMARK  9 active torsions:
REMARK  status: ('A' for Active; 'I' for Inactive)
REMARK    1  A    between atoms: C_1  and  C_2
REMARK    2  A    between atoms: C_2  and  C_3
REMARK    3  A    between atoms: C_3  and  C_4
REMARK    4  A    between atoms: C_4  and  C_5
REMARK    5  A    between atoms: C_5  and  N_6
REMARK    6  A    between atoms: N_9  and  N_10
REMARK    7  A    between atoms: C_11  and  C_12
REMARK    8  A    between atoms: C_18  and  O_19
REMARK    9  A    between atoms: O_19  and  C_20
REMARK                            x       y       z     vdW  Elec       q    Type
REMARK                         _______ _______ _______ _____ _____    ______ ____
ROOT
ATOM      1  N   UNL     1      -7.202   5.000 131.357  0.00  0.00    +0.000 NA
ATOM      2  C   UNL     1      -7.738   6.169 131.515  0.00  0.00    +0.000 C 
ENDROOT
BRANCH   2   3
ATOM      3  C   UNL     1      -9.190   6.255 131.672  0.00  0.00    +0.000 A 
ATOM      4  C   UNL     1      -9.930   5.709 132.711  0.00  0.00    +0.000 A 
ATOM      5  N   UNL     1     -11.249   6.062 132.543  0.00  0.00    +0.000 N 
ATOM      6  C   UNL     1     -11.414   6.737 131.357  0.00  0.00    +0.000 A 
ATOM      7  C   UNL     1     -10.143   6.878 130.794  0.00  0.00    +0.000 A 
ATOM      8  C   UNL     1     -10.038   7.524 129.546  0.00  0.00    +0.000 A 
ATOM      9  C   UNL     1     -11.186   7.991 128.893  0.00  0.00    +0.000 A 
ATOM     10  C   UNL     1     -12.436   7.846 129.493  0.00  0.00    +0.000 A 
ATOM     11  C   UNL     1     -12.573   7.229 130.743  0.00  0.00    +0.000 A 
ATOM     12  H   UNL     1     -12.004   5.839 133.179  0.00  0.00    +0.000 HD
BRANCH   9  13
ATOM     13  O   UNL     1     -10.951   8.561 127.668  0.00  0.00    +0.000 OA
ATOM     14  C   UNL     1     -10.885   7.674 126.559  0.00  0.00    +0.000 C 
ENDBRANCH   9  13
ENDBRANCH   2   3
BRANCH   1  18
ATOM     15  N   UNL     1      -3.933   4.480 129.813  0.00  0.00    +0.000 N 
ATOM     16  C   UNL     1      -5.298   4.644 129.912  0.00  0.00    +0.000 C 
ATOM     17  N   UNL     1      -6.070   4.597 128.874  0.00  0.00    +0.000 NA
ATOM     18  N   UNL     1      -5.832   4.869 131.174  0.00  0.00    +0.000 N 
ATOM     19  H   UNL     1      -3.359   4.513 130.642  0.00  0.00    +0.000 HD
ATOM     20  H   UNL     1      -5.535   4.425 128.031  0.00  0.00    +0.000 HD
ATOM     21  H   UNL     1      -5.207   4.912 131.967  0.00  0.00    +0.000 HD
BRANCH  15  22
ATOM     22  C   UNL     1      -3.248   4.225 128.542  0.00  0.00    +0.000 C 
BRANCH  22  23
ATOM     23  C   UNL     1      -2.526   5.443 127.957  0.00  0.00    +0.000 C 
BRANCH  23  24
ATOM     24  C   UNL     1      -2.417   6.570 129.002  0.00  0.00    +0.000 C 
BRANCH  24  26
ATOM     25  C   UNL     1      -4.087   8.172 130.011  0.00  0.00    +0.000 C 
ATOM     26  C   UNL     1      -3.408   7.704 128.731  0.00  0.00    +0.000 C 
ENDBRANCH  24  26
ENDBRANCH  23  24
ENDBRANCH  22  23
ENDBRANCH  15  22
ENDBRANCH   1  18
TORSDOF 7
ENDMDL
MODEL 4
REMARK VINA RESULT:      -6.8      4.846      5.891
REMARK  Name = Tegaserod
REMARK  9 active torsions:
REMARK  status: ('A' for Active; 'I' for Inactive)
REMARK    1  A    between atoms: C_1  and  C_2
REMARK    2  A    between atoms: C_2  and  C_3
REMARK    3  A    between atoms: C_3  and  C_4
REMARK    4  A    between atoms: C_4  and  C_5
REMARK    5  A    between atoms: C_5  and  N_6
REMARK    6  A    between atoms: N_9  and  N_10
REMARK    7  A    between atoms: C_11  and  C_12
REMARK    8  A    between atoms: C_18  and  O_19
REMARK    9  A    between atoms: O_19  and  C_20
REMARK                            x       y       z     vdW  Elec       q    Type
REMARK                         _______ _______ _______ _____ _____    ______ ____
ROOT
ATOM      1  N   UNL     1      -7.006   5.844 131.705  0.00  0.00    +0.000 NA
ATOM      2  C   UNL     1      -7.992   5.606 130.899  0.00  0.00    +0.000 C 
ENDROOT
BRANCH   2   3
ATOM      3  C   UNL     1      -9.346   5.955 131.331  0.00  0.00    +0.000 A 
ATOM      4  C   UNL     1      -9.914   5.642 132.557  0.00  0.00    +0.000 A 
ATOM      5  N   UNL     1     -11.170   6.201 132.614  0.00  0.00    +0.000 N 
ATOM      6  C   UNL     1     -11.487   6.783 131.410  0.00  0.00    +0.000 A 
ATOM      7  C   UNL     1     -10.363   6.650 130.591  0.00  0.00    +0.000 A 
ATOM      8  C   UNL     1     -10.438   7.153 129.276  0.00  0.00    +0.000 A 
ATOM      9  C   UNL     1     -11.618   7.749 128.813  0.00  0.00    +0.000 A 
ATOM     10  C   UNL     1     -12.713   7.877 129.664  0.00  0.00    +0.000 A 
ATOM     11  C   UNL     1     -12.666   7.409 130.984  0.00  0.00    +0.000 A 
ATOM     12  H   UNL     1     -11.792   6.169 133.411  0.00  0.00    +0.000 HD
BRANCH   9  13
ATOM     13  O   UNL     1     -11.573   8.156 127.505  0.00  0.00    +0.000 OA
ATOM     14  C   UNL     1     -12.100   7.253 126.542  0.00  0.00    +0.000 C 
ENDBRANCH   9  13
ENDBRANCH   2   3
BRANCH   1  18
ATOM     15  N   UNL     1      -3.650   5.954 130.268  0.00  0.00    +0.000 N 
ATOM     16  C   UNL     1      -4.914   6.377 130.619  0.00  0.00    +0.000 C 
ATOM     17  N   UNL     1      -5.361   7.544 130.288  0.00  0.00    +0.000 NA
ATOM     18  N   UNL     1      -5.707   5.503 131.353  0.00  0.00    +0.000 N 
ATOM     19  H   UNL     1      -3.333   5.033 130.534  0.00  0.00    +0.000 HD
ATOM     20  H   UNL     1      -4.669   8.061 129.756  0.00  0.00    +0.000 HD
ATOM     21  H   UNL     1      -5.331   4.601 131.609  0.00  0.00    +0.000 HD
BRANCH  15  22
ATOM     22  C   UNL     1      -2.720   6.774 129.485  0.00  0.00    +0.000 C 
BRANCH  22  23
ATOM     23  C   UNL     1      -2.260   6.130 128.173  0.00  0.00    +0.000 C 
BRANCH  23  24
ATOM     24  C   UNL     1      -3.259   5.051 127.712  0.00  0.00    +0.000 C 
BRANCH  24  26
ATOM     25  C   UNL     1      -1.864   3.270 126.593  0.00  0.00    +0.000 C 
ATOM     26  C   UNL     1      -2.676   3.641 127.826  0.00  0.00    +0.000 C 
ENDBRANCH  24  26
ENDBRANCH  23  24
ENDBRANCH  22  23
ENDBRANCH  15  22
ENDBRANCH   1  18
TORSDOF 7
ENDMDL
MODEL 5
REMARK VINA RESULT:      -6.8      2.867      4.307
REMARK  Name = Tegaserod
REMARK  9 active torsions:
REMARK  status: ('A' for Active; 'I' for Inactive)
REMARK    1  A    between atoms: C_1  and  C_2
REMARK    2  A    between atoms: C_2  and  C_3
REMARK    3  A    between atoms: C_3  and  C_4
REMARK    4  A    between atoms: C_4  and  C_5
REMARK    5  A    between atoms: C_5  and  N_6
REMARK    6  A    between atoms: N_9  and  N_10
REMARK    7  A    between atoms: C_11  and  C_12
REMARK    8  A    between atoms: C_18  and  O_19
REMARK    9  A    between atoms: O_19  and  C_20
REMARK                            x       y       z     vdW  Elec       q    Type
REMARK                         _______ _______ _______ _____ _____    ______ ____
ROOT
ATOM      1  N   UNL     1      -8.932   4.093 129.104  0.00  0.00    +0.000 NA
ATOM      2  C   UNL     1      -8.658   4.725 130.201  0.00  0.00    +0.000 C 
ENDROOT
BRANCH   2   3
ATOM      3  C   UNL     1      -9.754   5.365 130.930  0.00  0.00    +0.000 A 
ATOM      4  C   UNL     1     -10.134   5.087 132.235  0.00  0.00    +0.000 A 
ATOM      5  N   UNL     1     -11.155   5.942 132.585  0.00  0.00    +0.000 N 
ATOM      6  C   UNL     1     -11.531   6.702 131.504  0.00  0.00    +0.000 A 
ATOM      7  C   UNL     1     -10.668   6.368 130.457  0.00  0.00    +0.000 A 
ATOM      8  C   UNL     1     -10.860   7.001 129.212  0.00  0.00    +0.000 A 
ATOM      9  C   UNL     1     -11.900   7.923 129.041  0.00  0.00    +0.000 A 
ATOM     10  C   UNL     1     -12.731   8.243 130.113  0.00  0.00    +0.000 A 
ATOM     11  C   UNL     1     -12.554   7.649 131.370  0.00  0.00    +0.000 A 
ATOM     12  H   UNL     1     -11.593   5.992 133.496  0.00  0.00    +0.000 HD
BRANCH   9  13
ATOM     13  O   UNL     1     -12.004   8.433 127.773  0.00  0.00    +0.000 OA
ATOM     14  C   UNL     1     -11.094   7.922 126.808  0.00  0.00    +0.000 C 
ENDBRANCH   9  13
ENDBRANCH   2   3
BRANCH   1  18
ATOM     15  N   UNL     1      -6.635   3.271 126.386  0.00  0.00    +0.000 N 
ATOM     16  C   UNL     1      -7.619   3.940 127.081  0.00  0.00    +0.000 C 
ATOM     17  N   UNL     1      -8.247   4.952 126.574  0.00  0.00    +0.000 NA
ATOM     18  N   UNL     1      -7.923   3.495 128.361  0.00  0.00    +0.000 N 
ATOM     19  H   UNL     1      -6.171   2.478 126.805  0.00  0.00    +0.000 HD
ATOM     20  H   UNL     1      -7.915   5.153 125.637  0.00  0.00    +0.000 HD
ATOM     21  H   UNL     1      -7.411   2.710 128.739  0.00  0.00    +0.000 HD
BRANCH  15  22
ATOM     22  C   UNL     1      -6.230   3.632 125.024  0.00  0.00    +0.000 C 
BRANCH  22  23
ATOM     23  C   UNL     1      -4.729   3.894 124.859  0.00  0.00    +0.000 C 
BRANCH  23  24
ATOM     24  C   UNL     1      -4.036   3.993 126.232  0.00  0.00    +0.000 C 
BRANCH  24  26
ATOM     25  C   UNL     1      -1.686   3.121 126.527  0.00  0.00    +0.000 C 
ATOM     26  C   UNL     1      -3.167   2.769 126.526  0.00  0.00    +0.000 C 
ENDBRANCH  24  26
ENDBRANCH  23  24
ENDBRANCH  22  23
ENDBRANCH  15  22
ENDBRANCH   1  18
TORSDOF 7
ENDMDL
MODEL 6
REMARK VINA RESULT:      -6.8      2.345      3.690
REMARK  Name = Tegaserod
REMARK  9 active torsions:
REMARK  status: ('A' for Active; 'I' for Inactive)
REMARK    1  A    between atoms: C_1  and  C_2
REMARK    2  A    between atoms: C_2  and  C_3
REMARK    3  A    between atoms: C_3  and  C_4
REMARK    4  A    between atoms: C_4  and  C_5
REMARK    5  A    between atoms: C_5  and  N_6
REMARK    6  A    between atoms: N_9  and  N_10
REMARK    7  A    between atoms: C_11  and  C_12
REMARK    8  A    between atoms: C_18  and  O_19
REMARK    9  A    between atoms: O_19  and  C_20
REMARK                            x       y       z     vdW  Elec       q    Type
REMARK                         _______ _______ _______ _____ _____    ______ ____
ROOT
ATOM      1  N   UNL     1      -8.664   3.838 128.320  0.00  0.00    +0.000 NA
ATOM      2  C   UNL     1      -8.316   4.419 129.425  0.00  0.00    +0.000 C 
ENDROOT
BRANCH   2   3
ATOM      3  C   UNL     1      -9.368   4.883 130.330  0.00  0.00    +0.000 A 
ATOM      4  C   UNL     1      -9.649   4.362 131.585  0.00  0.00    +0.000 A 
ATOM      5  N   UNL     1     -10.657   5.108 132.153  0.00  0.00    +0.000 N 
ATOM      6  C   UNL     1     -11.121   6.041 131.257  0.00  0.00    +0.000 A 
ATOM      7  C   UNL     1     -10.330   5.928 130.112  0.00  0.00    +0.000 A 
ATOM      8  C   UNL     1     -10.621   6.770 129.019  0.00  0.00    +0.000 A 
ATOM      9  C   UNL     1     -11.686   7.677 129.089  0.00  0.00    +0.000 A 
ATOM     10  C   UNL     1     -12.444   7.772 130.255  0.00  0.00    +0.000 A 
ATOM     11  C   UNL     1     -12.168   6.965 131.368  0.00  0.00    +0.000 A 
ATOM     12  H   UNL     1     -11.030   4.979 133.085  0.00  0.00    +0.000 HD
BRANCH   9  13
ATOM     13  O   UNL     1     -11.889   8.406 127.946  0.00  0.00    +0.000 OA
ATOM     14  C   UNL     1     -11.142   8.011 126.803  0.00  0.00    +0.000 C 
ENDBRANCH   9  13
ENDBRANCH   2   3
BRANCH   1  18
ATOM     15  N   UNL     1      -6.736   3.373 125.253  0.00  0.00    +0.000 N 
ATOM     16  C   UNL     1      -7.691   3.878 126.108  0.00  0.00    +0.000 C 
ATOM     17  N   UNL     1      -8.554   4.763 125.724  0.00  0.00    +0.000 NA
ATOM     18  N   UNL     1      -7.703   3.407 127.415  0.00  0.00    +0.000 N 
ATOM     19  H   UNL     1      -6.083   2.676 125.580  0.00  0.00    +0.000 HD
ATOM     20  H   UNL     1      -8.418   5.003 124.749  0.00  0.00    +0.000 HD
ATOM     21  H   UNL     1      -7.013   2.724 127.693  0.00  0.00    +0.000 HD
BRANCH  15  22
ATOM     22  C   UNL     1      -6.625   3.777 123.848  0.00  0.00    +0.000 C 
BRANCH  22  23
ATOM     23  C   UNL     1      -7.084   2.713 122.845  0.00  0.00    +0.000 C 
BRANCH  23  24
ATOM     24  C   UNL     1      -8.611   2.774 122.643  0.00  0.00    +0.000 C 
BRANCH  24  26
ATOM     25  C   UNL     1     -10.038   1.563 124.337  0.00  0.00    +0.000 C 
ATOM     26  C   UNL     1      -9.293   1.456 123.013  0.00  0.00    +0.000 C 
ENDBRANCH  24  26
ENDBRANCH  23  24
ENDBRANCH  22  23
ENDBRANCH  15  22
ENDBRANCH   1  18
TORSDOF 7
ENDMDL
MODEL 7
REMARK VINA RESULT:      -6.5      6.010      9.479
REMARK  Name = Tegaserod
REMARK  9 active torsions:
REMARK  status: ('A' for Active; 'I' for Inactive)
REMARK    1  A    between atoms: C_1  and  C_2
REMARK    2  A    between atoms: C_2  and  C_3
REMARK    3  A    between atoms: C_3  and  C_4
REMARK    4  A    between atoms: C_4  and  C_5
REMARK    5  A    between atoms: C_5  and  N_6
REMARK    6  A    between atoms: N_9  and  N_10
REMARK    7  A    between atoms: C_11  and  C_12
REMARK    8  A    between atoms: C_18  and  O_19
REMARK    9  A    between atoms: O_19  and  C_20
REMARK                            x       y       z     vdW  Elec       q    Type
REMARK                         _______ _______ _______ _____ _____    ______ ____
ROOT
ATOM      1  N   UNL     1      -4.857   4.080 125.556  0.00  0.00    +0.000 NA
ATOM      2  C   UNL     1      -5.480   2.949 125.462  0.00  0.00    +0.000 C 
ENDROOT
BRANCH   2   3
ATOM      3  C   UNL     1      -6.706   2.892 124.665  0.00  0.00    +0.000 A 
ATOM      4  C   UNL     1      -7.947   2.461 125.112  0.00  0.00    +0.000 A 
ATOM      5  N   UNL     1      -8.860   2.623 124.095  0.00  0.00    +0.000 N 
ATOM      6  C   UNL     1      -8.227   3.048 122.951  0.00  0.00    +0.000 A 
ATOM      7  C   UNL     1      -6.882   3.231 123.280  0.00  0.00    +0.000 A 
ATOM      8  C   UNL     1      -6.001   3.649 122.261  0.00  0.00    +0.000 A 
ATOM      9  C   UNL     1      -6.473   3.854 120.959  0.00  0.00    +0.000 A 
ATOM     10  C   UNL     1      -7.825   3.676 120.672  0.00  0.00    +0.000 A 
ATOM     11  C   UNL     1      -8.732   3.283 121.666  0.00  0.00    +0.000 A 
ATOM     12  H   UNL     1      -9.852   2.432 124.158  0.00  0.00    +0.000 HD
BRANCH   9  13
ATOM     13  O   UNL     1      -5.508   4.216 120.055  0.00  0.00    +0.000 OA
ATOM     14  C   UNL     1      -4.959   5.519 120.203  0.00  0.00    +0.000 C 
ENDBRANCH   9  13
ENDBRANCH   2   3
BRANCH   1  18
ATOM     15  N   UNL     1      -2.406   5.249 127.999  0.00  0.00    +0.000 N 
ATOM     16  C   UNL     1      -3.594   5.170 127.305  0.00  0.00    +0.000 C 
ATOM     17  N   UNL     1      -4.583   5.968 127.547  0.00  0.00    +0.000 NA
ATOM     18  N   UNL     1      -3.706   4.192 126.325  0.00  0.00    +0.000 N 
ATOM     19  H   UNL     1      -1.649   4.618 127.779  0.00  0.00    +0.000 HD
ATOM     20  H   UNL     1      -4.347   6.623 128.285  0.00  0.00    +0.000 HD
ATOM     21  H   UNL     1      -2.924   3.573 126.161  0.00  0.00    +0.000 HD
BRANCH  15  22
ATOM     22  C   UNL     1      -2.156   6.243 129.047  0.00  0.00    +0.000 C 
BRANCH  22  23
ATOM     23  C   UNL     1      -2.379   5.728 130.473  0.00  0.00    +0.000 C 
BRANCH  23  24
ATOM     24  C   UNL     1      -2.028   6.814 131.509  0.00  0.00    +0.000 C 
BRANCH  24  26
ATOM     25  C   UNL     1      -0.069   7.399 132.990  0.00  0.00    +0.000 C 
ATOM     26  C   UNL     1      -1.039   6.306 132.560  0.00  0.00    +0.000 C 
ENDBRANCH  24  26
ENDBRANCH  23  24
ENDBRANCH  22  23
ENDBRANCH  15  22
ENDBRANCH   1  18
TORSDOF 7
ENDMDL
MODEL 8
REMARK VINA RESULT:      -6.4      6.246      8.428
REMARK  Name = Tegaserod
REMARK  9 active torsions:
REMARK  status: ('A' for Active; 'I' for Inactive)
REMARK    1  A    between atoms: C_1  and  C_2
REMARK    2  A    between atoms: C_2  and  C_3
REMARK    3  A    between atoms: C_3  and  C_4
REMARK    4  A    between atoms: C_4  and  C_5
REMARK    5  A    between atoms: C_5  and  N_6
REMARK    6  A    between atoms: N_9  and  N_10
REMARK    7  A    between atoms: C_11  and  C_12
REMARK    8  A    between atoms: C_18  and  O_19
REMARK    9  A    between atoms: O_19  and  C_20
REMARK                            x       y       z     vdW  Elec       q    Type
REMARK                         _______ _______ _______ _____ _____    ______ ____
ROOT
ATOM      1  N   UNL     1      -6.120   6.524 131.824  0.00  0.00    +0.000 NA
ATOM      2  C   UNL     1      -7.150   6.773 131.080  0.00  0.00    +0.000 C 
ENDROOT
BRANCH   2   3
ATOM      3  C   UNL     1      -8.479   6.441 131.594  0.00  0.00    +0.000 A 
ATOM      4  C   UNL     1      -8.748   5.663 132.710  0.00  0.00    +0.000 A 
ATOM      5  N   UNL     1     -10.109   5.639 132.911  0.00  0.00    +0.000 N 
ATOM      6  C   UNL     1     -10.752   6.294 131.888  0.00  0.00    +0.000 A 
ATOM      7  C   UNL     1      -9.759   6.811 131.053  0.00  0.00    +0.000 A 
ATOM      8  C   UNL     1     -10.161   7.518 129.902  0.00  0.00    +0.000 A 
ATOM      9  C   UNL     1     -11.521   7.673 129.607  0.00  0.00    +0.000 A 
ATOM     10  C   UNL     1     -12.484   7.156 130.471  0.00  0.00    +0.000 A 
ATOM     11  C   UNL     1     -12.120   6.468 131.637  0.00  0.00    +0.000 A 
ATOM     12  H   UNL     1     -10.583   5.184 133.681  0.00  0.00    +0.000 HD
BRANCH   9  13
ATOM     13  O   UNL     1     -11.777   8.341 128.438  0.00  0.00    +0.000 OA
ATOM     14  C   UNL     1     -13.015   9.036 128.362  0.00  0.00    +0.000 C 
ENDBRANCH   9  13
ENDBRANCH   2   3
BRANCH   1  18
ATOM     15  N   UNL     1      -2.480   6.685 131.580  0.00  0.00    +0.000 N 
ATOM     16  C   UNL     1      -3.722   6.343 132.067  0.00  0.00    +0.000 C 
ATOM     17  N   UNL     1      -3.866   5.625 133.134  0.00  0.00    +0.000 NA
ATOM     18  N   UNL     1      -4.836   6.793 131.370  0.00  0.00    +0.000 N 
ATOM     19  H   UNL     1      -2.401   7.255 130.751  0.00  0.00    +0.000 HD
ATOM     20  H   UNL     1      -2.965   5.376 133.528  0.00  0.00    +0.000 HD
ATOM     21  H   UNL     1      -4.698   7.344 130.534  0.00  0.00    +0.000 HD
BRANCH  15  22
ATOM     22  C   UNL     1      -1.227   6.284 132.229  0.00  0.00    +0.000 C 
BRANCH  22  23
ATOM     23  C   UNL     1      -0.405   7.449 132.792  0.00  0.00    +0.000 C 
BRANCH  23  24
ATOM     24  C   UNL     1      -1.302   8.419 133.586  0.00  0.00    +0.000 C 
BRANCH  24  26
ATOM     25  C   UNL     1       0.545  10.131 133.412  0.00  0.00    +0.000 C 
ATOM     26  C   UNL     1      -0.954   9.882 133.306  0.00  0.00    +0.000 C 
ENDBRANCH  24  26
ENDBRANCH  23  24
ENDBRANCH  22  23
ENDBRANCH  15  22
ENDBRANCH   1  18
TORSDOF 7
ENDMDL
MODEL 9
REMARK VINA RESULT:      -6.3      4.346      8.336
REMARK  Name = Tegaserod
REMARK  9 active torsions:
REMARK  status: ('A' for Active; 'I' for Inactive)
REMARK    1  A    between atoms: C_1  and  C_2
REMARK    2  A    between atoms: C_2  and  C_3
REMARK    3  A    between atoms: C_3  and  C_4
REMARK    4  A    between atoms: C_4  and  C_5
REMARK    5  A    between atoms: C_5  and  N_6
REMARK    6  A    between atoms: N_9  and  N_10
REMARK    7  A    between atoms: C_11  and  C_12
REMARK    8  A    between atoms: C_18  and  O_19
REMARK    9  A    between atoms: O_19  and  C_20
REMARK                            x       y       z     vdW  Elec       q    Type
REMARK                         _______ _______ _______ _____ _____    ______ ____
ROOT
ATOM      1  N   UNL     1      -9.862   3.554 131.087  0.00  0.00    +0.000 NA
ATOM      2  C   UNL     1      -8.640   3.234 131.372  0.00  0.00    +0.000 C 
ENDROOT
BRANCH   2   3
ATOM      3  C   UNL     1      -8.111   1.971 130.857  0.00  0.00    +0.000 A 
ATOM      4  C   UNL     1      -7.402   1.028 131.588  0.00  0.00    +0.000 A 
ATOM      5  N   UNL     1      -7.141  -0.051 130.776  0.00  0.00    +0.000 N 
ATOM      6  C   UNL     1      -7.566   0.205 129.493  0.00  0.00    +0.000 A 
ATOM      7  C   UNL     1      -8.182   1.458 129.517  0.00  0.00    +0.000 A 
ATOM      8  C   UNL     1      -8.690   1.970 128.305  0.00  0.00    +0.000 A 
ATOM      9  C   UNL     1      -8.558   1.238 127.118  0.00  0.00    +0.000 A 
ATOM     10  C   UNL     1      -7.951  -0.016 127.137  0.00  0.00    +0.000 A 
ATOM     11  C   UNL     1      -7.455  -0.564 128.328  0.00  0.00    +0.000 A 
ATOM     12  H   UNL     1      -6.677  -0.904 131.061  0.00  0.00    +0.000 HD
BRANCH   9  13
ATOM     13  O   UNL     1      -9.056   1.865 126.006  0.00  0.00    +0.000 OA
ATOM     14  C   UNL     1      -9.589   1.026 124.990  0.00  0.00    +0.000 C 
ENDBRANCH   9  13
ENDBRANCH   2   3
BRANCH   1  18
ATOM     15  N   UNL     1     -11.863   6.595 131.382  0.00  0.00    +0.000 N 
ATOM     16  C   UNL     1     -11.388   5.414 130.855  0.00  0.00    +0.000 C 
ATOM     17  N   UNL     1     -11.819   4.944 129.729  0.00  0.00    +0.000 NA
ATOM     18  N   UNL     1     -10.419   4.728 131.577  0.00  0.00    +0.000 N 
ATOM     19  H   UNL     1     -11.499   6.941 132.258  0.00  0.00    +0.000 HD
ATOM     20  H   UNL     1     -12.519   5.556 129.325  0.00  0.00    +0.000 HD
ATOM     21  H   UNL     1     -10.106   5.110 132.458  0.00  0.00    +0.000 HD
BRANCH  15  22
ATOM     22  C   UNL     1     -12.875   7.420 130.714  0.00  0.00    +0.000 C 
BRANCH  22  23
ATOM     23  C   UNL     1     -12.308   8.619 129.946  0.00  0.00    +0.000 C 
BRANCH  23  24
ATOM     24  C   UNL     1     -12.360   8.370 128.426  0.00  0.00    +0.000 C 
BRANCH  24  26
ATOM     25  C   UNL     1     -10.979   7.576 126.468  0.00  0.00    +0.000 C 
ATOM     26  C   UNL     1     -10.962   8.302 127.807  0.00  0.00    +0.000 C 
ENDBRANCH  24  26
ENDBRANCH  23  24
ENDBRANCH  22  23
ENDBRANCH  15  22
ENDBRANCH   1  18
TORSDOF 7
ENDMDL
