MODEL 1
REMARK VINA RESULT:     -10.6      0.000      0.000
REMARK  Name = Telaprevir
REMARK  18 active torsions:
REMARK  status: ('A' for Active; 'I' for Inactive)
REMARK    1  A    between atoms: C_8  and  C_37
REMARK    2  A    between atoms: C_11  and  C_13
REMARK    3  A    between atoms: C_13  and  N_14
REMARK    4  A    between atoms: C_13  and  C_33
REMARK    5  A    between atoms: C_15  and  C_17
REMARK    6  A    between atoms: C_17  and  N_18
REMARK    7  A    between atoms: C_17  and  C_27
REMARK    8  A    between atoms: C_19  and  C_21
REMARK    9  A    between atoms: C_33  and  C_34
REMARK   10  A    between atoms: C_33  and  C_35
REMARK   11  A    between atoms: C_33  and  C_36
REMARK   12  A    between atoms: N_39  and  C_40
REMARK   13  A    between atoms: C_40  and  C_41
REMARK   14  A    between atoms: C_40  and  C_44
REMARK   15  A    between atoms: C_41  and  C_42
REMARK   16  A    between atoms: C_42  and  C_43
REMARK   17  A    between atoms: C_44  and  C_46
REMARK   18  A    between atoms: N_48  and  C_49
REMARK                            x       y       z     vdW  Elec       q    Type
REMARK                         _______ _______ _______ _____ _____    ______ ____
ROOT
ATOM      1  C   UNL     1      -1.714   6.372 131.119  0.00  0.00    +0.000 C 
ATOM      2  C   UNL     1      -0.816   6.212 132.327  0.00  0.00    +0.000 C 
ATOM      3  C   UNL     1      -0.713   7.593 132.964  0.00  0.00    +0.000 C 
ATOM      4  C   UNL     1      -2.098   8.152 132.856  0.00  0.00    +0.000 C 
ATOM      5  C   UNL     1      -2.528   7.619 131.483  0.00  0.00    +0.000 C 
ATOM      6  C   UNL     1      -3.883   7.046 131.647  0.00  0.00    +0.000 C 
ATOM      7  N   UNL     1      -3.730   5.643 131.940  0.00  0.00    +0.000 N 
ATOM      8  C   UNL     1      -2.685   5.178 131.042  0.00  0.00    +0.000 C 
ATOM      9  C   UNL     1      -4.498   4.821 132.737  0.00  0.00    +0.000 C 
ATOM     10  O   UNL     1      -4.182   3.627 132.778  0.00  0.00    +0.000 OA
ENDROOT
BRANCH   6  11
ATOM     11  C   UNL     1      -4.644   7.092 130.323  0.00  0.00    +0.000 C 
ATOM     12  O   UNL     1      -4.490   8.104 129.634  0.00  0.00    +0.000 OA
ATOM     13  N   UNL     1      -5.392   5.915 129.995  0.00  0.00    +0.000 N 
ATOM     14  H   UNL     1      -5.644   5.556 130.903  0.00  0.00    +0.000 HD
BRANCH  13  15
ATOM     15  C   UNL     1      -5.800   4.714 128.400  0.00  0.00    +0.000 C 
BRANCH  15  16
ATOM     16  C   UNL     1      -7.292   4.129 127.711  0.00  0.00    +0.000 C 
ATOM     17  O   UNL     1      -8.269   3.578 128.266  0.00  0.00    +0.000 OA
BRANCH  16  18
ATOM     18  C   UNL     1      -7.722   4.441 126.320  0.00  0.00    +0.000 C 
ATOM     19  O   UNL     1      -8.061   5.497 125.832  0.00  0.00    +0.000 OA
ATOM     20  N   UNL     1      -7.772   3.255 125.667  0.00  0.00    +0.000 N 
ATOM     21  H   UNL     1      -7.738   2.415 126.255  0.00  0.00    +0.000 HD
BRANCH  20  22
ATOM     22  C   UNL     1      -8.086   3.301 124.327  0.00  0.00    +0.000 C 
ATOM     23  C   UNL     1      -7.593   2.157 123.449  0.00  0.00    +0.000 C 
ATOM     24  C   UNL     1      -9.032   2.272 123.836  0.00  0.00    +0.000 C 
ENDBRANCH  20  22
ENDBRANCH  16  18
ENDBRANCH  15  16
BRANCH  15  25
ATOM     25  C   UNL     1      -4.289   4.599 127.068  0.00  0.00    +0.000 C 
BRANCH  25  26
ATOM     26  C   UNL     1      -2.624   3.887 127.736  0.00  0.00    +0.000 C 
ATOM     27  C   UNL     1      -1.887   3.087 126.788  0.00  0.00    +0.000 C 
ENDBRANCH  25  26
ENDBRANCH  15  25
ENDBRANCH  13  15
ENDBRANCH   6  11
BRANCH   9  28
ATOM     28  C   UNL     1      -5.717   5.367 133.641  0.00  0.00    +0.000 C 
BRANCH  28  29
ATOM     29  N   UNL     1      -6.935   4.612 133.327  0.00  0.00    +0.000 N 
ATOM     30  C   UNL     1      -7.722   5.137 132.406  0.00  0.00    +0.000 C 
ATOM     31  O   UNL     1      -7.530   6.295 132.096  0.00  0.00    +0.000 OA
ATOM     32  H   UNL     1      -7.492   4.165 134.064  0.00  0.00    +0.000 HD
BRANCH  30  33
ATOM     33  C   UNL     1      -8.931   4.490 131.903  0.00  0.00    +0.000 C 
BRANCH  33  34
ATOM     34  C   UNL     1      -8.398   3.042 131.751  0.00  0.00    +0.000 C 
ATOM     35  C   UNL     1      -9.771   1.677 131.946  0.00  0.00    +0.000 C 
ATOM     36  C   UNL     1      -9.180  -0.087 131.873  0.00  0.00    +0.000 C 
ATOM     37  C   UNL     1      -7.414  -0.654 131.131  0.00  0.00    +0.000 C 
ATOM     38  C   UNL     1      -5.887   0.579 131.144  0.00  0.00    +0.000 C 
ATOM     39  C   UNL     1      -6.529   2.343 130.850  0.00  0.00    +0.000 C 
ENDBRANCH  33  34
BRANCH  33  40
ATOM     40  N   UNL     1      -9.296   5.236 130.702  0.00  0.00    +0.000 N 
ATOM     41  C   UNL     1     -10.428   6.018 130.869  0.00  0.00    +0.000 C 
ATOM     42  O   UNL     1     -11.042   6.125 131.928  0.00  0.00    +0.000 OA
ATOM     43  H   UNL     1      -8.943   5.047 129.765  0.00  0.00    +0.000 HD
BRANCH  41  44
ATOM     44  C   UNL     1     -10.862   6.818 129.750  0.00  0.00    +0.000 A 
ATOM     45  N   UNL     1      -9.997   7.740 129.272  0.00  0.00    +0.000 NA
ATOM     46  C   UNL     1     -10.450   8.365 128.171  0.00  0.00    +0.000 A 
ATOM     47  C   UNL     1     -11.707   8.117 127.630  0.00  0.00    +0.000 A 
ATOM     48  N   UNL     1     -12.574   7.213 128.146  0.00  0.00    +0.000 NA
ATOM     49  C   UNL     1     -12.115   6.546 129.221  0.00  0.00    +0.000 A 
ENDBRANCH  41  44
ENDBRANCH  33  40
ENDBRANCH  30  33
ENDBRANCH  28  29
BRANCH  28  50
ATOM     50  C   UNL     1      -5.498   5.198 135.161  0.00  0.00    +0.000 C 
ATOM     51  C   UNL     1      -4.079   5.689 135.507  0.00  0.00    +0.000 C 
ATOM     52  C   UNL     1      -6.557   5.967 135.956  0.00  0.00    +0.000 C 
ATOM     53  C   UNL     1      -5.618   3.709 135.579  0.00  0.00    +0.000 C 
ENDBRANCH  28  50
ENDBRANCH   9  28
TORSDOF 14
ENDMDL
MODEL 2
REMARK VINA RESULT:     -10.5      3.941      7.617
REMARK  Name = Telaprevir
REMARK  18 active torsions:
REMARK  status: ('A' for Active; 'I' for Inactive)
REMARK    1  A    between atoms: C_8  and  C_37
REMARK    2  A    between atoms: C_11  and  C_13
REMARK    3  A    between atoms: C_13  and  N_14
REMARK    4  A    between atoms: C_13  and  C_33
REMARK    5  A    between atoms: C_15  and  C_17
REMARK    6  A    between atoms: C_17  and  N_18
REMARK    7  A    between atoms: C_17  and  C_27
REMARK    8  A    between atoms: C_19  and  C_21
REMARK    9  A    between atoms: C_33  and  C_34
REMARK   10  A    between atoms: C_33  and  C_35
REMARK   11  A    between atoms: C_33  and  C_36
REMARK   12  A    between atoms: N_39  and  C_40
REMARK   13  A    between atoms: C_40  and  C_41
REMARK   14  A    between atoms: C_40  and  C_44
REMARK   15  A    between atoms: C_41  and  C_42
REMARK   16  A    between atoms: C_42  and  C_43
REMARK   17  A    between atoms: C_44  and  C_46
REMARK   18  A    between atoms: N_48  and  C_49
REMARK                            x       y       z     vdW  Elec       q    Type
REMARK                         _______ _______ _______ _____ _____    ______ ____
ROOT
ATOM      1  C   UNL     1      -7.354   6.017 130.819  0.00  0.00    +0.000 C 
ATOM      2  C   UNL     1      -7.233   5.997 132.329  0.00  0.00    +0.000 C 
ATOM      3  C   UNL     1      -8.656   6.088 132.868  0.00  0.00    +0.000 C 
ATOM      4  C   UNL     1      -9.454   5.215 131.951  0.00  0.00    +0.000 C 
ATOM      5  C   UNL     1      -8.784   5.509 130.603  0.00  0.00    +0.000 C 
ATOM      6  C   UNL     1      -8.535   4.204 129.950  0.00  0.00    +0.000 C 
ATOM      7  N   UNL     1      -7.203   3.784 130.311  0.00  0.00    +0.000 N 
ATOM      8  C   UNL     1      -6.386   4.983 130.215  0.00  0.00    +0.000 C 
ATOM      9  C   UNL     1      -6.708   2.515 130.523  0.00  0.00    +0.000 C 
ATOM     10  O   UNL     1      -5.501   2.420 130.772  0.00  0.00    +0.000 OA
ENDROOT
BRANCH   6  11
ATOM     11  C   UNL     1      -8.498   4.367 128.431  0.00  0.00    +0.000 C 
ATOM     12  O   UNL     1      -8.954   5.421 127.980  0.00  0.00    +0.000 OA
ATOM     13  N   UNL     1      -7.865   3.305 127.708  0.00  0.00    +0.000 N 
ATOM     14  H   UNL     1      -8.044   2.505 128.293  0.00  0.00    +0.000 HD
BRANCH  13  15
ATOM     15  C   UNL     1      -6.584   3.020 126.149  0.00  0.00    +0.000 C 
BRANCH  15  16
ATOM     16  C   UNL     1      -6.359   3.857 124.635  0.00  0.00    +0.000 C 
ATOM     17  O   UNL     1      -5.962   5.023 124.415  0.00  0.00    +0.000 OA
BRANCH  16  18
ATOM     18  C   UNL     1      -6.391   3.169 123.315  0.00  0.00    +0.000 C 
ATOM     19  O   UNL     1      -6.782   2.059 123.028  0.00  0.00    +0.000 OA
ATOM     20  N   UNL     1      -5.778   4.004 122.441  0.00  0.00    +0.000 N 
ATOM     21  H   UNL     1      -5.246   4.777 122.855  0.00  0.00    +0.000 HD
BRANCH  20  22
ATOM     22  C   UNL     1      -5.746   3.603 121.123  0.00  0.00    +0.000 C 
ATOM     23  C   UNL     1      -6.791   4.194 120.184  0.00  0.00    +0.000 C 
ATOM     24  C   UNL     1      -5.364   4.634 120.131  0.00  0.00    +0.000 C 
ENDBRANCH  20  22
ENDBRANCH  16  18
ENDBRANCH  15  16
BRANCH  15  25
ATOM     25  C   UNL     1      -4.949   1.940 126.633  0.00  0.00    +0.000 C 
BRANCH  25  26
ATOM     26  C   UNL     1      -3.518   2.909 127.492  0.00  0.00    +0.000 C 
ATOM     27  C   UNL     1      -2.635   3.605 126.588  0.00  0.00    +0.000 C 
ENDBRANCH  25  26
ENDBRANCH  15  25
ENDBRANCH  13  15
ENDBRANCH   6  11
BRANCH   9  28
ATOM     28  C   UNL     1      -7.639   1.199 130.520  0.00  0.00    +0.000 C 
BRANCH  28  29
ATOM     29  N   UNL     1      -6.813   0.015 130.266  0.00  0.00    +0.000 N 
ATOM     30  C   UNL     1      -6.702  -0.358 129.004  0.00  0.00    +0.000 C 
ATOM     31  O   UNL     1      -7.484   0.121 128.207  0.00  0.00    +0.000 OA
ATOM     32  H   UNL     1      -6.850  -0.807 130.881  0.00  0.00    +0.000 HD
BRANCH  30  33
ATOM     33  C   UNL     1      -5.857  -1.458 128.550  0.00  0.00    +0.000 C 
BRANCH  33  34
ATOM     34  C   UNL     1      -6.624  -1.850 127.260  0.00  0.00    +0.000 C 
ATOM     35  C   UNL     1      -5.587  -1.622 125.631  0.00  0.00    +0.000 C 
ATOM     36  C   UNL     1      -6.484  -1.980 124.038  0.00  0.00    +0.000 C 
ATOM     37  C   UNL     1      -8.181  -3.026 123.913  0.00  0.00    +0.000 C 
ATOM     38  C   UNL     1      -9.427  -3.087 125.429  0.00  0.00    +0.000 C 
ATOM     39  C   UNL     1      -8.421  -3.081 127.041  0.00  0.00    +0.000 C 
ENDBRANCH  33  34
BRANCH  33  40
ATOM     40  N   UNL     1      -5.822  -2.403 129.663  0.00  0.00    +0.000 N 
ATOM     41  C   UNL     1      -4.536  -2.707 130.079  0.00  0.00    +0.000 C 
ATOM     42  O   UNL     1      -3.521  -2.202 129.607  0.00  0.00    +0.000 OA
ATOM     43  H   UNL     1      -6.604  -2.983 129.964  0.00  0.00    +0.000 HD
BRANCH  41  44
ATOM     44  C   UNL     1      -4.387  -3.612 131.193  0.00  0.00    +0.000 A 
ATOM     45  N   UNL     1      -3.332  -3.417 132.015  0.00  0.00    +0.000 NA
ATOM     46  C   UNL     1      -3.333  -4.242 133.076  0.00  0.00    +0.000 A 
ATOM     47  C   UNL     1      -4.295  -5.229 133.260  0.00  0.00    +0.000 A 
ATOM     48  N   UNL     1      -5.327  -5.431 132.405  0.00  0.00    +0.000 NA
ATOM     49  C   UNL     1      -5.365  -4.580 131.363  0.00  0.00    +0.000 A 
ENDBRANCH  41  44
ENDBRANCH  33  40
ENDBRANCH  30  33
ENDBRANCH  28  29
BRANCH  28  50
ATOM     50  C   UNL     1      -8.356   0.931 131.863  0.00  0.00    +0.000 C 
ATOM     51  C   UNL     1      -7.566   1.634 132.985  0.00  0.00    +0.000 C 
ATOM     52  C   UNL     1      -9.806   1.420 131.819  0.00  0.00    +0.000 C 
ATOM     53  C   UNL     1      -8.404  -0.587 132.174  0.00  0.00    +0.000 C 
ENDBRANCH  28  50
ENDBRANCH   9  28
TORSDOF 14
ENDMDL
MODEL 3
REMARK VINA RESULT:     -10.5      2.072      6.092
REMARK  Name = Telaprevir
REMARK  18 active torsions:
REMARK  status: ('A' for Active; 'I' for Inactive)
REMARK    1  A    between atoms: C_8  and  C_37
REMARK    2  A    between atoms: C_11  and  C_13
REMARK    3  A    between atoms: C_13  and  N_14
REMARK    4  A    between atoms: C_13  and  C_33
REMARK    5  A    between atoms: C_15  and  C_17
REMARK    6  A    between atoms: C_17  and  N_18
REMARK    7  A    between atoms: C_17  and  C_27
REMARK    8  A    between atoms: C_19  and  C_21
REMARK    9  A    between atoms: C_33  and  C_34
REMARK   10  A    between atoms: C_33  and  C_35
REMARK   11  A    between atoms: C_33  and  C_36
REMARK   12  A    between atoms: N_39  and  C_40
REMARK   13  A    between atoms: C_40  and  C_41
REMARK   14  A    between atoms: C_40  and  C_44
REMARK   15  A    between atoms: C_41  and  C_42
REMARK   16  A    between atoms: C_42  and  C_43
REMARK   17  A    between atoms: C_44  and  C_46
REMARK   18  A    between atoms: N_48  and  C_49
REMARK                            x       y       z     vdW  Elec       q    Type
REMARK                         _______ _______ _______ _____ _____    ______ ____
ROOT
ATOM      1  C   UNL     1      -3.374   6.488 132.837  0.00  0.00    +0.000 C 
ATOM      2  C   UNL     1      -2.359   7.365 132.134  0.00  0.00    +0.000 C 
ATOM      3  C   UNL     1      -1.002   6.711 132.365  0.00  0.00    +0.000 C 
ATOM      4  C   UNL     1      -1.271   5.245 132.227  0.00  0.00    +0.000 C 
ATOM      5  C   UNL     1      -2.654   5.134 132.881  0.00  0.00    +0.000 C 
ATOM      6  C   UNL     1      -3.499   4.325 131.974  0.00  0.00    +0.000 C 
ATOM      7  N   UNL     1      -4.190   5.235 131.095  0.00  0.00    +0.000 N 
ATOM      8  C   UNL     1      -4.621   6.333 131.946  0.00  0.00    +0.000 C 
ATOM      9  C   UNL     1      -4.564   5.074 129.778  0.00  0.00    +0.000 C 
ATOM     10  O   UNL     1      -5.204   5.996 129.261  0.00  0.00    +0.000 OA
ENDROOT
BRANCH   6  11
ATOM     11  C   UNL     1      -4.603   3.621 132.761  0.00  0.00    +0.000 C 
ATOM     12  O   UNL     1      -4.326   3.281 133.914  0.00  0.00    +0.000 OA
ATOM     13  N   UNL     1      -5.864   3.505 132.091  0.00  0.00    +0.000 N 
ATOM     14  H   UNL     1      -5.594   3.455 131.122  0.00  0.00    +0.000 HD
BRANCH  13  15
ATOM     15  C   UNL     1      -7.859   3.692 132.469  0.00  0.00    +0.000 C 
BRANCH  15  16
ATOM     16  C   UNL     1      -9.280   3.231 131.571  0.00  0.00    +0.000 C 
ATOM     17  O   UNL     1     -10.071   2.278 131.755  0.00  0.00    +0.000 OA
BRANCH  16  18
ATOM     18  C   UNL     1      -9.909   4.103 130.540  0.00  0.00    +0.000 C 
ATOM     19  O   UNL     1      -9.647   4.224 129.364  0.00  0.00    +0.000 OA
ATOM     20  N   UNL     1     -10.816   4.866 131.196  0.00  0.00    +0.000 N 
ATOM     21  H   UNL     1     -10.745   4.871 132.219  0.00  0.00    +0.000 HD
BRANCH  20  22
ATOM     22  C   UNL     1     -11.579   5.716 130.426  0.00  0.00    +0.000 C 
ATOM     23  C   UNL     1     -12.333   6.829 131.144  0.00  0.00    +0.000 C 
ATOM     24  C   UNL     1     -11.111   7.119 130.333  0.00  0.00    +0.000 C 
ENDBRANCH  20  22
ENDBRANCH  16  18
ENDBRANCH  15  16
BRANCH  15  25
ATOM     25  C   UNL     1      -8.289   3.968 134.421  0.00  0.00    +0.000 C 
BRANCH  25  26
ATOM     26  C   UNL     1      -7.720   5.648 135.184  0.00  0.00    +0.000 C 
ATOM     27  C   UNL     1      -6.300   5.750 135.421  0.00  0.00    +0.000 C 
ENDBRANCH  25  26
ENDBRANCH  15  25
ENDBRANCH  13  15
ENDBRANCH   6  11
BRANCH   9  28
ATOM     28  C   UNL     1      -4.148   3.787 128.900  0.00  0.00    +0.000 C 
BRANCH  28  29
ATOM     29  N   UNL     1      -5.353   3.161 128.348  0.00  0.00    +0.000 N 
ATOM     30  C   UNL     1      -5.649   1.960 128.813  0.00  0.00    +0.000 C 
ATOM     31  O   UNL     1      -4.788   1.370 129.433  0.00  0.00    +0.000 OA
ATOM     32  H   UNL     1      -5.581   3.225 127.349  0.00  0.00    +0.000 HD
BRANCH  30  33
ATOM     33  C   UNL     1      -6.851   1.218 128.445  0.00  0.00    +0.000 C 
BRANCH  33  34
ATOM     34  C   UNL     1      -6.467  -0.177 129.002  0.00  0.00    +0.000 C 
ATOM     35  C   UNL     1      -7.627  -0.797 130.435  0.00  0.00    +0.000 C 
ATOM     36  C   UNL     1      -7.159  -2.422 131.215  0.00  0.00    +0.000 C 
ATOM     37  C   UNL     1      -5.924  -3.755 130.386  0.00  0.00    +0.000 C 
ATOM     38  C   UNL     1      -4.535  -3.176 129.126  0.00  0.00    +0.000 C 
ATOM     39  C   UNL     1      -5.213  -1.728 128.099  0.00  0.00    +0.000 C 
ENDBRANCH  33  34
BRANCH  33  40
ATOM     40  N   UNL     1      -6.984   1.388 127.001  0.00  0.00    +0.000 N 
ATOM     41  C   UNL     1      -8.294   1.582 126.593  0.00  0.00    +0.000 C 
ATOM     42  O   UNL     1      -9.251   1.659 127.360  0.00  0.00    +0.000 OA
ATOM     43  H   UNL     1      -6.268   1.152 126.315  0.00  0.00    +0.000 HD
BRANCH  41  44
ATOM     44  C   UNL     1      -8.536   1.788 125.186  0.00  0.00    +0.000 A 
ATOM     45  N   UNL     1      -9.086   0.766 124.493  0.00  0.00    +0.000 NA
ATOM     46  C   UNL     1      -9.367   1.086 123.218  0.00  0.00    +0.000 A 
ATOM     47  C   UNL     1      -9.059   2.327 122.670  0.00  0.00    +0.000 A 
ATOM     48  N   UNL     1      -8.475   3.327 123.372  0.00  0.00    +0.000 NA
ATOM     49  C   UNL     1      -8.232   3.036 124.664  0.00  0.00    +0.000 A 
ENDBRANCH  41  44
ENDBRANCH  33  40
ENDBRANCH  30  33
ENDBRANCH  28  29
BRANCH  28  50
ATOM     50  C   UNL     1      -3.251   4.117 127.685  0.00  0.00    +0.000 C 
ATOM     51  C   UNL     1      -2.457   5.400 127.999  0.00  0.00    +0.000 C 
ATOM     52  C   UNL     1      -2.312   2.951 127.364  0.00  0.00    +0.000 C 
ATOM     53  C   UNL     1      -4.106   4.366 126.415  0.00  0.00    +0.000 C 
ENDBRANCH  28  50
ENDBRANCH   9  28
TORSDOF 14
ENDMDL
MODEL 4
REMARK VINA RESULT:     -10.5      2.774      6.975
REMARK  Name = Telaprevir
REMARK  18 active torsions:
REMARK  status: ('A' for Active; 'I' for Inactive)
REMARK    1  A    between atoms: C_8  and  C_37
REMARK    2  A    between atoms: C_11  and  C_13
REMARK    3  A    between atoms: C_13  and  N_14
REMARK    4  A    between atoms: C_13  and  C_33
REMARK    5  A    between atoms: C_15  and  C_17
REMARK    6  A    between atoms: C_17  and  N_18
REMARK    7  A    between atoms: C_17  and  C_27
REMARK    8  A    between atoms: C_19  and  C_21
REMARK    9  A    between atoms: C_33  and  C_34
REMARK   10  A    between atoms: C_33  and  C_35
REMARK   11  A    between atoms: C_33  and  C_36
REMARK   12  A    between atoms: N_39  and  C_40
REMARK   13  A    between atoms: C_40  and  C_41
REMARK   14  A    between atoms: C_40  and  C_44
REMARK   15  A    between atoms: C_41  and  C_42
REMARK   16  A    between atoms: C_42  and  C_43
REMARK   17  A    between atoms: C_44  and  C_46
REMARK   18  A    between atoms: N_48  and  C_49
REMARK                            x       y       z     vdW  Elec       q    Type
REMARK                         _______ _______ _______ _____ _____    ______ ____
ROOT
ATOM      1  C   UNL     1      -4.847   5.883 131.593  0.00  0.00    +0.000 C 
ATOM      2  C   UNL     1      -4.311   7.116 130.897  0.00  0.00    +0.000 C 
ATOM      3  C   UNL     1      -2.792   7.012 130.963  0.00  0.00    +0.000 C 
ATOM      4  C   UNL     1      -2.511   5.563 130.713  0.00  0.00    +0.000 C 
ATOM      5  C   UNL     1      -3.677   4.901 131.458  0.00  0.00    +0.000 C 
ATOM      6  C   UNL     1      -4.251   3.885 130.547  0.00  0.00    +0.000 C 
ATOM      7  N   UNL     1      -5.319   4.514 129.811  0.00  0.00    +0.000 N 
ATOM      8  C   UNL     1      -6.034   5.318 130.789  0.00  0.00    +0.000 C 
ATOM      9  C   UNL     1      -5.743   4.297 128.517  0.00  0.00    +0.000 C 
ATOM     10  O   UNL     1      -6.730   4.937 128.138  0.00  0.00    +0.000 OA
ENDROOT
BRANCH   6  11
ATOM     11  C   UNL     1      -4.926   2.773 131.349  0.00  0.00    +0.000 C 
ATOM     12  O   UNL     1      -4.613   2.684 132.539  0.00  0.00    +0.000 OA
ATOM     13  N   UNL     1      -5.907   2.006 130.641  0.00  0.00    +0.000 N 
ATOM     14  H   UNL     1      -5.570   2.040 129.693  0.00  0.00    +0.000 HD
BRANCH  13  15
ATOM     15  C   UNL     1      -7.758   1.198 130.917  0.00  0.00    +0.000 C 
BRANCH  15  16
ATOM     16  C   UNL     1      -9.320   1.904 131.242  0.00  0.00    +0.000 C 
ATOM     17  O   UNL     1     -10.137   1.655 132.156  0.00  0.00    +0.000 OA
BRANCH  16  18
ATOM     18  C   UNL     1      -9.811   3.136 130.565  0.00  0.00    +0.000 C 
ATOM     19  O   UNL     1      -9.917   3.381 129.383  0.00  0.00    +0.000 OA
ATOM     20  N   UNL     1     -10.042   4.039 131.548  0.00  0.00    +0.000 N 
ATOM     21  H   UNL     1      -9.651   3.812 132.469  0.00  0.00    +0.000 HD
BRANCH  20  22
ATOM     22  C   UNL     1     -10.573   5.250 131.162  0.00  0.00    +0.000 C 
ATOM     23  C   UNL     1     -10.836   6.283 132.252  0.00  0.00    +0.000 C 
ATOM     24  C   UNL     1      -9.690   6.431 131.304  0.00  0.00    +0.000 C 
ENDBRANCH  20  22
ENDBRANCH  16  18
ENDBRANCH  15  16
BRANCH  15  25
ATOM     25  C   UNL     1      -7.944  -0.670 130.177  0.00  0.00    +0.000 C 
BRANCH  25  26
ATOM     26  C   UNL     1      -6.312  -1.507 129.574  0.00  0.00    +0.000 C 
ATOM     27  C   UNL     1      -6.497  -2.544 128.586  0.00  0.00    +0.000 C 
ENDBRANCH  25  26
ENDBRANCH  15  25
ENDBRANCH  13  15
ENDBRANCH   6  11
BRANCH   9  28
ATOM     28  C   UNL     1      -4.974   3.315 127.496  0.00  0.00    +0.000 C 
BRANCH  28  29
ATOM     29  N   UNL     1      -5.804   3.098 126.307  0.00  0.00    +0.000 N 
ATOM     30  C   UNL     1      -6.691   2.123 126.387  0.00  0.00    +0.000 C 
ATOM     31  O   UNL     1      -6.572   1.330 127.298  0.00  0.00    +0.000 OA
ATOM     32  H   UNL     1      -5.408   3.147 125.361  0.00  0.00    +0.000 HD
BRANCH  30  33
ATOM     33  C   UNL     1      -7.659   1.814 125.339  0.00  0.00    +0.000 C 
BRANCH  33  34
ATOM     34  C   UNL     1      -7.583   0.265 125.373  0.00  0.00    +0.000 C 
ATOM     35  C   UNL     1      -9.266  -0.592 125.841  0.00  0.00    +0.000 C 
ATOM     36  C   UNL     1      -9.217  -2.447 125.998  0.00  0.00    +0.000 C 
ATOM     37  C   UNL     1      -7.768  -3.603 125.252  0.00  0.00    +0.000 C 
ATOM     38  C   UNL     1      -5.957  -2.890 125.000  0.00  0.00    +0.000 C 
ATOM     39  C   UNL     1      -6.089  -1.066 124.485  0.00  0.00    +0.000 C 
ENDBRANCH  33  34
BRANCH  33  40
ATOM     40  N   UNL     1      -7.179   2.515 124.151  0.00  0.00    +0.000 N 
ATOM     41  C   UNL     1      -8.114   2.557 123.129  0.00  0.00    +0.000 C 
ATOM     42  O   UNL     1      -9.252   2.102 123.215  0.00  0.00    +0.000 OA
ATOM     43  H   UNL     1      -6.206   2.743 123.958  0.00  0.00    +0.000 HD
BRANCH  41  44
ATOM     44  C   UNL     1      -7.754   3.252 121.917  0.00  0.00    +0.000 A 
ATOM     45  N   UNL     1      -6.448   3.550 121.735  0.00  0.00    +0.000 NA
ATOM     46  C   UNL     1      -6.197   4.104 120.537  0.00  0.00    +0.000 A 
ATOM     47  C   UNL     1      -7.199   4.390 119.616  0.00  0.00    +0.000 A 
ATOM     48  N   UNL     1      -8.508   4.115 119.832  0.00  0.00    +0.000 NA
ATOM     49  C   UNL     1      -8.768   3.516 121.008  0.00  0.00    +0.000 A 
ENDBRANCH  41  44
ENDBRANCH  33  40
ENDBRANCH  30  33
ENDBRANCH  28  29
BRANCH  28  50
ATOM     50  C   UNL     1      -3.631   3.874 126.975  0.00  0.00    +0.000 C 
ATOM     51  C   UNL     1      -3.541   5.364 127.361  0.00  0.00    +0.000 C 
ATOM     52  C   UNL     1      -2.450   3.084 127.544  0.00  0.00    +0.000 C 
ATOM     53  C   UNL     1      -3.543   3.761 125.431  0.00  0.00    +0.000 C 
ENDBRANCH  28  50
ENDBRANCH   9  28
TORSDOF 14
ENDMDL
MODEL 5
REMARK VINA RESULT:     -10.4      3.709      7.061
REMARK  Name = Telaprevir
REMARK  18 active torsions:
REMARK  status: ('A' for Active; 'I' for Inactive)
REMARK    1  A    between atoms: C_8  and  C_37
REMARK    2  A    between atoms: C_11  and  C_13
REMARK    3  A    between atoms: C_13  and  N_14
REMARK    4  A    between atoms: C_13  and  C_33
REMARK    5  A    between atoms: C_15  and  C_17
REMARK    6  A    between atoms: C_17  and  N_18
REMARK    7  A    between atoms: C_17  and  C_27
REMARK    8  A    between atoms: C_19  and  C_21
REMARK    9  A    between atoms: C_33  and  C_34
REMARK   10  A    between atoms: C_33  and  C_35
REMARK   11  A    between atoms: C_33  and  C_36
REMARK   12  A    between atoms: N_39  and  C_40
REMARK   13  A    between atoms: C_40  and  C_41
REMARK   14  A    between atoms: C_40  and  C_44
REMARK   15  A    between atoms: C_41  and  C_42
REMARK   16  A    between atoms: C_42  and  C_43
REMARK   17  A    between atoms: C_44  and  C_46
REMARK   18  A    between atoms: N_48  and  C_49
REMARK                            x       y       z     vdW  Elec       q    Type
REMARK                         _______ _______ _______ _____ _____    ______ ____
ROOT
ATOM      1  C   UNL     1      -5.799  -4.524 131.219  0.00  0.00    +0.000 C 
ATOM      2  C   UNL     1      -6.051  -4.765 132.693  0.00  0.00    +0.000 C 
ATOM      3  C   UNL     1      -4.714  -5.195 133.286  0.00  0.00    +0.000 C 
ATOM      4  C   UNL     1      -3.711  -4.314 132.609  0.00  0.00    +0.000 C 
ATOM      5  C   UNL     1      -4.293  -4.234 131.192  0.00  0.00    +0.000 C 
ATOM      6  C   UNL     1      -4.278  -2.807 130.799  0.00  0.00    +0.000 C 
ATOM      7  N   UNL     1      -5.555  -2.242 131.158  0.00  0.00    +0.000 N 
ATOM      8  C   UNL     1      -6.536  -3.245 130.777  0.00  0.00    +0.000 C 
ATOM      9  C   UNL     1      -5.865  -0.969 131.588  0.00  0.00    +0.000 C 
ATOM     10  O   UNL     1      -7.060  -0.719 131.779  0.00  0.00    +0.000 OA
ENDROOT
BRANCH   6  11
ATOM     11  C   UNL     1      -4.202  -2.675 129.278  0.00  0.00    +0.000 C 
ATOM     12  O   UNL     1      -3.808  -3.667 128.659  0.00  0.00    +0.000 OA
ATOM     13  N   UNL     1      -4.671  -1.434 128.738  0.00  0.00    +0.000 N 
ATOM     14  H   UNL     1      -4.470  -0.782 129.480  0.00  0.00    +0.000 HD
BRANCH  13  15
ATOM     15  C   UNL     1      -5.787  -0.725 127.186  0.00  0.00    +0.000 C 
BRANCH  15  16
ATOM     16  C   UNL     1      -6.230   0.886 126.688  0.00  0.00    +0.000 C 
ATOM     17  O   UNL     1      -7.318   1.492 126.810  0.00  0.00    +0.000 OA
BRANCH  16  18
ATOM     18  C   UNL     1      -5.237   1.897 126.231  0.00  0.00    +0.000 C 
ATOM     19  O   UNL     1      -4.036   1.931 126.389  0.00  0.00    +0.000 OA
ATOM     20  N   UNL     1      -5.952   2.893 125.655  0.00  0.00    +0.000 N 
ATOM     21  H   UNL     1      -6.962   2.883 125.833  0.00  0.00    +0.000 HD
BRANCH  20  22
ATOM     22  C   UNL     1      -5.232   3.923 125.091  0.00  0.00    +0.000 C 
ATOM     23  C   UNL     1      -5.606   4.352 123.677  0.00  0.00    +0.000 C 
ATOM     24  C   UNL     1      -5.964   5.190 124.861  0.00  0.00    +0.000 C 
ENDBRANCH  20  22
ENDBRANCH  16  18
ENDBRANCH  15  16
BRANCH  15  25
ATOM     25  C   UNL     1      -5.981  -2.038 125.665  0.00  0.00    +0.000 C 
BRANCH  25  26
ATOM     26  C   UNL     1      -7.726  -2.835 125.453  0.00  0.00    +0.000 C 
ATOM     27  C   UNL     1      -7.787  -3.899 124.481  0.00  0.00    +0.000 C 
ENDBRANCH  25  26
ENDBRANCH  15  25
ENDBRANCH  13  15
ENDBRANCH   6  11
BRANCH   9  28
ATOM     28  C   UNL     1      -4.745   0.147 131.902  0.00  0.00    +0.000 C 
BRANCH  28  29
ATOM     29  N   UNL     1      -5.213   1.456 131.435  0.00  0.00    +0.000 N 
ATOM     30  C   UNL     1      -4.774   1.842 130.251  0.00  0.00    +0.000 C 
ATOM     31  O   UNL     1      -3.835   1.236 129.776  0.00  0.00    +0.000 OA
ATOM     32  H   UNL     1      -5.283   2.258 132.071  0.00  0.00    +0.000 HD
BRANCH  30  33
ATOM     33  C   UNL     1      -5.196   3.071 129.586  0.00  0.00    +0.000 C 
BRANCH  33  34
ATOM     34  C   UNL     1      -4.028   4.000 130.008  0.00  0.00    +0.000 C 
ATOM     35  C   UNL     1      -3.560   5.328 128.666  0.00  0.00    +0.000 C 
ATOM     36  C   UNL     1      -2.099   6.412 129.069  0.00  0.00    +0.000 C 
ATOM     37  C   UNL     1      -1.342   6.645 130.903  0.00  0.00    +0.000 C 
ATOM     38  C   UNL     1      -1.535   5.228 132.247  0.00  0.00    +0.000 C 
ATOM     39  C   UNL     1      -3.222   4.389 132.006  0.00  0.00    +0.000 C 
ENDBRANCH  33  34
BRANCH  33  40
ATOM     40  N   UNL     1      -6.535   3.347 130.099  0.00  0.00    +0.000 N 
ATOM     41  C   UNL     1      -7.285   4.153 129.258  0.00  0.00    +0.000 C 
ATOM     42  O   UNL     1      -6.897   4.560 128.165  0.00  0.00    +0.000 OA
ATOM     43  H   UNL     1      -6.838   3.196 131.060  0.00  0.00    +0.000 HD
BRANCH  41  44
ATOM     44  C   UNL     1      -8.636   4.466 129.655  0.00  0.00    +0.000 A 
ATOM     45  N   UNL     1      -8.998   5.769 129.655  0.00  0.00    +0.000 NA
ATOM     46  C   UNL     1     -10.299   5.953 129.941  0.00  0.00    +0.000 A 
ATOM     47  C   UNL     1     -11.153   4.903 130.260  0.00  0.00    +0.000 A 
ATOM     48  N   UNL     1     -10.762   3.606 130.288  0.00  0.00    +0.000 NA
ATOM     49  C   UNL     1      -9.474   3.403 129.958  0.00  0.00    +0.000 A 
ENDBRANCH  41  44
ENDBRANCH  33  40
ENDBRANCH  30  33
ENDBRANCH  28  29
BRANCH  28  50
ATOM     50  C   UNL     1      -4.435   0.324 133.406  0.00  0.00    +0.000 C 
ATOM     51  C   UNL     1      -2.980   0.811 133.549  0.00  0.00    +0.000 C 
ATOM     52  C   UNL     1      -5.413   1.306 134.055  0.00  0.00    +0.000 C 
ATOM     53  C   UNL     1      -4.579  -1.021 134.165  0.00  0.00    +0.000 C 
ENDBRANCH  28  50
ENDBRANCH   9  28
TORSDOF 14
ENDMDL
MODEL 6
REMARK VINA RESULT:     -10.4      2.212      5.300
REMARK  Name = Telaprevir
REMARK  18 active torsions:
REMARK  status: ('A' for Active; 'I' for Inactive)
REMARK    1  A    between atoms: C_8  and  C_37
REMARK    2  A    between atoms: C_11  and  C_13
REMARK    3  A    between atoms: C_13  and  N_14
REMARK    4  A    between atoms: C_13  and  C_33
REMARK    5  A    between atoms: C_15  and  C_17
REMARK    6  A    between atoms: C_17  and  N_18
REMARK    7  A    between atoms: C_17  and  C_27
REMARK    8  A    between atoms: C_19  and  C_21
REMARK    9  A    between atoms: C_33  and  C_34
REMARK   10  A    between atoms: C_33  and  C_35
REMARK   11  A    between atoms: C_33  and  C_36
REMARK   12  A    between atoms: N_39  and  C_40
REMARK   13  A    between atoms: C_40  and  C_41
REMARK   14  A    between atoms: C_40  and  C_44
REMARK   15  A    between atoms: C_41  and  C_42
REMARK   16  A    between atoms: C_42  and  C_43
REMARK   17  A    between atoms: C_44  and  C_46
REMARK   18  A    between atoms: N_48  and  C_49
REMARK                            x       y       z     vdW  Elec       q    Type
REMARK                         _______ _______ _______ _____ _____    ______ ____
ROOT
ATOM      1  C   UNL     1      -2.611   6.963 133.629  0.00  0.00    +0.000 C 
ATOM      2  C   UNL     1      -1.736   7.911 132.837  0.00  0.00    +0.000 C 
ATOM      3  C   UNL     1      -0.395   7.208 132.667  0.00  0.00    +0.000 C 
ATOM      4  C   UNL     1      -0.759   5.780 132.401  0.00  0.00    +0.000 C 
ATOM      5  C   UNL     1      -1.967   5.603 133.330  0.00  0.00    +0.000 C 
ATOM      6  C   UNL     1      -3.029   4.944 132.538  0.00  0.00    +0.000 C 
ATOM      7  N   UNL     1      -3.853   5.981 131.966  0.00  0.00    +0.000 N 
ATOM      8  C   UNL     1      -4.031   6.956 133.030  0.00  0.00    +0.000 C 
ATOM      9  C   UNL     1      -4.516   6.012 130.758  0.00  0.00    +0.000 C 
ATOM     10  O   UNL     1      -5.209   7.009 130.526  0.00  0.00    +0.000 OA
ENDROOT
BRANCH   6  11
ATOM     11  C   UNL     1      -3.965   4.157 133.453  0.00  0.00    +0.000 C 
ATOM     12  O   UNL     1      -3.705   4.182 134.659  0.00  0.00    +0.000 OA
ATOM     13  N   UNL     1      -5.088   3.540 132.812  0.00  0.00    +0.000 N 
ATOM     14  H   UNL     1      -4.734   3.349 131.888  0.00  0.00    +0.000 HD
BRANCH  13  15
ATOM     15  C   UNL     1      -7.083   3.239 133.099  0.00  0.00    +0.000 C 
BRANCH  15  16
ATOM     16  C   UNL     1      -8.134   1.886 132.770  0.00  0.00    +0.000 C 
ATOM     17  O   UNL     1      -9.349   1.870 132.469  0.00  0.00    +0.000 OA
BRANCH  16  18
ATOM     18  C   UNL     1      -7.633   0.499 132.564  0.00  0.00    +0.000 C 
ATOM     19  O   UNL     1      -7.375  -0.361 133.378  0.00  0.00    +0.000 OA
ATOM     20  N   UNL     1      -7.399   0.377 131.235  0.00  0.00    +0.000 N 
ATOM     21  H   UNL     1      -7.386   1.251 130.698  0.00  0.00    +0.000 HD
BRANCH  20  22
ATOM     22  C   UNL     1      -6.987  -0.860 130.792  0.00  0.00    +0.000 C 
ATOM     23  C   UNL     1      -7.714  -1.456 129.592  0.00  0.00    +0.000 C 
ATOM     24  C   UNL     1      -6.332  -0.900 129.464  0.00  0.00    +0.000 C 
ENDBRANCH  20  22
ENDBRANCH  16  18
ENDBRANCH  15  16
BRANCH  15  25
ATOM     25  C   UNL     1      -7.899   4.479 134.466  0.00  0.00    +0.000 C 
BRANCH  25  26
ATOM     26  C   UNL     1      -6.713   5.108 135.854  0.00  0.00    +0.000 C 
ATOM     27  C   UNL     1      -7.181   6.275 136.562  0.00  0.00    +0.000 C 
ENDBRANCH  25  26
ENDBRANCH  15  25
ENDBRANCH  13  15
ENDBRANCH   6  11
BRANCH   9  28
ATOM     28  C   UNL     1      -4.368   4.854 129.647  0.00  0.00    +0.000 C 
BRANCH  28  29
ATOM     29  N   UNL     1      -5.664   4.627 129.000  0.00  0.00    +0.000 N 
ATOM     30  C   UNL     1      -6.343   3.572 129.413  0.00  0.00    +0.000 C 
ATOM     31  O   UNL     1      -5.747   2.745 130.074  0.00  0.00    +0.000 OA
ATOM     32  H   UNL     1      -5.791   4.762 127.990  0.00  0.00    +0.000 HD
BRANCH  30  33
ATOM     33  C   UNL     1      -7.684   3.233 128.949  0.00  0.00    +0.000 C 
BRANCH  33  34
ATOM     34  C   UNL     1      -7.325   2.128 127.921  0.00  0.00    +0.000 C 
ATOM     35  C   UNL     1      -8.870   1.177 127.219  0.00  0.00    +0.000 C 
ATOM     36  C   UNL     1      -8.499  -0.230 126.056  0.00  0.00    +0.000 C 
ATOM     37  C   UNL     1      -6.753  -0.488 125.121  0.00  0.00    +0.000 C 
ATOM     38  C   UNL     1      -5.093   0.209 125.902  0.00  0.00    +0.000 C 
ATOM     39  C   UNL     1      -5.478   1.850 126.779  0.00  0.00    +0.000 C 
ENDBRANCH  33  34
BRANCH  33  40
ATOM     40  N   UNL     1      -8.253   4.487 128.463  0.00  0.00    +0.000 N 
ATOM     41  C   UNL     1      -9.292   4.955 129.252  0.00  0.00    +0.000 C 
ATOM     42  O   UNL     1      -9.673   4.411 130.286  0.00  0.00    +0.000 OA
ATOM     43  H   UNL     1      -8.108   4.875 127.533  0.00  0.00    +0.000 HD
BRANCH  41  44
ATOM     44  C   UNL     1      -9.910   6.204 128.877  0.00  0.00    +0.000 A 
ATOM     45  N   UNL     1      -9.929   6.519 127.563  0.00  0.00    +0.000 NA
ATOM     46  C   UNL     1     -10.612   7.647 127.303  0.00  0.00    +0.000 A 
ATOM     47  C   UNL     1     -11.180   8.429 128.303  0.00  0.00    +0.000 A 
ATOM     48  N   UNL     1     -11.119   8.114 129.619  0.00  0.00    +0.000 NA
ATOM     49  C   UNL     1     -10.480   6.961 129.890  0.00  0.00    +0.000 A 
ENDBRANCH  41  44
ENDBRANCH  33  40
ENDBRANCH  30  33
ENDBRANCH  28  29
BRANCH  28  50
ATOM     50  C   UNL     1      -3.384   5.199 128.505  0.00  0.00    +0.000 C 
ATOM     51  C   UNL     1      -2.698   3.898 128.045  0.00  0.00    +0.000 C 
ATOM     52  C   UNL     1      -4.110   5.881 127.343  0.00  0.00    +0.000 C 
ATOM     53  C   UNL     1      -2.291   6.185 128.992  0.00  0.00    +0.000 C 
ENDBRANCH  28  50
ENDBRANCH   9  28
TORSDOF 14
ENDMDL
MODEL 7
REMARK VINA RESULT:     -10.3      3.720      7.923
REMARK  Name = Telaprevir
REMARK  18 active torsions:
REMARK  status: ('A' for Active; 'I' for Inactive)
REMARK    1  A    between atoms: C_8  and  C_37
REMARK    2  A    between atoms: C_11  and  C_13
REMARK    3  A    between atoms: C_13  and  N_14
REMARK    4  A    between atoms: C_13  and  C_33
REMARK    5  A    between atoms: C_15  and  C_17
REMARK    6  A    between atoms: C_17  and  N_18
REMARK    7  A    between atoms: C_17  and  C_27
REMARK    8  A    between atoms: C_19  and  C_21
REMARK    9  A    between atoms: C_33  and  C_34
REMARK   10  A    between atoms: C_33  and  C_35
REMARK   11  A    between atoms: C_33  and  C_36
REMARK   12  A    between atoms: N_39  and  C_40
REMARK   13  A    between atoms: C_40  and  C_41
REMARK   14  A    between atoms: C_40  and  C_44
REMARK   15  A    between atoms: C_41  and  C_42
REMARK   16  A    between atoms: C_42  and  C_43
REMARK   17  A    between atoms: C_44  and  C_46
REMARK   18  A    between atoms: N_48  and  C_49
REMARK                            x       y       z     vdW  Elec       q    Type
REMARK                         _______ _______ _______ _____ _____    ______ ____
ROOT
ATOM      1  C   UNL     1      -7.432   6.018 131.065  0.00  0.00    +0.000 C 
ATOM      2  C   UNL     1      -7.290   5.948 132.571  0.00  0.00    +0.000 C 
ATOM      3  C   UNL     1      -8.706   5.989 133.133  0.00  0.00    +0.000 C 
ATOM      4  C   UNL     1      -9.498   5.132 132.196  0.00  0.00    +0.000 C 
ATOM      5  C   UNL     1      -8.855   5.487 130.850  0.00  0.00    +0.000 C 
ATOM      6  C   UNL     1      -8.587   4.211 130.149  0.00  0.00    +0.000 C 
ATOM      7  N   UNL     1      -7.242   3.808 130.477  0.00  0.00    +0.000 N 
ATOM      8  C   UNL     1      -6.451   5.026 130.411  0.00  0.00    +0.000 C 
ATOM      9  C   UNL     1      -6.717   2.543 130.637  0.00  0.00    +0.000 C 
ATOM     10  O   UNL     1      -5.505   2.465 130.866  0.00  0.00    +0.000 OA
ENDROOT
BRANCH   6  11
ATOM     11  C   UNL     1      -8.575   4.428 128.636  0.00  0.00    +0.000 C 
ATOM     12  O   UNL     1      -9.091   5.471 128.225  0.00  0.00    +0.000 OA
ATOM     13  N   UNL     1      -7.895   3.426 127.870  0.00  0.00    +0.000 N 
ATOM     14  H   UNL     1      -8.025   2.598 128.430  0.00  0.00    +0.000 HD
BRANCH  13  15
ATOM     15  C   UNL     1      -6.617   3.264 126.291  0.00  0.00    +0.000 C 
BRANCH  15  16
ATOM     16  C   UNL     1      -4.919   3.612 126.104  0.00  0.00    +0.000 C 
ATOM     17  O   UNL     1      -4.279   3.959 125.085  0.00  0.00    +0.000 OA
BRANCH  16  18
ATOM     18  C   UNL     1      -3.992   3.779 127.257  0.00  0.00    +0.000 C 
ATOM     19  O   UNL     1      -3.537   2.948 128.012  0.00  0.00    +0.000 OA
ATOM     20  N   UNL     1      -3.804   5.113 127.399  0.00  0.00    +0.000 N 
ATOM     21  H   UNL     1      -4.456   5.717 126.887  0.00  0.00    +0.000 HD
BRANCH  20  22
ATOM     22  C   UNL     1      -2.917   5.510 128.376  0.00  0.00    +0.000 C 
ATOM     23  C   UNL     1      -2.229   6.859 128.195  0.00  0.00    +0.000 C 
ATOM     24  C   UNL     1      -3.322   6.674 129.199  0.00  0.00    +0.000 C 
ENDBRANCH  20  22
ENDBRANCH  16  18
ENDBRANCH  15  16
BRANCH  15  25
ATOM     25  C   UNL     1      -7.264   2.004 124.854  0.00  0.00    +0.000 C 
BRANCH  25  26
ATOM     26  C   UNL     1      -9.172   1.722 124.771  0.00  0.00    +0.000 C 
ATOM     27  C   UNL     1      -9.657   0.640 125.594  0.00  0.00    +0.000 C 
ENDBRANCH  25  26
ENDBRANCH  15  25
ENDBRANCH  13  15
ENDBRANCH   6  11
BRANCH   9  28
ATOM     28  C   UNL     1      -7.621   1.208 130.601  0.00  0.00    +0.000 C 
BRANCH  28  29
ATOM     29  N   UNL     1      -6.770   0.049 130.309  0.00  0.00    +0.000 N 
ATOM     30  C   UNL     1      -6.719  -0.330 129.045  0.00  0.00    +0.000 C 
ATOM     31  O   UNL     1      -7.559   0.117 128.290  0.00  0.00    +0.000 OA
ATOM     32  H   UNL     1      -6.746  -0.768 130.930  0.00  0.00    +0.000 HD
BRANCH  30  33
ATOM     33  C   UNL     1      -5.865  -1.405 128.551  0.00  0.00    +0.000 C 
BRANCH  33  34
ATOM     34  C   UNL     1      -6.590  -1.713 127.215  0.00  0.00    +0.000 C 
ATOM     35  C   UNL     1      -5.563  -1.230 125.635  0.00  0.00    +0.000 C 
ATOM     36  C   UNL     1      -6.420  -1.481 124.001  0.00  0.00    +0.000 C 
ATOM     37  C   UNL     1      -8.031  -2.632 123.739  0.00  0.00    +0.000 C 
ATOM     38  C   UNL     1      -9.278  -2.953 125.220  0.00  0.00    +0.000 C 
ATOM     39  C   UNL     1      -8.286  -3.046 126.838  0.00  0.00    +0.000 C 
ENDBRANCH  33  34
BRANCH  33  40
ATOM     40  N   UNL     1      -5.870  -2.418 129.604  0.00  0.00    +0.000 N 
ATOM     41  C   UNL     1      -4.729  -2.394 130.389  0.00  0.00    +0.000 C 
ATOM     42  O   UNL     1      -3.820  -1.577 130.260  0.00  0.00    +0.000 OA
ATOM     43  H   UNL     1      -6.495  -3.222 129.640  0.00  0.00    +0.000 HD
BRANCH  41  44
ATOM     44  C   UNL     1      -4.643  -3.335 131.479  0.00  0.00    +0.000 A 
ATOM     45  N   UNL     1      -3.409  -3.722 131.870  0.00  0.00    +0.000 NA
ATOM     46  C   UNL     1      -3.426  -4.518 132.953  0.00  0.00    +0.000 A 
ATOM     47  C   UNL     1      -4.606  -4.940 133.557  0.00  0.00    +0.000 A 
ATOM     48  N   UNL     1      -5.836  -4.569 133.127  0.00  0.00    +0.000 NA
ATOM     49  C   UNL     1      -5.831  -3.732 132.073  0.00  0.00    +0.000 A 
ENDBRANCH  41  44
ENDBRANCH  33  40
ENDBRANCH  30  33
ENDBRANCH  28  29
BRANCH  28  50
ATOM     50  C   UNL     1      -8.324   0.887 131.939  0.00  0.00    +0.000 C 
ATOM     51  C   UNL     1      -9.802   1.307 131.825  0.00  0.00    +0.000 C 
ATOM     52  C   UNL     1      -8.197  -0.600 132.282  0.00  0.00    +0.000 C 
ATOM     53  C   UNL     1      -7.678   1.673 133.109  0.00  0.00    +0.000 C 
ENDBRANCH  28  50
ENDBRANCH   9  28
TORSDOF 14
ENDMDL
MODEL 8
REMARK VINA RESULT:     -10.2      2.585      6.308
REMARK  Name = Telaprevir
REMARK  18 active torsions:
REMARK  status: ('A' for Active; 'I' for Inactive)
REMARK    1  A    between atoms: C_8  and  C_37
REMARK    2  A    between atoms: C_11  and  C_13
REMARK    3  A    between atoms: C_13  and  N_14
REMARK    4  A    between atoms: C_13  and  C_33
REMARK    5  A    between atoms: C_15  and  C_17
REMARK    6  A    between atoms: C_17  and  N_18
REMARK    7  A    between atoms: C_17  and  C_27
REMARK    8  A    between atoms: C_19  and  C_21
REMARK    9  A    between atoms: C_33  and  C_34
REMARK   10  A    between atoms: C_33  and  C_35
REMARK   11  A    between atoms: C_33  and  C_36
REMARK   12  A    between atoms: N_39  and  C_40
REMARK   13  A    between atoms: C_40  and  C_41
REMARK   14  A    between atoms: C_40  and  C_44
REMARK   15  A    between atoms: C_41  and  C_42
REMARK   16  A    between atoms: C_42  and  C_43
REMARK   17  A    between atoms: C_44  and  C_46
REMARK   18  A    between atoms: N_48  and  C_49
REMARK                            x       y       z     vdW  Elec       q    Type
REMARK                         _______ _______ _______ _____ _____    ______ ____
ROOT
ATOM      1  C   UNL     1      -7.975  -2.023 126.467  0.00  0.00    +0.000 C 
ATOM      2  C   UNL     1      -8.980  -2.707 127.369  0.00  0.00    +0.000 C 
ATOM      3  C   UNL     1      -8.189  -3.708 128.203  0.00  0.00    +0.000 C 
ATOM      4  C   UNL     1      -6.922  -2.984 128.541  0.00  0.00    +0.000 C 
ATOM      5  C   UNL     1      -6.665  -2.212 127.241  0.00  0.00    +0.000 C 
ATOM      6  C   UNL     1      -6.348  -0.817 127.623  0.00  0.00    +0.000 C 
ATOM      7  N   UNL     1      -7.582  -0.070 127.607  0.00  0.00    +0.000 N 
ATOM      8  C   UNL     1      -8.281  -0.515 126.411  0.00  0.00    +0.000 C 
ATOM      9  C   UNL     1      -7.984   0.981 128.403  0.00  0.00    +0.000 C 
ATOM     10  O   UNL     1      -9.081   1.489 128.145  0.00  0.00    +0.000 OA
ENDROOT
BRANCH   6  11
ATOM     11  C   UNL     1      -5.475  -0.159 126.555  0.00  0.00    +0.000 C 
ATOM     12  O   UNL     1      -5.070  -0.890 125.647  0.00  0.00    +0.000 OA
ATOM     13  N   UNL     1      -5.289   1.255 126.691  0.00  0.00    +0.000 N 
ATOM     14  H   UNL     1      -5.347   1.389 127.688  0.00  0.00    +0.000 HD
BRANCH  13  15
ATOM     15  C   UNL     1      -5.243   2.943 125.550  0.00  0.00    +0.000 C 
BRANCH  15  16
ATOM     16  C   UNL     1      -6.374   3.634 124.415  0.00  0.00    +0.000 C 
ATOM     17  O   UNL     1      -6.163   4.211 123.325  0.00  0.00    +0.000 OA
BRANCH  16  18
ATOM     18  C   UNL     1      -7.843   3.406 124.492  0.00  0.00    +0.000 C 
ATOM     19  O   UNL     1      -8.670   3.917 125.215  0.00  0.00    +0.000 OA
ATOM     20  N   UNL     1      -8.112   2.394 123.632  0.00  0.00    +0.000 N 
ATOM     21  H   UNL     1      -7.302   1.862 123.295  0.00  0.00    +0.000 HD
BRANCH  20  22
ATOM     22  C   UNL     1      -9.437   2.048 123.483  0.00  0.00    +0.000 C 
ATOM     23  C   UNL     1      -9.842   1.362 122.182  0.00  0.00    +0.000 C 
ATOM     24  C   UNL     1      -9.740   0.598 123.463  0.00  0.00    +0.000 C 
ENDBRANCH  20  22
ENDBRANCH  16  18
ENDBRANCH  15  16
BRANCH  15  25
ATOM     25  C   UNL     1      -3.934   4.330 126.210  0.00  0.00    +0.000 C 
BRANCH  25  26
ATOM     26  C   UNL     1      -2.520   3.683 127.352  0.00  0.00    +0.000 C 
ATOM     27  C   UNL     1      -1.496   2.927 126.673  0.00  0.00    +0.000 C 
ENDBRANCH  25  26
ENDBRANCH  15  25
ENDBRANCH  13  15
ENDBRANCH   6  11
BRANCH   9  28
ATOM     28  C   UNL     1      -7.124   1.507 129.660  0.00  0.00    +0.000 C 
BRANCH  28  29
ATOM     29  N   UNL     1      -7.680   2.779 130.135  0.00  0.00    +0.000 N 
ATOM     30  C   UNL     1      -7.074   3.872 129.709  0.00  0.00    +0.000 C 
ATOM     31  O   UNL     1      -5.980   3.746 129.199  0.00  0.00    +0.000 OA
ATOM     32  H   UNL     1      -7.994   2.897 131.106  0.00  0.00    +0.000 HD
BRANCH  30  33
ATOM     33  C   UNL     1      -7.533   5.226 130.006  0.00  0.00    +0.000 C 
BRANCH  33  34
ATOM     34  C   UNL     1      -7.313   5.237 131.541  0.00  0.00    +0.000 C 
ATOM     35  C   UNL     1      -5.660   6.104 132.090  0.00  0.00    +0.000 C 
ATOM     36  C   UNL     1      -5.286   6.063 133.914  0.00  0.00    +0.000 C 
ATOM     37  C   UNL     1      -6.638   5.669 135.332  0.00  0.00    +0.000 C 
ATOM     38  C   UNL     1      -8.209   4.565 134.930  0.00  0.00    +0.000 C 
ATOM     39  C   UNL     1      -8.765   4.926 133.150  0.00  0.00    +0.000 C 
ENDBRANCH  33  34
BRANCH  33  40
ATOM     40  N   UNL     1      -8.898   5.293 129.492  0.00  0.00    +0.000 N 
ATOM     41  C   UNL     1      -9.449   6.562 129.571  0.00  0.00    +0.000 C 
ATOM     42  O   UNL     1      -8.846   7.551 129.981  0.00  0.00    +0.000 OA
ATOM     43  H   UNL     1      -9.499   4.489 129.318  0.00  0.00    +0.000 HD
BRANCH  41  44
ATOM     44  C   UNL     1     -10.786   6.747 129.063  0.00  0.00    +0.000 A 
ATOM     45  N   UNL     1     -11.811   6.523 129.915  0.00  0.00    +0.000 NA
ATOM     46  C   UNL     1     -13.010   6.818 129.384  0.00  0.00    +0.000 A 
ATOM     47  C   UNL     1     -13.165   7.251 128.071  0.00  0.00    +0.000 A 
ATOM     48  N   UNL     1     -12.126   7.436 127.222  0.00  0.00    +0.000 NA
ATOM     49  C   UNL     1     -10.916   7.190 127.756  0.00  0.00    +0.000 A 
ENDBRANCH  41  44
ENDBRANCH  33  40
ENDBRANCH  30  33
ENDBRANCH  28  29
BRANCH  28  50
ATOM     50  C   UNL     1      -7.146   0.558 130.880  0.00  0.00    +0.000 C 
ATOM     51  C   UNL     1      -8.372  -0.368 130.755  0.00  0.00    +0.000 C 
ATOM     52  C   UNL     1      -5.850  -0.252 130.968  0.00  0.00    +0.000 C 
ATOM     53  C   UNL     1      -7.266   1.357 132.204  0.00  0.00    +0.000 C 
ENDBRANCH  28  50
ENDBRANCH   9  28
TORSDOF 14
ENDMDL
MODEL 9
REMARK VINA RESULT:     -10.2      3.445      7.515
REMARK  Name = Telaprevir
REMARK  18 active torsions:
REMARK  status: ('A' for Active; 'I' for Inactive)
REMARK    1  A    between atoms: C_8  and  C_37
REMARK    2  A    between atoms: C_11  and  C_13
REMARK    3  A    between atoms: C_13  and  N_14
REMARK    4  A    between atoms: C_13  and  C_33
REMARK    5  A    between atoms: C_15  and  C_17
REMARK    6  A    between atoms: C_17  and  N_18
REMARK    7  A    between atoms: C_17  and  C_27
REMARK    8  A    between atoms: C_19  and  C_21
REMARK    9  A    between atoms: C_33  and  C_34
REMARK   10  A    between atoms: C_33  and  C_35
REMARK   11  A    between atoms: C_33  and  C_36
REMARK   12  A    between atoms: N_39  and  C_40
REMARK   13  A    between atoms: C_40  and  C_41
REMARK   14  A    between atoms: C_40  and  C_44
REMARK   15  A    between atoms: C_41  and  C_42
REMARK   16  A    between atoms: C_42  and  C_43
REMARK   17  A    between atoms: C_44  and  C_46
REMARK   18  A    between atoms: N_48  and  C_49
REMARK                            x       y       z     vdW  Elec       q    Type
REMARK                         _______ _______ _______ _____ _____    ______ ____
ROOT
ATOM      1  C   UNL     1      -7.996  -2.241 124.813  0.00  0.00    +0.000 C 
ATOM      2  C   UNL     1      -7.497  -3.670 124.767  0.00  0.00    +0.000 C 
ATOM      3  C   UNL     1      -6.157  -3.627 124.043  0.00  0.00    +0.000 C 
ATOM      4  C   UNL     1      -5.495  -2.390 124.566  0.00  0.00    +0.000 C 
ATOM      5  C   UNL     1      -6.694  -1.440 124.686  0.00  0.00    +0.000 C 
ATOM      6  C   UNL     1      -6.610  -0.805 126.020  0.00  0.00    +0.000 C 
ATOM      7  N   UNL     1      -7.387  -1.606 126.933  0.00  0.00    +0.000 N 
ATOM      8  C   UNL     1      -8.595  -1.954 126.203  0.00  0.00    +0.000 C 
ATOM      9  C   UNL     1      -7.183  -1.862 128.273  0.00  0.00    +0.000 C 
ATOM     10  O   UNL     1      -8.037  -2.545 128.848  0.00  0.00    +0.000 OA
ENDROOT
BRANCH   6  11
ATOM     11  C   UNL     1      -7.301   0.557 126.005  0.00  0.00    +0.000 C 
ATOM     12  O   UNL     1      -7.872   0.896 127.046  0.00  0.00    +0.000 OA
ATOM     13  N   UNL     1      -7.142   1.321 124.804  0.00  0.00    +0.000 N 
ATOM     14  H   UNL     1      -7.051   0.606 124.100  0.00  0.00    +0.000 HD
BRANCH  13  15
ATOM     15  C   UNL     1      -6.782   3.235 124.204  0.00  0.00    +0.000 C 
BRANCH  15  16
ATOM     16  C   UNL     1      -6.036   4.601 124.992  0.00  0.00    +0.000 C 
ATOM     17  O   UNL     1      -6.082   5.818 124.701  0.00  0.00    +0.000 OA
BRANCH  16  18
ATOM     18  C   UNL     1      -5.398   4.516 126.335  0.00  0.00    +0.000 C 
ATOM     19  O   UNL     1      -5.756   4.981 127.394  0.00  0.00    +0.000 OA
ATOM     20  N   UNL     1      -4.219   3.874 126.150  0.00  0.00    +0.000 N 
ATOM     21  H   UNL     1      -3.903   3.783 125.179  0.00  0.00    +0.000 HD
BRANCH  20  22
ATOM     22  C   UNL     1      -3.473   3.617 127.280  0.00  0.00    +0.000 C 
ATOM     23  C   UNL     1      -2.015   3.216 127.084  0.00  0.00    +0.000 C 
ATOM     24  C   UNL     1      -2.385   4.576 127.582  0.00  0.00    +0.000 C 
ENDBRANCH  20  22
ENDBRANCH  16  18
ENDBRANCH  15  16
BRANCH  15  25
ATOM     25  C   UNL     1      -6.797   3.471 122.200  0.00  0.00    +0.000 C 
BRANCH  25  26
ATOM     26  C   UNL     1      -5.150   4.093 121.408  0.00  0.00    +0.000 C 
ATOM     27  C   UNL     1      -5.321   4.945 120.256  0.00  0.00    +0.000 C 
ENDBRANCH  25  26
ENDBRANCH  15  25
ENDBRANCH  13  15
ENDBRANCH   6  11
BRANCH   9  28
ATOM     28  C   UNL     1      -5.871  -1.368 129.069  0.00  0.00    +0.000 C 
BRANCH  28  29
ATOM     29  N   UNL     1      -6.267  -0.812 130.367  0.00  0.00    +0.000 N 
ATOM     30  C   UNL     1      -6.274   0.506 130.457  0.00  0.00    +0.000 C 
ATOM     31  O   UNL     1      -5.710   1.131 129.582  0.00  0.00    +0.000 OA
ATOM     32  H   UNL     1      -5.948  -1.230 131.249  0.00  0.00    +0.000 HD
BRANCH  30  33
ATOM     33  C   UNL     1      -6.719   1.239 131.638  0.00  0.00    +0.000 C 
BRANCH  33  34
ATOM     34  C   UNL     1      -6.768   0.072 132.658  0.00  0.00    +0.000 C 
ATOM     35  C   UNL     1      -5.766   0.413 134.290  0.00  0.00    +0.000 C 
ATOM     36  C   UNL     1      -5.701  -0.989 135.513  0.00  0.00    +0.000 C 
ATOM     37  C   UNL     1      -6.950  -2.549 135.506  0.00  0.00    +0.000 C 
ATOM     38  C   UNL     1      -7.800  -3.135 133.837  0.00  0.00    +0.000 C 
ATOM     39  C   UNL     1      -8.172  -1.604 132.775  0.00  0.00    +0.000 C 
ENDBRANCH  33  34
BRANCH  33  40
ATOM     40  N   UNL     1      -7.969   1.882 131.245  0.00  0.00    +0.000 N 
ATOM     41  C   UNL     1      -7.980   3.247 131.486  0.00  0.00    +0.000 C 
ATOM     42  O   UNL     1      -7.024   3.875 131.935  0.00  0.00    +0.000 OA
ATOM     43  H   UNL     1      -8.842   1.396 131.047  0.00  0.00    +0.000 HD
BRANCH  41  44
ATOM     44  C   UNL     1      -9.159   3.987 131.109  0.00  0.00    +0.000 A 
ATOM     45  N   UNL     1      -9.114   5.333 131.231  0.00  0.00    +0.000 NA
ATOM     46  C   UNL     1     -10.218   5.940 130.762  0.00  0.00    +0.000 A 
ATOM     47  C   UNL     1     -11.308   5.236 130.263  0.00  0.00    +0.000 A 
ATOM     48  N   UNL     1     -11.348   3.884 130.181  0.00  0.00    +0.000 NA
ATOM     49  C   UNL     1     -10.230   3.266 130.603  0.00  0.00    +0.000 A 
ENDBRANCH  41  44
ENDBRANCH  33  40
ENDBRANCH  30  33
ENDBRANCH  28  29
BRANCH  28  50
ATOM     50  C   UNL     1      -4.863  -2.496 129.385  0.00  0.00    +0.000 C 
ATOM     51  C   UNL     1      -3.641  -1.875 130.089  0.00  0.00    +0.000 C 
ATOM     52  C   UNL     1      -5.508  -3.580 130.253  0.00  0.00    +0.000 C 
ATOM     53  C   UNL     1      -4.380  -3.191 128.085  0.00  0.00    +0.000 C 
ENDBRANCH  28  50
ENDBRANCH   9  28
TORSDOF 14
ENDMDL
