MODEL 1
REMARK VINA RESULT:      -9.6      0.000      0.000
REMARK  Name = Telmisartan
REMARK  11 active torsions:
REMARK  status: ('A' for Active; 'I' for Inactive)
REMARK    1  A    between atoms: C_1  and  C_2
REMARK    2  A    between atoms: C_2  and  C_3
REMARK    3  A    between atoms: C_3  and  C_4
REMARK    4  A    between atoms: C_9  and  C_13
REMARK    5  A    between atoms: C_11  and  C_12
REMARK    6  A    between atoms: N_21  and  C_22
REMARK    7  A    between atoms: N_23  and  C_24
REMARK    8  A    between atoms: C_24  and  C_25
REMARK    9  A    between atoms: C_28  and  C_31
REMARK   10  A    between atoms: C_36  and  C_37
REMARK   11  A    between atoms: C_37  and  O_38
REMARK                            x       y       z     vdW  Elec       q    Type
REMARK                         _______ _______ _______ _____ _____    ______ ____
ROOT
ATOM      1  C   UNL     1      -6.774   1.203 132.930  0.00  0.00    +0.000 A 
ATOM      2  N   UNL     1      -6.273   2.353 133.341  0.00  0.00    +0.000 NA
ATOM      3  C   UNL     1      -6.962   3.335 132.696  0.00  0.00    +0.000 A 
ATOM      4  C   UNL     1      -7.913   2.785 131.844  0.00  0.00    +0.000 A 
ATOM      5  C   UNL     1      -8.778   3.584 131.085  0.00  0.00    +0.000 A 
ATOM      6  C   UNL     1      -8.640   4.976 131.201  0.00  0.00    +0.000 A 
ATOM      7  C   UNL     1      -7.681   5.531 132.055  0.00  0.00    +0.000 A 
ATOM      8  C   UNL     1      -6.814   4.730 132.815  0.00  0.00    +0.000 A 
ATOM      9  C   UNL     1      -5.801   5.375 133.714  0.00  0.00    +0.000 C 
ATOM     10  N   UNL     1      -7.758   1.404 131.964  0.00  0.00    +0.000 N 
ENDROOT
BRANCH   6  11
ATOM     11  C   UNL     1      -9.506   5.851 130.421  0.00  0.00    +0.000 A 
ATOM     12  N   UNL     1      -9.309   6.198 129.163  0.00  0.00    +0.000 NA
ATOM     13  C   UNL     1     -10.357   7.016 128.829  0.00  0.00    +0.000 A 
ATOM     14  C   UNL     1     -10.648   7.645 127.608  0.00  0.00    +0.000 A 
ATOM     15  C   UNL     1     -11.783   8.462 127.528  0.00  0.00    +0.000 A 
ATOM     16  C   UNL     1     -12.610   8.647 128.636  0.00  0.00    +0.000 A 
ATOM     17  C   UNL     1     -12.340   8.020 129.855  0.00  0.00    +0.000 A 
ATOM     18  C   UNL     1     -11.205   7.206 129.915  0.00  0.00    +0.000 A 
ATOM     19  N   UNL     1     -10.647   6.452 130.917  0.00  0.00    +0.000 N 
ATOM     20  C   UNL     1     -11.141   6.342 132.269  0.00  0.00    +0.000 C 
ENDBRANCH   6  11
BRANCH   1  21
ATOM     21  C   UNL     1      -6.234  -0.087 133.469  0.00  0.00    +0.000 C 
BRANCH  21  23
ATOM     22  C   UNL     1      -4.580  -0.500 131.576  0.00  0.00    +0.000 C 
ATOM     23  C   UNL     1      -4.763  -0.343 133.084  0.00  0.00    +0.000 C 
ENDBRANCH  21  23
ENDBRANCH   1  21
BRANCH  10  24
ATOM     24  C   UNL     1      -8.588   0.471 131.164  0.00  0.00    +0.000 C 
BRANCH  24  25
ATOM     25  C   UNL     1      -7.888  -0.233 130.038  0.00  0.00    +0.000 A 
ATOM     26  C   UNL     1      -7.814  -1.626 129.898  0.00  0.00    +0.000 A 
ATOM     27  C   UNL     1      -7.632  -2.217 128.630  0.00  0.00    +0.000 A 
ATOM     28  C   UNL     1      -7.273  -1.431 127.538  0.00  0.00    +0.000 A 
ATOM     29  C   UNL     1      -7.179  -0.044 127.771  0.00  0.00    +0.000 A 
ATOM     30  C   UNL     1      -7.441   0.551 128.997  0.00  0.00    +0.000 A 
BRANCH  28  31
ATOM     31  C   UNL     1      -6.907  -1.969 126.202  0.00  0.00    +0.000 A 
ATOM     32  C   UNL     1      -5.569  -2.356 125.904  0.00  0.00    +0.000 A 
ATOM     33  C   UNL     1      -5.251  -3.024 124.714  0.00  0.00    +0.000 A 
ATOM     34  C   UNL     1      -6.195  -3.093 123.704  0.00  0.00    +0.000 A 
ATOM     35  C   UNL     1      -7.493  -2.634 123.936  0.00  0.00    +0.000 A 
ATOM     36  C   UNL     1      -7.903  -2.169 125.201  0.00  0.00    +0.000 A 
BRANCH  36  37
ATOM     37  C   UNL     1      -9.382  -1.883 125.452  0.00  0.00    +0.000 C 
ATOM     38  O   UNL     1      -9.919  -0.775 125.498  0.00  0.00    +0.000 OA
BRANCH  37  39
ATOM     39  O   UNL     1     -10.178  -2.937 125.688  0.00  0.00    +0.000 OA
ATOM     40  H   UNL     1     -10.234  -3.631 125.022  0.00  0.00    +0.000 HD
ENDBRANCH  37  39
ENDBRANCH  36  37
ENDBRANCH  28  31
ENDBRANCH  24  25
ENDBRANCH  10  24
TORSDOF 8
ENDMDL
MODEL 2
REMARK VINA RESULT:      -9.5      1.218      1.901
REMARK  Name = Telmisartan
REMARK  11 active torsions:
REMARK  status: ('A' for Active; 'I' for Inactive)
REMARK    1  A    between atoms: C_1  and  C_2
REMARK    2  A    between atoms: C_2  and  C_3
REMARK    3  A    between atoms: C_3  and  C_4
REMARK    4  A    between atoms: C_9  and  C_13
REMARK    5  A    between atoms: C_11  and  C_12
REMARK    6  A    between atoms: N_21  and  C_22
REMARK    7  A    between atoms: N_23  and  C_24
REMARK    8  A    between atoms: C_24  and  C_25
REMARK    9  A    between atoms: C_28  and  C_31
REMARK   10  A    between atoms: C_36  and  C_37
REMARK   11  A    between atoms: C_37  and  O_38
REMARK                            x       y       z     vdW  Elec       q    Type
REMARK                         _______ _______ _______ _____ _____    ______ ____
ROOT
ATOM      1  C   UNL     1      -6.938  -0.016 133.357  0.00  0.00    +0.000 A 
ATOM      2  N   UNL     1      -6.461   1.029 134.008  0.00  0.00    +0.000 NA
ATOM      3  C   UNL     1      -7.155   2.116 133.572  0.00  0.00    +0.000 A 
ATOM      4  C   UNL     1      -8.086   1.746 132.608  0.00  0.00    +0.000 A 
ATOM      5  C   UNL     1      -8.952   2.676 132.019  0.00  0.00    +0.000 A 
ATOM      6  C   UNL     1      -8.836   4.014 132.426  0.00  0.00    +0.000 A 
ATOM      7  C   UNL     1      -7.897   4.389 133.393  0.00  0.00    +0.000 A 
ATOM      8  C   UNL     1      -7.029   3.457 133.982  0.00  0.00    +0.000 A 
ATOM      9  C   UNL     1      -6.038   3.910 135.013  0.00  0.00    +0.000 C 
ATOM     10  N   UNL     1      -7.912   0.373 132.439  0.00  0.00    +0.000 N 
ENDROOT
BRANCH   6  11
ATOM     11  C   UNL     1      -9.705   5.024 131.833  0.00  0.00    +0.000 A 
ATOM     12  N   UNL     1     -10.790   5.522 132.394  0.00  0.00    +0.000 NA
ATOM     13  C   UNL     1     -11.289   6.436 131.503  0.00  0.00    +0.000 A 
ATOM     14  C   UNL     1     -12.417   7.267 131.607  0.00  0.00    +0.000 A 
ATOM     15  C   UNL     1     -12.734   8.107 130.533  0.00  0.00    +0.000 A 
ATOM     16  C   UNL     1     -11.947   8.122 129.381  0.00  0.00    +0.000 A 
ATOM     17  C   UNL     1     -10.816   7.310 129.265  0.00  0.00    +0.000 A 
ATOM     18  C   UNL     1     -10.514   6.480 130.349  0.00  0.00    +0.000 A 
ATOM     19  N   UNL     1      -9.507   5.576 130.582  0.00  0.00    +0.000 N 
ATOM     20  C   UNL     1      -8.451   5.228 129.662  0.00  0.00    +0.000 C 
ENDBRANCH   6  11
BRANCH   1  21
ATOM     21  C   UNL     1      -6.387  -1.383 133.622  0.00  0.00    +0.000 C 
BRANCH  21  23
ATOM     22  C   UNL     1      -8.020  -3.337 133.638  0.00  0.00    +0.000 C 
ATOM     23  C   UNL     1      -7.321  -2.266 134.472  0.00  0.00    +0.000 C 
ENDBRANCH  21  23
ENDBRANCH   1  21
BRANCH  10  24
ATOM     24  C   UNL     1      -8.717  -0.382 131.447  0.00  0.00    +0.000 C 
BRANCH  24  25
ATOM     25  C   UNL     1      -7.974  -0.895 130.249  0.00  0.00    +0.000 A 
ATOM     26  C   UNL     1      -7.850  -2.251 129.913  0.00  0.00    +0.000 A 
ATOM     27  C   UNL     1      -7.625  -2.649 128.579  0.00  0.00    +0.000 A 
ATOM     28  C   UNL     1      -7.274  -1.704 127.618  0.00  0.00    +0.000 A 
ATOM     29  C   UNL     1      -7.232  -0.362 128.048  0.00  0.00    +0.000 A 
ATOM     30  C   UNL     1      -7.536   0.043 129.340  0.00  0.00    +0.000 A 
BRANCH  28  31
ATOM     31  C   UNL     1      -6.866  -2.034 126.228  0.00  0.00    +0.000 A 
ATOM     32  C   UNL     1      -5.520  -2.381 125.916  0.00  0.00    +0.000 A 
ATOM     33  C   UNL     1      -5.166  -2.862 124.649  0.00  0.00    +0.000 A 
ATOM     34  C   UNL     1      -6.076  -2.767 123.611  0.00  0.00    +0.000 A 
ATOM     35  C   UNL     1      -7.380  -2.338 123.869  0.00  0.00    +0.000 A 
ATOM     36  C   UNL     1      -7.830  -2.069 125.177  0.00  0.00    +0.000 A 
BRANCH  36  37
ATOM     37  C   UNL     1      -9.315  -1.812 125.421  0.00  0.00    +0.000 C 
ATOM     38  O   UNL     1      -9.869  -0.714 125.494  0.00  0.00    +0.000 OA
BRANCH  37  39
ATOM     39  O   UNL     1     -10.097  -2.885 125.620  0.00  0.00    +0.000 OA
ATOM     40  H   UNL     1     -11.049  -2.755 125.693  0.00  0.00    +0.000 HD
ENDBRANCH  37  39
ENDBRANCH  36  37
ENDBRANCH  28  31
ENDBRANCH  24  25
ENDBRANCH  10  24
TORSDOF 8
ENDMDL
MODEL 3
REMARK VINA RESULT:      -9.5      3.508      6.579
REMARK  Name = Telmisartan
REMARK  11 active torsions:
REMARK  status: ('A' for Active; 'I' for Inactive)
REMARK    1  A    between atoms: C_1  and  C_2
REMARK    2  A    between atoms: C_2  and  C_3
REMARK    3  A    between atoms: C_3  and  C_4
REMARK    4  A    between atoms: C_9  and  C_13
REMARK    5  A    between atoms: C_11  and  C_12
REMARK    6  A    between atoms: N_21  and  C_22
REMARK    7  A    between atoms: N_23  and  C_24
REMARK    8  A    between atoms: C_24  and  C_25
REMARK    9  A    between atoms: C_28  and  C_31
REMARK   10  A    between atoms: C_36  and  C_37
REMARK   11  A    between atoms: C_37  and  O_38
REMARK                            x       y       z     vdW  Elec       q    Type
REMARK                         _______ _______ _______ _____ _____    ______ ____
ROOT
ATOM      1  C   UNL     1      -7.364  -0.265 123.782  0.00  0.00    +0.000 A 
ATOM      2  N   UNL     1      -6.808   0.867 123.392  0.00  0.00    +0.000 NA
ATOM      3  C   UNL     1      -6.988   1.762 124.402  0.00  0.00    +0.000 A 
ATOM      4  C   UNL     1      -7.691   1.180 125.451  0.00  0.00    +0.000 A 
ATOM      5  C   UNL     1      -7.981   1.882 126.628  0.00  0.00    +0.000 A 
ATOM      6  C   UNL     1      -7.549   3.214 126.709  0.00  0.00    +0.000 A 
ATOM      7  C   UNL     1      -6.844   3.803 125.653  0.00  0.00    +0.000 A 
ATOM      8  C   UNL     1      -6.554   3.101 124.474  0.00  0.00    +0.000 A 
ATOM      9  C   UNL     1      -5.798   3.778 123.370  0.00  0.00    +0.000 C 
ATOM     10  N   UNL     1      -7.972  -0.119 125.027  0.00  0.00    +0.000 N 
ENDROOT
BRANCH   6  11
ATOM     11  C   UNL     1      -7.838   3.992 127.907  0.00  0.00    +0.000 A 
ATOM     12  N   UNL     1      -8.777   4.914 128.011  0.00  0.00    +0.000 NA
ATOM     13  C   UNL     1      -8.706   5.381 129.297  0.00  0.00    +0.000 A 
ATOM     14  C   UNL     1      -9.488   6.353 129.943  0.00  0.00    +0.000 A 
ATOM     15  C   UNL     1      -9.195   6.675 131.274  0.00  0.00    +0.000 A 
ATOM     16  C   UNL     1      -8.150   6.044 131.948  0.00  0.00    +0.000 A 
ATOM     17  C   UNL     1      -7.369   5.068 131.325  0.00  0.00    +0.000 A 
ATOM     18  C   UNL     1      -7.678   4.758 129.997  0.00  0.00    +0.000 A 
ATOM     19  N   UNL     1      -7.142   3.874 129.094  0.00  0.00    +0.000 N 
ATOM     20  C   UNL     1      -6.014   3.003 129.328  0.00  0.00    +0.000 C 
ENDBRANCH   6  11
BRANCH   1  21
ATOM     21  C   UNL     1      -7.326  -1.467 122.888  0.00  0.00    +0.000 C 
BRANCH  21  23
ATOM     22  C   UNL     1      -5.832  -3.122 124.119  0.00  0.00    +0.000 C 
ATOM     23  C   UNL     1      -5.972  -2.202 122.908  0.00  0.00    +0.000 C 
ENDBRANCH  21  23
ENDBRANCH   1  21
BRANCH  10  24
ATOM     24  C   UNL     1      -8.755  -1.046 125.879  0.00  0.00    +0.000 C 
BRANCH  24  25
ATOM     25  C   UNL     1      -7.971  -1.839 126.883  0.00  0.00    +0.000 A 
ATOM     26  C   UNL     1      -6.685  -1.502 127.330  0.00  0.00    +0.000 A 
ATOM     27  C   UNL     1      -6.221  -1.930 128.591  0.00  0.00    +0.000 A 
ATOM     28  C   UNL     1      -6.927  -2.897 129.304  0.00  0.00    +0.000 A 
ATOM     29  C   UNL     1      -8.132  -3.344 128.723  0.00  0.00    +0.000 A 
ATOM     30  C   UNL     1      -8.635  -2.862 127.523  0.00  0.00    +0.000 A 
BRANCH  28  31
ATOM     31  C   UNL     1      -6.449  -3.529 130.560  0.00  0.00    +0.000 A 
ATOM     32  C   UNL     1      -5.803  -4.799 130.549  0.00  0.00    +0.000 A 
ATOM     33  C   UNL     1      -5.195  -5.318 131.699  0.00  0.00    +0.000 A 
ATOM     34  C   UNL     1      -5.434  -4.714 132.921  0.00  0.00    +0.000 A 
ATOM     35  C   UNL     1      -6.146  -3.514 132.974  0.00  0.00    +0.000 A 
ATOM     36  C   UNL     1      -6.571  -2.848 131.808  0.00  0.00    +0.000 A 
BRANCH  36  37
ATOM     37  C   UNL     1      -7.154  -1.441 131.917  0.00  0.00    +0.000 C 
ATOM     38  O   UNL     1      -8.346  -1.146 132.026  0.00  0.00    +0.000 OA
BRANCH  37  39
ATOM     39  O   UNL     1      -6.293  -0.415 131.847  0.00  0.00    +0.000 OA
ATOM     40  H   UNL     1      -6.073   0.059 132.657  0.00  0.00    +0.000 HD
ENDBRANCH  37  39
ENDBRANCH  36  37
ENDBRANCH  28  31
ENDBRANCH  24  25
ENDBRANCH  10  24
TORSDOF 8
ENDMDL
MODEL 4
REMARK VINA RESULT:      -9.5      3.574      8.861
REMARK  Name = Telmisartan
REMARK  11 active torsions:
REMARK  status: ('A' for Active; 'I' for Inactive)
REMARK    1  A    between atoms: C_1  and  C_2
REMARK    2  A    between atoms: C_2  and  C_3
REMARK    3  A    between atoms: C_3  and  C_4
REMARK    4  A    between atoms: C_9  and  C_13
REMARK    5  A    between atoms: C_11  and  C_12
REMARK    6  A    between atoms: N_21  and  C_22
REMARK    7  A    between atoms: N_23  and  C_24
REMARK    8  A    between atoms: C_24  and  C_25
REMARK    9  A    between atoms: C_28  and  C_31
REMARK   10  A    between atoms: C_36  and  C_37
REMARK   11  A    between atoms: C_37  and  O_38
REMARK                            x       y       z     vdW  Elec       q    Type
REMARK                         _______ _______ _______ _____ _____    ______ ____
ROOT
ATOM      1  C   UNL     1      -4.337   5.322 130.329  0.00  0.00    +0.000 A 
ATOM      2  N   UNL     1      -3.605   4.844 129.341  0.00  0.00    +0.000 NA
ATOM      3  C   UNL     1      -4.175   3.667 128.962  0.00  0.00    +0.000 A 
ATOM      4  C   UNL     1      -5.289   3.389 129.746  0.00  0.00    +0.000 A 
ATOM      5  C   UNL     1      -6.074   2.248 129.539  0.00  0.00    +0.000 A 
ATOM      6  C   UNL     1      -5.686   1.373 128.513  0.00  0.00    +0.000 A 
ATOM      7  C   UNL     1      -4.562   1.649 127.725  0.00  0.00    +0.000 A 
ATOM      8  C   UNL     1      -3.775   2.792 127.933  0.00  0.00    +0.000 A 
ATOM      9  C   UNL     1      -2.579   3.041 127.063  0.00  0.00    +0.000 C 
ATOM     10  N   UNL     1      -5.365   4.440 130.659  0.00  0.00    +0.000 N 
ENDROOT
BRANCH   6  11
ATOM     11  C   UNL     1      -6.462   0.164 128.266  0.00  0.00    +0.000 A 
ATOM     12  N   UNL     1      -6.553  -0.865 129.087  0.00  0.00    +0.000 NA
ATOM     13  C   UNL     1      -7.381  -1.767 128.470  0.00  0.00    +0.000 A 
ATOM     14  C   UNL     1      -7.829  -3.021 128.914  0.00  0.00    +0.000 A 
ATOM     15  C   UNL     1      -8.661  -3.772 128.074  0.00  0.00    +0.000 A 
ATOM     16  C   UNL     1      -9.041  -3.286 126.823  0.00  0.00    +0.000 A 
ATOM     17  C   UNL     1      -8.612  -2.035 126.371  0.00  0.00    +0.000 A 
ATOM     18  C   UNL     1      -7.784  -1.299 127.224  0.00  0.00    +0.000 A 
ATOM     19  N   UNL     1      -7.192  -0.066 127.116  0.00  0.00    +0.000 N 
ATOM     20  C   UNL     1      -7.277   0.819 125.978  0.00  0.00    +0.000 C 
ENDBRANCH   6  11
BRANCH   1  21
ATOM     21  C   UNL     1      -3.978   6.629 130.967  0.00  0.00    +0.000 C 
BRANCH  21  23
ATOM     22  C   UNL     1      -3.923   8.812 129.656  0.00  0.00    +0.000 C 
ATOM     23  C   UNL     1      -4.792   7.819 130.425  0.00  0.00    +0.000 C 
ENDBRANCH  21  23
ENDBRANCH   1  21
BRANCH  10  24
ATOM     24  C   UNL     1      -6.422   4.472 131.700  0.00  0.00    +0.000 C 
BRANCH  24  25
ATOM     25  C   UNL     1      -7.717   5.117 131.303  0.00  0.00    +0.000 A 
ATOM     26  C   UNL     1      -7.982   6.491 131.401  0.00  0.00    +0.000 A 
ATOM     27  C   UNL     1      -8.943   7.104 130.571  0.00  0.00    +0.000 A 
ATOM     28  C   UNL     1      -9.819   6.323 129.821  0.00  0.00    +0.000 A 
ATOM     29  C   UNL     1      -9.631   4.928 129.897  0.00  0.00    +0.000 A 
ATOM     30  C   UNL     1      -8.632   4.324 130.646  0.00  0.00    +0.000 A 
BRANCH  28  31
ATOM     31  C   UNL     1     -10.962   6.861 129.039  0.00  0.00    +0.000 A 
ATOM     32  C   UNL     1     -10.879   7.021 127.626  0.00  0.00    +0.000 A 
ATOM     33  C   UNL     1     -12.004   7.359 126.863  0.00  0.00    +0.000 A 
ATOM     34  C   UNL     1     -13.154   7.785 127.506  0.00  0.00    +0.000 A 
ATOM     35  C   UNL     1     -13.231   7.729 128.899  0.00  0.00    +0.000 A 
ATOM     36  C   UNL     1     -12.196   7.175 129.680  0.00  0.00    +0.000 A 
BRANCH  36  37
ATOM     37  C   UNL     1     -12.424   6.945 131.173  0.00  0.00    +0.000 C 
ATOM     38  O   UNL     1     -12.912   7.744 131.973  0.00  0.00    +0.000 OA
BRANCH  37  39
ATOM     39  O   UNL     1     -12.016   5.772 131.679  0.00  0.00    +0.000 OA
ATOM     40  H   UNL     1     -11.112   5.698 132.004  0.00  0.00    +0.000 HD
ENDBRANCH  37  39
ENDBRANCH  36  37
ENDBRANCH  28  31
ENDBRANCH  24  25
ENDBRANCH  10  24
TORSDOF 8
ENDMDL
MODEL 5
REMARK VINA RESULT:      -9.5      3.764      9.012
REMARK  Name = Telmisartan
REMARK  11 active torsions:
REMARK  status: ('A' for Active; 'I' for Inactive)
REMARK    1  A    between atoms: C_1  and  C_2
REMARK    2  A    between atoms: C_2  and  C_3
REMARK    3  A    between atoms: C_3  and  C_4
REMARK    4  A    between atoms: C_9  and  C_13
REMARK    5  A    between atoms: C_11  and  C_12
REMARK    6  A    between atoms: N_21  and  C_22
REMARK    7  A    between atoms: N_23  and  C_24
REMARK    8  A    between atoms: C_24  and  C_25
REMARK    9  A    between atoms: C_28  and  C_31
REMARK   10  A    between atoms: C_36  and  C_37
REMARK   11  A    between atoms: C_37  and  O_38
REMARK                            x       y       z     vdW  Elec       q    Type
REMARK                         _______ _______ _______ _____ _____    ______ ____
ROOT
ATOM      1  C   UNL     1      -3.912   4.504 130.099  0.00  0.00    +0.000 A 
ATOM      2  N   UNL     1      -3.056   4.303 129.115  0.00  0.00    +0.000 NA
ATOM      3  C   UNL     1      -3.633   3.406 128.268  0.00  0.00    +0.000 A 
ATOM      4  C   UNL     1      -4.882   3.022 128.742  0.00  0.00    +0.000 A 
ATOM      5  C   UNL     1      -5.699   2.127 128.038  0.00  0.00    +0.000 A 
ATOM      6  C   UNL     1      -5.202   1.612 126.831  0.00  0.00    +0.000 A 
ATOM      7  C   UNL     1      -3.943   1.996 126.354  0.00  0.00    +0.000 A 
ATOM      8  C   UNL     1      -3.125   2.890 127.060  0.00  0.00    +0.000 A 
ATOM      9  C   UNL     1      -1.783   3.268 126.507  0.00  0.00    +0.000 C 
ATOM     10  N   UNL     1      -5.040   3.700 129.951  0.00  0.00    +0.000 N 
ENDROOT
BRANCH   6  11
ATOM     11  C   UNL     1      -6.007   0.667 126.067  0.00  0.00    +0.000 A 
ATOM     12  N   UNL     1      -5.964  -0.646 126.189  0.00  0.00    +0.000 NA
ATOM     13  C   UNL     1      -6.880  -1.138 125.296  0.00  0.00    +0.000 A 
ATOM     14  C   UNL     1      -7.250  -2.466 125.032  0.00  0.00    +0.000 A 
ATOM     15  C   UNL     1      -8.207  -2.712 124.039  0.00  0.00    +0.000 A 
ATOM     16  C   UNL     1      -8.784  -1.661 123.328  0.00  0.00    +0.000 A 
ATOM     17  C   UNL     1      -8.435  -0.332 123.586  0.00  0.00    +0.000 A 
ATOM     18  C   UNL     1      -7.480  -0.107 124.582  0.00  0.00    +0.000 A 
ATOM     19  N   UNL     1      -6.913   1.034 125.092  0.00  0.00    +0.000 N 
ATOM     20  C   UNL     1      -7.182   2.383 124.653  0.00  0.00    +0.000 C 
ENDBRANCH   6  11
BRANCH   1  21
ATOM     21  C   UNL     1      -3.576   5.460 131.203  0.00  0.00    +0.000 C 
BRANCH  21  23
ATOM     22  C   UNL     1      -4.395   7.706 130.324  0.00  0.00    +0.000 C 
ATOM     23  C   UNL     1      -3.179   6.861 130.700  0.00  0.00    +0.000 C 
ENDBRANCH  21  23
ENDBRANCH   1  21
BRANCH  10  24
ATOM     24  C   UNL     1      -6.255   3.508 130.780  0.00  0.00    +0.000 C 
BRANCH  24  25
ATOM     25  C   UNL     1      -7.446   4.341 130.405  0.00  0.00    +0.000 A 
ATOM     26  C   UNL     1      -8.647   3.823 129.900  0.00  0.00    +0.000 A 
ATOM     27  C   UNL     1      -9.861   4.525 130.057  0.00  0.00    +0.000 A 
ATOM     28  C   UNL     1      -9.851   5.849 130.490  0.00  0.00    +0.000 A 
ATOM     29  C   UNL     1      -8.590   6.390 130.815  0.00  0.00    +0.000 A 
ATOM     30  C   UNL     1      -7.403   5.675 130.743  0.00  0.00    +0.000 A 
BRANCH  28  31
ATOM     31  C   UNL     1     -11.052   6.723 130.541  0.00  0.00    +0.000 A 
ATOM     32  C   UNL     1     -11.881   6.770 131.699  0.00  0.00    +0.000 A 
ATOM     33  C   UNL     1     -12.908   7.715 131.822  0.00  0.00    +0.000 A 
ATOM     34  C   UNL     1     -13.286   8.451 130.712  0.00  0.00    +0.000 A 
ATOM     35  C   UNL     1     -12.547   8.355 129.532  0.00  0.00    +0.000 A 
ATOM     36  C   UNL     1     -11.370   7.585 129.451  0.00  0.00    +0.000 A 
BRANCH  36  37
ATOM     37  C   UNL     1     -10.490   7.686 128.206  0.00  0.00    +0.000 C 
ATOM     38  O   UNL     1     -10.042   6.749 127.545  0.00  0.00    +0.000 OA
BRANCH  37  39
ATOM     39  O   UNL     1     -10.131   8.917 127.810  0.00  0.00    +0.000 OA
ATOM     40  H   UNL     1     -10.764   9.443 127.309  0.00  0.00    +0.000 HD
ENDBRANCH  37  39
ENDBRANCH  36  37
ENDBRANCH  28  31
ENDBRANCH  24  25
ENDBRANCH  10  24
TORSDOF 8
ENDMDL
MODEL 6
REMARK VINA RESULT:      -9.5      4.544      8.716
REMARK  Name = Telmisartan
REMARK  11 active torsions:
REMARK  status: ('A' for Active; 'I' for Inactive)
REMARK    1  A    between atoms: C_1  and  C_2
REMARK    2  A    between atoms: C_2  and  C_3
REMARK    3  A    between atoms: C_3  and  C_4
REMARK    4  A    between atoms: C_9  and  C_13
REMARK    5  A    between atoms: C_11  and  C_12
REMARK    6  A    between atoms: N_21  and  C_22
REMARK    7  A    between atoms: N_23  and  C_24
REMARK    8  A    between atoms: C_24  and  C_25
REMARK    9  A    between atoms: C_28  and  C_31
REMARK   10  A    between atoms: C_36  and  C_37
REMARK   11  A    between atoms: C_37  and  O_38
REMARK                            x       y       z     vdW  Elec       q    Type
REMARK                         _______ _______ _______ _____ _____    ______ ____
ROOT
ATOM      1  C   UNL     1      -8.560   1.367 130.626  0.00  0.00    +0.000 A 
ATOM      2  N   UNL     1      -8.222   0.248 130.012  0.00  0.00    +0.000 NA
ATOM      3  C   UNL     1      -8.019   0.563 128.703  0.00  0.00    +0.000 A 
ATOM      4  C   UNL     1      -8.250   1.917 128.486  0.00  0.00    +0.000 A 
ATOM      5  C   UNL     1      -8.080   2.505 127.226  0.00  0.00    +0.000 A 
ATOM      6  C   UNL     1      -7.680   1.669 126.172  0.00  0.00    +0.000 A 
ATOM      7  C   UNL     1      -7.451   0.305 126.388  0.00  0.00    +0.000 A 
ATOM      8  C   UNL     1      -7.623  -0.283 127.650  0.00  0.00    +0.000 A 
ATOM      9  C   UNL     1      -7.366  -1.750 127.829  0.00  0.00    +0.000 C 
ATOM     10  N   UNL     1      -8.643   2.425 129.724  0.00  0.00    +0.000 N 
ENDROOT
BRANCH   6  11
ATOM     11  C   UNL     1      -7.503   2.228 124.838  0.00  0.00    +0.000 A 
ATOM     12  N   UNL     1      -6.385   2.754 124.372  0.00  0.00    +0.000 NA
ATOM     13  C   UNL     1      -6.659   3.145 123.088  0.00  0.00    +0.000 A 
ATOM     14  C   UNL     1      -5.819   3.742 122.134  0.00  0.00    +0.000 A 
ATOM     15  C   UNL     1      -6.353   4.074 120.882  0.00  0.00    +0.000 A 
ATOM     16  C   UNL     1      -7.691   3.816 120.585  0.00  0.00    +0.000 A 
ATOM     17  C   UNL     1      -8.538   3.213 121.519  0.00  0.00    +0.000 A 
ATOM     18  C   UNL     1      -7.987   2.887 122.762  0.00  0.00    +0.000 A 
ATOM     19  N   UNL     1      -8.504   2.299 123.888  0.00  0.00    +0.000 N 
ATOM     20  C   UNL     1      -9.871   1.870 124.069  0.00  0.00    +0.000 C 
ENDBRANCH   6  11
BRANCH   1  21
ATOM     21  C   UNL     1      -8.841   1.360 132.098  0.00  0.00    +0.000 C 
BRANCH  21  23
ATOM     22  C   UNL     1      -8.587   3.395 133.608  0.00  0.00    +0.000 C 
ATOM     23  C   UNL     1      -7.872   2.239 132.911  0.00  0.00    +0.000 C 
ENDBRANCH  21  23
ENDBRANCH   1  21
BRANCH  10  24
ATOM     24  C   UNL     1      -9.016   3.852 129.879  0.00  0.00    +0.000 C 
BRANCH  24  25
ATOM     25  C   UNL     1      -7.889   4.799 130.170  0.00  0.00    +0.000 A 
ATOM     26  C   UNL     1      -8.054   6.090 130.692  0.00  0.00    +0.000 A 
ATOM     27  C   UNL     1      -7.018   6.716 131.418  0.00  0.00    +0.000 A 
ATOM     28  C   UNL     1      -5.736   6.171 131.415  0.00  0.00    +0.000 A 
ATOM     29  C   UNL     1      -5.576   4.956 130.717  0.00  0.00    +0.000 A 
ATOM     30  C   UNL     1      -6.612   4.294 130.073  0.00  0.00    +0.000 A 
BRANCH  28  31
ATOM     31  C   UNL     1      -4.545   6.828 132.013  0.00  0.00    +0.000 A 
ATOM     32  C   UNL     1      -4.103   6.498 133.327  0.00  0.00    +0.000 A 
ATOM     33  C   UNL     1      -2.887   6.980 133.829  0.00  0.00    +0.000 A 
ATOM     34  C   UNL     1      -2.222   7.982 133.145  0.00  0.00    +0.000 A 
ATOM     35  C   UNL     1      -2.686   8.393 131.894  0.00  0.00    +0.000 A 
ATOM     36  C   UNL     1      -3.776   7.764 131.260  0.00  0.00    +0.000 A 
BRANCH  36  37
ATOM     37  C   UNL     1      -4.104   8.110 129.809  0.00  0.00    +0.000 C 
ATOM     38  O   UNL     1      -4.052   7.349 128.842  0.00  0.00    +0.000 OA
BRANCH  37  39
ATOM     39  O   UNL     1      -4.444   9.381 129.546  0.00  0.00    +0.000 OA
ATOM     40  H   UNL     1      -4.716   9.610 128.650  0.00  0.00    +0.000 HD
ENDBRANCH  37  39
ENDBRANCH  36  37
ENDBRANCH  28  31
ENDBRANCH  24  25
ENDBRANCH  10  24
TORSDOF 8
ENDMDL
MODEL 7
REMARK VINA RESULT:      -9.1      3.947      8.599
REMARK  Name = Telmisartan
REMARK  11 active torsions:
REMARK  status: ('A' for Active; 'I' for Inactive)
REMARK    1  A    between atoms: C_1  and  C_2
REMARK    2  A    between atoms: C_2  and  C_3
REMARK    3  A    between atoms: C_3  and  C_4
REMARK    4  A    between atoms: C_9  and  C_13
REMARK    5  A    between atoms: C_11  and  C_12
REMARK    6  A    between atoms: N_21  and  C_22
REMARK    7  A    between atoms: N_23  and  C_24
REMARK    8  A    between atoms: C_24  and  C_25
REMARK    9  A    between atoms: C_28  and  C_31
REMARK   10  A    between atoms: C_36  and  C_37
REMARK   11  A    between atoms: C_37  and  O_38
REMARK                            x       y       z     vdW  Elec       q    Type
REMARK                         _______ _______ _______ _____ _____    ______ ____
ROOT
ATOM      1  C   UNL     1      -6.466   2.014 128.743  0.00  0.00    +0.000 A 
ATOM      2  N   UNL     1      -5.469   2.289 127.923  0.00  0.00    +0.000 NA
ATOM      3  C   UNL     1      -4.675   3.194 128.558  0.00  0.00    +0.000 A 
ATOM      4  C   UNL     1      -5.196   3.509 129.808  0.00  0.00    +0.000 A 
ATOM      5  C   UNL     1      -4.550   4.396 130.679  0.00  0.00    +0.000 A 
ATOM      6  C   UNL     1      -3.353   4.979 130.236  0.00  0.00    +0.000 A 
ATOM      7  C   UNL     1      -2.828   4.666 128.976  0.00  0.00    +0.000 A 
ATOM      8  C   UNL     1      -3.476   3.779 128.105  0.00  0.00    +0.000 A 
ATOM      9  C   UNL     1      -2.874   3.478 126.764  0.00  0.00    +0.000 C 
ATOM     10  N   UNL     1      -6.380   2.777 129.906  0.00  0.00    +0.000 N 
ENDROOT
BRANCH   6  11
ATOM     11  C   UNL     1      -2.649   5.919 131.099  0.00  0.00    +0.000 A 
ATOM     12  N   UNL     1      -1.584   5.639 131.826  0.00  0.00    +0.000 NA
ATOM     13  C   UNL     1      -1.250   6.803 132.469  0.00  0.00    +0.000 A 
ATOM     14  C   UNL     1      -0.188   7.068 133.348  0.00  0.00    +0.000 A 
ATOM     15  C   UNL     1      -0.076   8.351 133.899  0.00  0.00    +0.000 A 
ATOM     16  C   UNL     1      -0.999   9.347 133.581  0.00  0.00    +0.000 A 
ATOM     17  C   UNL     1      -2.056   9.104 132.700  0.00  0.00    +0.000 A 
ATOM     18  C   UNL     1      -2.149   7.818 132.158  0.00  0.00    +0.000 A 
ATOM     19  N   UNL     1      -3.029   7.235 131.281  0.00  0.00    +0.000 N 
ATOM     20  C   UNL     1      -4.180   7.872 130.687  0.00  0.00    +0.000 C 
ENDBRANCH   6  11
BRANCH   1  21
ATOM     21  C   UNL     1      -7.521   1.030 128.339  0.00  0.00    +0.000 C 
BRANCH  21  23
ATOM     22  C   UNL     1      -9.007   0.928 126.273  0.00  0.00    +0.000 C 
ATOM     23  C   UNL     1      -8.693   1.670 127.570  0.00  0.00    +0.000 C 
ENDBRANCH  21  23
ENDBRANCH   1  21
BRANCH  10  24
ATOM     24  C   UNL     1      -7.247   2.885 131.104  0.00  0.00    +0.000 C 
BRANCH  24  25
ATOM     25  C   UNL     1      -8.283   3.970 131.071  0.00  0.00    +0.000 A 
ATOM     26  C   UNL     1      -8.009   5.334 131.250  0.00  0.00    +0.000 A 
ATOM     27  C   UNL     1      -8.860   6.320 130.710  0.00  0.00    +0.000 A 
ATOM     28  C   UNL     1     -10.111   5.966 130.211  0.00  0.00    +0.000 A 
ATOM     29  C   UNL     1     -10.420   4.590 130.220  0.00  0.00    +0.000 A 
ATOM     30  C   UNL     1      -9.550   3.608 130.672  0.00  0.00    +0.000 A 
BRANCH  28  31
ATOM     31  C   UNL     1     -11.142   6.939 129.765  0.00  0.00    +0.000 A 
ATOM     32  C   UNL     1     -11.946   7.645 130.706  0.00  0.00    +0.000 A 
ATOM     33  C   UNL     1     -12.793   8.687 130.305  0.00  0.00    +0.000 A 
ATOM     34  C   UNL     1     -13.043   8.873 128.956  0.00  0.00    +0.000 A 
ATOM     35  C   UNL     1     -12.338   8.127 128.010  0.00  0.00    +0.000 A 
ATOM     36  C   UNL     1     -11.312   7.234 128.380  0.00  0.00    +0.000 A 
BRANCH  36  37
ATOM     37  C   UNL     1     -10.434   6.609 127.298  0.00  0.00    +0.000 C 
ATOM     38  O   UNL     1      -9.279   6.204 127.432  0.00  0.00    +0.000 OA
BRANCH  37  39
ATOM     39  O   UNL     1     -10.952   6.526 126.063  0.00  0.00    +0.000 OA
ATOM     40  H   UNL     1     -11.705   5.943 125.917  0.00  0.00    +0.000 HD
ENDBRANCH  37  39
ENDBRANCH  36  37
ENDBRANCH  28  31
ENDBRANCH  24  25
ENDBRANCH  10  24
TORSDOF 8
ENDMDL
MODEL 8
REMARK VINA RESULT:      -9.1      3.012      7.141
REMARK  Name = Telmisartan
REMARK  11 active torsions:
REMARK  status: ('A' for Active; 'I' for Inactive)
REMARK    1  A    between atoms: C_1  and  C_2
REMARK    2  A    between atoms: C_2  and  C_3
REMARK    3  A    between atoms: C_3  and  C_4
REMARK    4  A    between atoms: C_9  and  C_13
REMARK    5  A    between atoms: C_11  and  C_12
REMARK    6  A    between atoms: N_21  and  C_22
REMARK    7  A    between atoms: N_23  and  C_24
REMARK    8  A    between atoms: C_24  and  C_25
REMARK    9  A    between atoms: C_28  and  C_31
REMARK   10  A    between atoms: C_36  and  C_37
REMARK   11  A    between atoms: C_37  and  O_38
REMARK                            x       y       z     vdW  Elec       q    Type
REMARK                         _______ _______ _______ _____ _____    ______ ____
ROOT
ATOM      1  C   UNL     1      -7.242   4.711 129.944  0.00  0.00    +0.000 A 
ATOM      2  N   UNL     1      -6.515   4.929 128.865  0.00  0.00    +0.000 NA
ATOM      3  C   UNL     1      -6.734   3.880 128.024  0.00  0.00    +0.000 A 
ATOM      4  C   UNL     1      -7.613   2.969 128.599  0.00  0.00    +0.000 A 
ATOM      5  C   UNL     1      -8.028   1.814 127.925  0.00  0.00    +0.000 A 
ATOM      6  C   UNL     1      -7.507   1.593 126.640  0.00  0.00    +0.000 A 
ATOM      7  C   UNL     1      -6.619   2.507 126.062  0.00  0.00    +0.000 A 
ATOM      8  C   UNL     1      -6.203   3.664 126.738  0.00  0.00    +0.000 A 
ATOM      9  C   UNL     1      -5.248   4.611 126.074  0.00  0.00    +0.000 C 
ATOM     10  N   UNL     1      -7.905   3.488 129.860  0.00  0.00    +0.000 N 
ENDROOT
BRANCH   6  11
ATOM     11  C   UNL     1      -7.896   0.398 125.903  0.00  0.00    +0.000 A 
ATOM     12  N   UNL     1      -7.657  -0.845 126.280  0.00  0.00    +0.000 NA
ATOM     13  C   UNL     1      -8.196  -1.644 125.306  0.00  0.00    +0.000 A 
ATOM     14  C   UNL     1      -8.241  -3.045 125.220  0.00  0.00    +0.000 A 
ATOM     15  C   UNL     1      -8.835  -3.630 124.095  0.00  0.00    +0.000 A 
ATOM     16  C   UNL     1      -9.375  -2.840 123.080  0.00  0.00    +0.000 A 
ATOM     17  C   UNL     1      -9.349  -1.445 123.155  0.00  0.00    +0.000 A 
ATOM     18  C   UNL     1      -8.753  -0.879 124.286  0.00  0.00    +0.000 A 
ATOM     19  N   UNL     1      -8.556   0.417 124.689  0.00  0.00    +0.000 N 
ATOM     20  C   UNL     1      -8.930   1.600 123.950  0.00  0.00    +0.000 C 
ENDBRANCH   6  11
BRANCH   1  21
ATOM     21  C   UNL     1      -7.232   5.700 131.069  0.00  0.00    +0.000 C 
BRANCH  21  23
ATOM     22  C   UNL     1      -9.631   6.465 131.455  0.00  0.00    +0.000 C 
ATOM     23  C   UNL     1      -8.259   6.836 130.895  0.00  0.00    +0.000 C 
ENDBRANCH  21  23
ENDBRANCH   1  21
BRANCH  10  24
ATOM     24  C   UNL     1      -8.796   2.760 130.797  0.00  0.00    +0.000 C 
BRANCH  24  25
ATOM     25  C   UNL     1      -8.277   1.452 131.317  0.00  0.00    +0.000 A 
ATOM     26  C   UNL     1      -9.085   0.360 131.664  0.00  0.00    +0.000 A 
ATOM     27  C   UNL     1      -8.577  -0.956 131.636  0.00  0.00    +0.000 A 
ATOM     28  C   UNL     1      -7.207  -1.173 131.508  0.00  0.00    +0.000 A 
ATOM     29  C   UNL     1      -6.406  -0.024 131.343  0.00  0.00    +0.000 A 
ATOM     30  C   UNL     1      -6.912   1.267 131.285  0.00  0.00    +0.000 A 
BRANCH  28  31
ATOM     31  C   UNL     1      -6.554  -2.502 131.622  0.00  0.00    +0.000 A 
ATOM     32  C   UNL     1      -6.027  -2.961 132.863  0.00  0.00    +0.000 A 
ATOM     33  C   UNL     1      -5.571  -4.277 133.020  0.00  0.00    +0.000 A 
ATOM     34  C   UNL     1      -5.397  -5.070 131.899  0.00  0.00    +0.000 A 
ATOM     35  C   UNL     1      -5.819  -4.608 130.650  0.00  0.00    +0.000 A 
ATOM     36  C   UNL     1      -6.493  -3.380 130.500  0.00  0.00    +0.000 A 
BRANCH  36  37
ATOM     37  C   UNL     1      -7.117  -3.027 129.151  0.00  0.00    +0.000 C 
ATOM     38  O   UNL     1      -8.281  -3.233 128.804  0.00  0.00    +0.000 OA
BRANCH  37  39
ATOM     39  O   UNL     1      -6.313  -2.473 128.231  0.00  0.00    +0.000 OA
ATOM     40  H   UNL     1      -6.536  -1.601 127.887  0.00  0.00    +0.000 HD
ENDBRANCH  37  39
ENDBRANCH  36  37
ENDBRANCH  28  31
ENDBRANCH  24  25
ENDBRANCH  10  24
TORSDOF 8
ENDMDL
MODEL 9
REMARK VINA RESULT:      -9.0      4.397      8.904
REMARK  Name = Telmisartan
REMARK  11 active torsions:
REMARK  status: ('A' for Active; 'I' for Inactive)
REMARK    1  A    between atoms: C_1  and  C_2
REMARK    2  A    between atoms: C_2  and  C_3
REMARK    3  A    between atoms: C_3  and  C_4
REMARK    4  A    between atoms: C_9  and  C_13
REMARK    5  A    between atoms: C_11  and  C_12
REMARK    6  A    between atoms: N_21  and  C_22
REMARK    7  A    between atoms: N_23  and  C_24
REMARK    8  A    between atoms: C_24  and  C_25
REMARK    9  A    between atoms: C_28  and  C_31
REMARK   10  A    between atoms: C_36  and  C_37
REMARK   11  A    between atoms: C_37  and  O_38
REMARK                            x       y       z     vdW  Elec       q    Type
REMARK                         _______ _______ _______ _____ _____    ______ ____
ROOT
ATOM      1  C   UNL     1      -6.419  -0.755 132.864  0.00  0.00    +0.000 A 
ATOM      2  N   UNL     1      -6.036  -1.999 132.645  0.00  0.00    +0.000 NA
ATOM      3  C   UNL     1      -6.353  -2.287 131.352  0.00  0.00    +0.000 A 
ATOM      4  C   UNL     1      -6.968  -1.197 130.747  0.00  0.00    +0.000 A 
ATOM      5  C   UNL     1      -7.367  -1.223 129.404  0.00  0.00    +0.000 A 
ATOM      6  C   UNL     1      -7.139  -2.406 128.685  0.00  0.00    +0.000 A 
ATOM      7  C   UNL     1      -6.525  -3.506 129.295  0.00  0.00    +0.000 A 
ATOM      8  C   UNL     1      -6.126  -3.480 130.639  0.00  0.00    +0.000 A 
ATOM      9  C   UNL     1      -5.472  -4.686 131.246  0.00  0.00    +0.000 C 
ATOM     10  N   UNL     1      -7.049  -0.222 131.741  0.00  0.00    +0.000 N 
ENDROOT
BRANCH   6  11
ATOM     11  C   UNL     1      -7.549  -2.490 127.289  0.00  0.00    +0.000 A 
ATOM     12  N   UNL     1      -8.620  -3.120 126.843  0.00  0.00    +0.000 NA
ATOM     13  C   UNL     1      -8.625  -2.939 125.485  0.00  0.00    +0.000 A 
ATOM     14  C   UNL     1      -9.550  -3.382 124.526  0.00  0.00    +0.000 A 
ATOM     15  C   UNL     1      -9.315  -3.084 123.178  0.00  0.00    +0.000 A 
ATOM     16  C   UNL     1      -8.186  -2.360 122.793  0.00  0.00    +0.000 A 
ATOM     17  C   UNL     1      -7.262  -1.903 123.735  0.00  0.00    +0.000 A 
ATOM     18  C   UNL     1      -7.515  -2.208 125.076  0.00  0.00    +0.000 A 
ATOM     19  N   UNL     1      -6.846  -1.928 126.241  0.00  0.00    +0.000 N 
ATOM     20  C   UNL     1      -5.598  -1.210 126.350  0.00  0.00    +0.000 C 
ENDBRANCH   6  11
BRANCH   1  21
ATOM     21  C   UNL     1      -6.196  -0.126 134.205  0.00  0.00    +0.000 C 
BRANCH  21  23
ATOM     22  C   UNL     1      -5.108   1.866 135.361  0.00  0.00    +0.000 C 
ATOM     23  C   UNL     1      -4.994   0.837 134.237  0.00  0.00    +0.000 C 
ENDBRANCH  21  23
ENDBRANCH   1  21
BRANCH  10  24
ATOM     24  C   UNL     1      -7.690   1.088 131.475  0.00  0.00    +0.000 C 
BRANCH  24  25
ATOM     25  C   UNL     1      -6.764   2.265 131.371  0.00  0.00    +0.000 A 
ATOM     26  C   UNL     1      -6.840   3.407 132.181  0.00  0.00    +0.000 A 
ATOM     27  C   UNL     1      -5.702   4.207 132.414  0.00  0.00    +0.000 A 
ATOM     28  C   UNL     1      -4.551   4.023 131.651  0.00  0.00    +0.000 A 
ATOM     29  C   UNL     1      -4.586   2.970 130.714  0.00  0.00    +0.000 A 
ATOM     30  C   UNL     1      -5.674   2.127 130.541  0.00  0.00    +0.000 A 
BRANCH  28  31
ATOM     31  C   UNL     1      -3.358   4.907 131.707  0.00  0.00    +0.000 A 
ATOM     32  C   UNL     1      -2.231   4.574 132.513  0.00  0.00    +0.000 A 
ATOM     33  C   UNL     1      -1.039   5.306 132.437  0.00  0.00    +0.000 A 
ATOM     34  C   UNL     1      -1.028   6.513 131.760  0.00  0.00    +0.000 A 
ATOM     35  C   UNL     1      -2.154   6.911 131.036  0.00  0.00    +0.000 A 
ATOM     36  C   UNL     1      -3.287   6.084 130.906  0.00  0.00    +0.000 A 
BRANCH  36  37
ATOM     37  C   UNL     1      -4.396   6.478 129.933  0.00  0.00    +0.000 C 
ATOM     38  O   UNL     1      -4.532   6.081 128.774  0.00  0.00    +0.000 OA
BRANCH  37  39
ATOM     39  O   UNL     1      -5.294   7.377 130.361  0.00  0.00    +0.000 OA
ATOM     40  H   UNL     1      -5.311   8.247 129.946  0.00  0.00    +0.000 HD
ENDBRANCH  37  39
ENDBRANCH  36  37
ENDBRANCH  28  31
ENDBRANCH  24  25
ENDBRANCH  10  24
TORSDOF 8
ENDMDL
