MODEL 1
REMARK VINA RESULT:      -9.0      0.000      0.000
REMARK  Name = Telotristat ethyl
REMARK  14 active torsions:
REMARK  status: ('A' for Active; 'I' for Inactive)
REMARK    1  A    between atoms: C_1  and  C_2
REMARK    2  A    between atoms: C_2  and  O_3
REMARK    3  A    between atoms: O_3  and  C_4
REMARK    4  A    between atoms: C_4  and  C_6
REMARK    5  A    between atoms: C_6  and  N_7
REMARK    6  A    between atoms: C_6  and  C_8
REMARK    7  A    between atoms: C_8  and  C_9
REMARK    8  A    between atoms: C_12  and  C_15
REMARK    9  A    between atoms: C_20  and  O_21
REMARK   10  A    between atoms: O_21  and  C_22
REMARK   11  A    between atoms: C_22  and  C_23
REMARK   12  A    between atoms: C_22  and  C_36
REMARK   13  A    between atoms: C_29  and  N_30
REMARK   14  A    between atoms: C_33  and  C_34
REMARK                            x       y       z     vdW  Elec       q    Type
REMARK                         _______ _______ _______ _____ _____    ______ ____
ROOT
ATOM      1  C   UNL     1      -7.610  -0.393 130.384  0.00  0.00    +0.000 A 
ATOM      2  N   UNL     1      -7.258  -1.045 131.501  0.00  0.00    +0.000 NA
ATOM      3  C   UNL     1      -6.828  -0.282 132.482  0.00  0.00    +0.000 A 
ATOM      4  N   UNL     1      -6.567  -0.915 133.663  0.00  0.00    +0.000 N 
ATOM      5  N   UNL     1      -6.749   1.056 132.411  0.00  0.00    +0.000 NA
ATOM      6  C   UNL     1      -7.353   1.673 131.388  0.00  0.00    +0.000 A 
ATOM      7  C   UNL     1      -7.750   0.976 130.289  0.00  0.00    +0.000 A 
ATOM      8  H   UNL     1      -6.650  -1.917 133.692  0.00  0.00    +0.000 HD
ATOM      9  H   UNL     1      -6.123  -0.395 134.397  0.00  0.00    +0.000 HD
ENDROOT
BRANCH   1  13
ATOM     10  C   UNL     1      -8.363  -2.762 126.971  0.00  0.00    +0.000 A 
ATOM     11  C   UNL     1      -8.121  -1.392 126.834  0.00  0.00    +0.000 A 
ATOM     12  C   UNL     1      -7.784  -0.646 127.952  0.00  0.00    +0.000 A 
ATOM     13  C   UNL     1      -7.802  -1.230 129.227  0.00  0.00    +0.000 A 
ATOM     14  C   UNL     1      -8.045  -2.592 129.370  0.00  0.00    +0.000 A 
ATOM     15  C   UNL     1      -8.352  -3.340 128.251  0.00  0.00    +0.000 A 
BRANCH  10  16
ATOM     16  C   UNL     1      -8.554  -3.612 125.736  0.00  0.00    +0.000 C 
BRANCH  16  17
ATOM     17  C   UNL     1      -8.746  -2.791 124.440  0.00  0.00    +0.000 C 
BRANCH  17  18
ATOM     18  N   UNL     1      -9.877  -3.327 123.643  0.00  0.00    +0.000 NA
ATOM     19  H   UNL     1      -9.591  -4.173 123.154  0.00  0.00    +0.000 HD
ATOM     20  H   UNL     1     -10.184  -2.645 122.954  0.00  0.00    +0.000 HD
ENDBRANCH  17  18
BRANCH  17  21
ATOM     21  C   UNL     1      -7.445  -2.773 123.630  0.00  0.00    +0.000 C 
ATOM     22  O   UNL     1      -7.242  -2.077 122.659  0.00  0.00    +0.000 OA
BRANCH  21  23
ATOM     23  O   UNL     1      -6.550  -3.677 124.150  0.00  0.00    +0.000 OA
BRANCH  23  25
ATOM     24  C   UNL     1      -4.396  -4.614 123.607  0.00  0.00    +0.000 C 
ATOM     25  C   UNL     1      -5.187  -3.344 123.857  0.00  0.00    +0.000 C 
ENDBRANCH  23  25
ENDBRANCH  21  23
ENDBRANCH  17  21
ENDBRANCH  16  17
ENDBRANCH  10  16
ENDBRANCH   1  13
BRANCH   6  26
ATOM     26  O   UNL     1      -7.660   3.022 131.403  0.00  0.00    +0.000 OA
BRANCH  26  27
ATOM     27  C   UNL     1      -8.961   3.598 131.764  0.00  0.00    +0.000 C 
BRANCH  27  28
ATOM     28  C   UNL     1      -9.534   4.747 130.945  0.00  0.00    +0.000 A 
ATOM     29  C   UNL     1     -10.871   4.636 130.532  0.00  0.00    +0.000 A 
ATOM     30  C   UNL     1     -11.571   5.738 130.071  0.00  0.00    +0.000 A 
ATOM     31  C   UNL     1     -10.920   6.954 129.942  0.00  0.00    +0.000 A 
ATOM     32 CL   UNL     1     -11.848   8.354 129.582  0.00  0.00    +0.000 Cl
ATOM     33  C   UNL     1      -9.542   7.038 130.133  0.00  0.00    +0.000 A 
ATOM     34  C   UNL     1      -8.838   5.925 130.619  0.00  0.00    +0.000 A 
BRANCH  34  35
ATOM     35  N   UNL     1      -7.427   6.002 130.685  0.00  0.00    +0.000 N 
ATOM     36  C   UNL     1      -6.683   6.507 131.725  0.00  0.00    +0.000 A 
ATOM     37  C   UNL     1      -5.363   6.357 131.400  0.00  0.00    +0.000 A 
ATOM     38  C   UNL     1      -5.388   5.727 130.147  0.00  0.00    +0.000 A 
ATOM     39  C   UNL     1      -4.208   5.319 129.360  0.00  0.00    +0.000 C 
ATOM     40  N   UNL     1      -6.634   5.465 129.730  0.00  0.00    +0.000 NA
ENDBRANCH  34  35
ENDBRANCH  27  28
BRANCH  27  41
ATOM     41  C   UNL     1      -8.964   4.086 133.237  0.00  0.00    +0.000 C 
ATOM     42  F   UNL     1      -7.719   4.135 133.766  0.00  0.00    +0.000 F 
ATOM     43  F   UNL     1      -9.462   5.342 133.358  0.00  0.00    +0.000 F 
ATOM     44  F   UNL     1      -9.721   3.306 134.038  0.00  0.00    +0.000 F 
ENDBRANCH  27  41
ENDBRANCH  26  27
ENDBRANCH   6  26
TORSDOF 12
ENDMDL
MODEL 2
REMARK VINA RESULT:      -8.9      2.356      2.940
REMARK  Name = Telotristat ethyl
REMARK  14 active torsions:
REMARK  status: ('A' for Active; 'I' for Inactive)
REMARK    1  A    between atoms: C_1  and  C_2
REMARK    2  A    between atoms: C_2  and  O_3
REMARK    3  A    between atoms: O_3  and  C_4
REMARK    4  A    between atoms: C_4  and  C_6
REMARK    5  A    between atoms: C_6  and  N_7
REMARK    6  A    between atoms: C_6  and  C_8
REMARK    7  A    between atoms: C_8  and  C_9
REMARK    8  A    between atoms: C_12  and  C_15
REMARK    9  A    between atoms: C_20  and  O_21
REMARK   10  A    between atoms: O_21  and  C_22
REMARK   11  A    between atoms: C_22  and  C_23
REMARK   12  A    between atoms: C_22  and  C_36
REMARK   13  A    between atoms: C_29  and  N_30
REMARK   14  A    between atoms: C_33  and  C_34
REMARK                            x       y       z     vdW  Elec       q    Type
REMARK                         _______ _______ _______ _____ _____    ______ ____
ROOT
ATOM      1  C   UNL     1      -7.917  -1.931 130.755  0.00  0.00    +0.000 A 
ATOM      2  N   UNL     1      -7.488  -2.861 131.618  0.00  0.00    +0.000 NA
ATOM      3  C   UNL     1      -7.135  -2.408 132.801  0.00  0.00    +0.000 A 
ATOM      4  N   UNL     1      -6.798  -3.351 133.729  0.00  0.00    +0.000 N 
ATOM      5  N   UNL     1      -7.200  -1.115 133.158  0.00  0.00    +0.000 NA
ATOM      6  C   UNL     1      -7.875  -0.273 132.366  0.00  0.00    +0.000 A 
ATOM      7  C   UNL     1      -8.203  -0.624 131.094  0.00  0.00    +0.000 A 
ATOM      8  H   UNL     1      -6.773  -4.314 133.438  0.00  0.00    +0.000 HD
ATOM      9  H   UNL     1      -6.407  -3.047 134.601  0.00  0.00    +0.000 HD
ENDROOT
BRANCH   1  13
ATOM     10  C   UNL     1      -8.390  -3.087 126.723  0.00  0.00    +0.000 A 
ATOM     11  C   UNL     1      -7.785  -1.867 127.035  0.00  0.00    +0.000 A 
ATOM     12  C   UNL     1      -7.553  -1.544 128.362  0.00  0.00    +0.000 A 
ATOM     13  C   UNL     1      -8.027  -2.374 129.388  0.00  0.00    +0.000 A 
ATOM     14  C   UNL     1      -8.632  -3.588 129.084  0.00  0.00    +0.000 A 
ATOM     15  C   UNL     1      -8.837  -3.922 127.760  0.00  0.00    +0.000 A 
BRANCH  10  16
ATOM     16  C   UNL     1      -8.485  -3.525 125.279  0.00  0.00    +0.000 C 
BRANCH  16  17
ATOM     17  C   UNL     1      -8.393  -2.358 124.269  0.00  0.00    +0.000 C 
BRANCH  17  18
ATOM     18  N   UNL     1      -9.569  -2.355 123.364  0.00  0.00    +0.000 NA
ATOM     19  H   UNL     1     -10.290  -2.978 123.724  0.00  0.00    +0.000 HD
ATOM     20  H   UNL     1      -9.305  -2.668 122.434  0.00  0.00    +0.000 HD
ENDBRANCH  17  18
BRANCH  17  21
ATOM     21  C   UNL     1      -7.080  -2.442 123.484  0.00  0.00    +0.000 C 
ATOM     22  O   UNL     1      -6.767  -1.705 122.574  0.00  0.00    +0.000 OA
BRANCH  21  23
ATOM     23  O   UNL     1      -6.317  -3.489 123.945  0.00  0.00    +0.000 OA
BRANCH  23  25
ATOM     24  C   UNL     1      -4.250  -4.658 123.532  0.00  0.00    +0.000 C 
ATOM     25  C   UNL     1      -4.916  -3.306 123.706  0.00  0.00    +0.000 C 
ENDBRANCH  23  25
ENDBRANCH  21  23
ENDBRANCH  17  21
ENDBRANCH  16  17
ENDBRANCH  10  16
ENDBRANCH   1  13
BRANCH   6  26
ATOM     26  O   UNL     1      -8.324   0.963 132.797  0.00  0.00    +0.000 OA
BRANCH  26  27
ATOM     27  C   UNL     1      -8.145   2.233 132.084  0.00  0.00    +0.000 C 
BRANCH  27  28
ATOM     28  C   UNL     1      -7.750   3.485 132.856  0.00  0.00    +0.000 A 
ATOM     29  C   UNL     1      -8.469   3.771 134.026  0.00  0.00    +0.000 A 
ATOM     30  C   UNL     1      -7.994   4.683 134.953  0.00  0.00    +0.000 A 
ATOM     31  C   UNL     1      -6.828   5.382 134.687  0.00  0.00    +0.000 A 
ATOM     32 CL   UNL     1      -6.136   6.341 135.932  0.00  0.00    +0.000 Cl
ATOM     33  C   UNL     1      -6.218   5.280 133.437  0.00  0.00    +0.000 A 
ATOM     34  C   UNL     1      -6.689   4.340 132.508  0.00  0.00    +0.000 A 
BRANCH  34  35
ATOM     35  N   UNL     1      -6.129   4.346 131.208  0.00  0.00    +0.000 N 
ATOM     36  C   UNL     1      -6.674   4.924 130.085  0.00  0.00    +0.000 A 
ATOM     37  C   UNL     1      -5.794   4.734 129.056  0.00  0.00    +0.000 A 
ATOM     38  C   UNL     1      -4.721   4.049 129.643  0.00  0.00    +0.000 A 
ATOM     39  C   UNL     1      -3.487   3.622 128.955  0.00  0.00    +0.000 C 
ATOM     40  N   UNL     1      -4.895   3.853 130.957  0.00  0.00    +0.000 NA
ENDBRANCH  34  35
ENDBRANCH  27  28
BRANCH  27  41
ATOM     41  C   UNL     1      -9.424   2.611 131.290  0.00  0.00    +0.000 C 
ATOM     42  F   UNL     1     -10.532   2.013 131.785  0.00  0.00    +0.000 F 
ATOM     43  F   UNL     1      -9.678   3.943 131.335  0.00  0.00    +0.000 F 
ATOM     44  F   UNL     1      -9.333   2.293 129.982  0.00  0.00    +0.000 F 
ENDBRANCH  27  41
ENDBRANCH  26  27
ENDBRANCH   6  26
TORSDOF 12
ENDMDL
MODEL 3
REMARK VINA RESULT:      -8.8      1.946      3.099
REMARK  Name = Telotristat ethyl
REMARK  14 active torsions:
REMARK  status: ('A' for Active; 'I' for Inactive)
REMARK    1  A    between atoms: C_1  and  C_2
REMARK    2  A    between atoms: C_2  and  O_3
REMARK    3  A    between atoms: O_3  and  C_4
REMARK    4  A    between atoms: C_4  and  C_6
REMARK    5  A    between atoms: C_6  and  N_7
REMARK    6  A    between atoms: C_6  and  C_8
REMARK    7  A    between atoms: C_8  and  C_9
REMARK    8  A    between atoms: C_12  and  C_15
REMARK    9  A    between atoms: C_20  and  O_21
REMARK   10  A    between atoms: O_21  and  C_22
REMARK   11  A    between atoms: C_22  and  C_23
REMARK   12  A    between atoms: C_22  and  C_36
REMARK   13  A    between atoms: C_29  and  N_30
REMARK   14  A    between atoms: C_33  and  C_34
REMARK                            x       y       z     vdW  Elec       q    Type
REMARK                         _______ _______ _______ _____ _____    ______ ____
ROOT
ATOM      1  C   UNL     1      -7.887  -1.345 130.845  0.00  0.00    +0.000 A 
ATOM      2  N   UNL     1      -7.099  -1.981 131.722  0.00  0.00    +0.000 NA
ATOM      3  C   UNL     1      -6.788  -1.292 132.797  0.00  0.00    +0.000 A 
ATOM      4  N   UNL     1      -6.076  -1.959 133.752  0.00  0.00    +0.000 N 
ATOM      5  N   UNL     1      -7.221  -0.044 133.039  0.00  0.00    +0.000 NA
ATOM      6  C   UNL     1      -8.206   0.443 132.274  0.00  0.00    +0.000 A 
ATOM      7  C   UNL     1      -8.536  -0.153 131.098  0.00  0.00    +0.000 A 
ATOM      8  H   UNL     1      -5.778  -2.898 133.550  0.00  0.00    +0.000 HD
ATOM      9  H   UNL     1      -5.714  -1.440 134.530  0.00  0.00    +0.000 HD
ENDROOT
BRANCH   1  13
ATOM     10  C   UNL     1      -8.357  -3.069 127.019  0.00  0.00    +0.000 A 
ATOM     11  C   UNL     1      -7.863  -1.767 127.145  0.00  0.00    +0.000 A 
ATOM     12  C   UNL     1      -7.626  -1.250 128.409  0.00  0.00    +0.000 A 
ATOM     13  C   UNL     1      -7.991  -1.975 129.552  0.00  0.00    +0.000 A 
ATOM     14  C   UNL     1      -8.485  -3.268 129.433  0.00  0.00    +0.000 A 
ATOM     15  C   UNL     1      -8.694  -3.794 128.174  0.00  0.00    +0.000 A 
BRANCH  10  16
ATOM     16  C   UNL     1      -8.448  -3.702 125.650  0.00  0.00    +0.000 C 
BRANCH  16  17
ATOM     17  C   UNL     1      -8.677  -2.685 124.509  0.00  0.00    +0.000 C 
BRANCH  17  18
ATOM     18  N   UNL     1      -9.847  -3.074 123.685  0.00  0.00    +0.000 NA
ATOM     19  H   UNL     1     -10.635  -3.312 124.285  0.00  0.00    +0.000 HD
ATOM     20  H   UNL     1      -9.625  -3.882 123.108  0.00  0.00    +0.000 HD
ENDBRANCH  17  18
BRANCH  17  21
ATOM     21  C   UNL     1      -7.408  -2.554 123.658  0.00  0.00    +0.000 C 
ATOM     22  O   UNL     1      -7.199  -1.669 122.856  0.00  0.00    +0.000 OA
BRANCH  21  23
ATOM     23  O   UNL     1      -6.553  -3.597 123.919  0.00  0.00    +0.000 OA
BRANCH  23  25
ATOM     24  C   UNL     1      -4.283  -4.393 123.749  0.00  0.00    +0.000 C 
ATOM     25  C   UNL     1      -5.180  -3.191 123.979  0.00  0.00    +0.000 C 
ENDBRANCH  23  25
ENDBRANCH  21  23
ENDBRANCH  17  21
ENDBRANCH  16  17
ENDBRANCH  10  16
ENDBRANCH   1  13
BRANCH   6  26
ATOM     26  O   UNL     1      -8.976   1.530 132.648  0.00  0.00    +0.000 OA
BRANCH  26  27
ATOM     27  C   UNL     1      -8.631   2.939 132.422  0.00  0.00    +0.000 C 
BRANCH  27  28
ATOM     28  C   UNL     1      -7.653   3.310 131.315  0.00  0.00    +0.000 A 
ATOM     29  C   UNL     1      -6.400   2.678 131.328  0.00  0.00    +0.000 A 
ATOM     30  C   UNL     1      -5.577   2.700 130.215  0.00  0.00    +0.000 A 
ATOM     31  C   UNL     1      -5.961   3.421 129.096  0.00  0.00    +0.000 A 
ATOM     32 CL   UNL     1      -5.043   3.261 127.654  0.00  0.00    +0.000 Cl
ATOM     33  C   UNL     1      -7.091   4.236 129.140  0.00  0.00    +0.000 A 
ATOM     34  C   UNL     1      -7.934   4.197 130.261  0.00  0.00    +0.000 A 
BRANCH  34  35
ATOM     35  N   UNL     1      -9.002   5.124 130.327  0.00  0.00    +0.000 N 
ATOM     36  C   UNL     1      -8.987   6.345 130.959  0.00  0.00    +0.000 A 
ATOM     37  C   UNL     1     -10.202   6.934 130.748  0.00  0.00    +0.000 A 
ATOM     38  C   UNL     1     -10.897   6.011 129.952  0.00  0.00    +0.000 A 
ATOM     39  C   UNL     1     -12.265   6.182 129.424  0.00  0.00    +0.000 C 
ATOM     40  N   UNL     1     -10.158   4.934 129.653  0.00  0.00    +0.000 NA
ENDBRANCH  34  35
ENDBRANCH  27  28
BRANCH  27  41
ATOM     41  C   UNL     1      -8.074   3.591 133.716  0.00  0.00    +0.000 C 
ATOM     42  F   UNL     1      -7.424   4.751 133.467  0.00  0.00    +0.000 F 
ATOM     43  F   UNL     1      -9.057   3.904 134.596  0.00  0.00    +0.000 F 
ATOM     44  F   UNL     1      -7.225   2.777 134.379  0.00  0.00    +0.000 F 
ENDBRANCH  27  41
ENDBRANCH  26  27
ENDBRANCH   6  26
TORSDOF 12
ENDMDL
MODEL 4
REMARK VINA RESULT:      -8.6      5.225      8.436
REMARK  Name = Telotristat ethyl
REMARK  14 active torsions:
REMARK  status: ('A' for Active; 'I' for Inactive)
REMARK    1  A    between atoms: C_1  and  C_2
REMARK    2  A    between atoms: C_2  and  O_3
REMARK    3  A    between atoms: O_3  and  C_4
REMARK    4  A    between atoms: C_4  and  C_6
REMARK    5  A    between atoms: C_6  and  N_7
REMARK    6  A    between atoms: C_6  and  C_8
REMARK    7  A    between atoms: C_8  and  C_9
REMARK    8  A    between atoms: C_12  and  C_15
REMARK    9  A    between atoms: C_20  and  O_21
REMARK   10  A    between atoms: O_21  and  C_22
REMARK   11  A    between atoms: C_22  and  C_23
REMARK   12  A    between atoms: C_22  and  C_36
REMARK   13  A    between atoms: C_29  and  N_30
REMARK   14  A    between atoms: C_33  and  C_34
REMARK                            x       y       z     vdW  Elec       q    Type
REMARK                         _______ _______ _______ _____ _____    ______ ____
ROOT
ATOM      1  C   UNL     1      -7.798  -2.336 125.820  0.00  0.00    +0.000 A 
ATOM      2  N   UNL     1      -8.666  -3.186 125.254  0.00  0.00    +0.000 NA
ATOM      3  C   UNL     1      -9.152  -2.800 124.095  0.00  0.00    +0.000 A 
ATOM      4  N   UNL     1      -9.953  -3.699 123.452  0.00  0.00    +0.000 N 
ATOM      5  N   UNL     1      -8.815  -1.652 123.486  0.00  0.00    +0.000 NA
ATOM      6  C   UNL     1      -7.761  -0.973 123.954  0.00  0.00    +0.000 A 
ATOM      7  C   UNL     1      -7.247  -1.243 125.184  0.00  0.00    +0.000 A 
ATOM      8  H   UNL     1     -10.177  -4.558 123.925  0.00  0.00    +0.000 HD
ATOM      9  H   UNL     1     -10.442  -3.402 122.628  0.00  0.00    +0.000 HD
ENDROOT
BRANCH   1  13
ATOM     10  C   UNL     1      -7.021  -2.985 129.919  0.00  0.00    +0.000 A 
ATOM     11  C   UNL     1      -8.260  -3.338 129.376  0.00  0.00    +0.000 A 
ATOM     12  C   UNL     1      -8.467  -3.205 128.013  0.00  0.00    +0.000 A 
ATOM     13  C   UNL     1      -7.490  -2.612 127.201  0.00  0.00    +0.000 A 
ATOM     14  C   UNL     1      -6.256  -2.257 127.735  0.00  0.00    +0.000 A 
ATOM     15  C   UNL     1      -6.041  -2.417 129.090  0.00  0.00    +0.000 A 
BRANCH  10  16
ATOM     16  C   UNL     1      -6.728  -3.294 131.370  0.00  0.00    +0.000 C 
BRANCH  16  17
ATOM     17  C   UNL     1      -6.331  -2.052 132.200  0.00  0.00    +0.000 C 
BRANCH  17  18
ATOM     18  N   UNL     1      -5.156  -2.348 133.058  0.00  0.00    +0.000 NA
ATOM     19  H   UNL     1      -4.886  -1.517 133.580  0.00  0.00    +0.000 HD
ATOM     20  H   UNL     1      -4.366  -2.645 132.491  0.00  0.00    +0.000 HD
ENDBRANCH  17  18
BRANCH  17  21
ATOM     21  C   UNL     1      -7.525  -1.569 133.030  0.00  0.00    +0.000 C 
ATOM     22  O   UNL     1      -8.261  -2.287 133.672  0.00  0.00    +0.000 OA
BRANCH  21  23
ATOM     23  O   UNL     1      -7.657  -0.205 132.922  0.00  0.00    +0.000 OA
BRANCH  23  25
ATOM     24  C   UNL     1      -8.436   0.436 130.731  0.00  0.00    +0.000 C 
ATOM     25  C   UNL     1      -7.235   0.297 131.647  0.00  0.00    +0.000 C 
ENDBRANCH  23  25
ENDBRANCH  21  23
ENDBRANCH  17  21
ENDBRANCH  16  17
ENDBRANCH  10  16
ENDBRANCH   1  13
BRANCH   6  26
ATOM     26  O   UNL     1      -7.101  -0.010 123.211  0.00  0.00    +0.000 OA
BRANCH  26  27
ATOM     27  C   UNL     1      -7.494   1.400 123.100  0.00  0.00    +0.000 C 
BRANCH  27  28
ATOM     28  C   UNL     1      -6.828   2.444 123.989  0.00  0.00    +0.000 A 
ATOM     29  C   UNL     1      -7.017   2.321 125.374  0.00  0.00    +0.000 A 
ATOM     30  C   UNL     1      -6.213   3.007 126.269  0.00  0.00    +0.000 A 
ATOM     31  C   UNL     1      -5.257   3.888 125.790  0.00  0.00    +0.000 A 
ATOM     32 CL   UNL     1      -4.128   4.561 126.894  0.00  0.00    +0.000 Cl
ATOM     33  C   UNL     1      -5.201   4.194 124.431  0.00  0.00    +0.000 A 
ATOM     34  C   UNL     1      -6.002   3.482 123.524  0.00  0.00    +0.000 A 
BRANCH  34  35
ATOM     35  N   UNL     1      -6.013   3.899 122.172  0.00  0.00    +0.000 N 
ATOM     36  C   UNL     1      -4.945   4.392 121.460  0.00  0.00    +0.000 A 
ATOM     37  C   UNL     1      -5.375   4.635 120.185  0.00  0.00    +0.000 A 
ATOM     38  C   UNL     1      -6.721   4.237 120.196  0.00  0.00    +0.000 A 
ATOM     39  C   UNL     1      -7.643   4.277 119.044  0.00  0.00    +0.000 C 
ATOM     40  N   UNL     1      -7.100   3.746 121.383  0.00  0.00    +0.000 NA
ENDBRANCH  34  35
ENDBRANCH  27  28
BRANCH  27  41
ATOM     41  C   UNL     1      -9.021   1.572 123.318  0.00  0.00    +0.000 C 
ATOM     42  F   UNL     1      -9.405   2.869 123.263  0.00  0.00    +0.000 F 
ATOM     43  F   UNL     1      -9.748   0.935 122.367  0.00  0.00    +0.000 F 
ATOM     44  F   UNL     1      -9.433   1.070 124.501  0.00  0.00    +0.000 F 
ENDBRANCH  27  41
ENDBRANCH  26  27
ENDBRANCH   6  26
TORSDOF 12
ENDMDL
MODEL 5
REMARK VINA RESULT:      -8.6      5.218     10.132
REMARK  Name = Telotristat ethyl
REMARK  14 active torsions:
REMARK  status: ('A' for Active; 'I' for Inactive)
REMARK    1  A    between atoms: C_1  and  C_2
REMARK    2  A    between atoms: C_2  and  O_3
REMARK    3  A    between atoms: O_3  and  C_4
REMARK    4  A    between atoms: C_4  and  C_6
REMARK    5  A    between atoms: C_6  and  N_7
REMARK    6  A    between atoms: C_6  and  C_8
REMARK    7  A    between atoms: C_8  and  C_9
REMARK    8  A    between atoms: C_12  and  C_15
REMARK    9  A    between atoms: C_20  and  O_21
REMARK   10  A    between atoms: O_21  and  C_22
REMARK   11  A    between atoms: C_22  and  C_23
REMARK   12  A    between atoms: C_22  and  C_36
REMARK   13  A    between atoms: C_29  and  N_30
REMARK   14  A    between atoms: C_33  and  C_34
REMARK                            x       y       z     vdW  Elec       q    Type
REMARK                         _______ _______ _______ _____ _____    ______ ____
ROOT
ATOM      1  C   UNL     1      -5.437   3.648 124.441  0.00  0.00    +0.000 A 
ATOM      2  N   UNL     1      -5.254   4.376 123.332  0.00  0.00    +0.000 NA
ATOM      3  C   UNL     1      -5.736   3.845 122.229  0.00  0.00    +0.000 A 
ATOM      4  N   UNL     1      -5.655   4.620 121.107  0.00  0.00    +0.000 N 
ATOM      5  N   UNL     1      -6.382   2.669 122.183  0.00  0.00    +0.000 NA
ATOM      6  C   UNL     1      -6.768   2.114 123.338  0.00  0.00    +0.000 A 
ATOM      7  C   UNL     1      -6.254   2.538 124.523  0.00  0.00    +0.000 A 
ATOM      8  H   UNL     1      -5.180   5.503 121.174  0.00  0.00    +0.000 HD
ATOM      9  H   UNL     1      -5.897   4.210 120.224  0.00  0.00    +0.000 HD
ENDROOT
BRANCH   1  13
ATOM     10  C   UNL     1      -3.149   5.083 127.686  0.00  0.00    +0.000 A 
ATOM     11  C   UNL     1      -4.401   5.639 127.412  0.00  0.00    +0.000 A 
ATOM     12  C   UNL     1      -5.180   5.095 126.403  0.00  0.00    +0.000 A 
ATOM     13  C   UNL     1      -4.671   4.077 125.584  0.00  0.00    +0.000 A 
ATOM     14  C   UNL     1      -3.425   3.522 125.850  0.00  0.00    +0.000 A 
ATOM     15  C   UNL     1      -2.661   4.045 126.875  0.00  0.00    +0.000 A 
BRANCH  10  16
ATOM     16  C   UNL     1      -2.373   5.552 128.896  0.00  0.00    +0.000 C 
BRANCH  16  17
ATOM     17  C   UNL     1      -3.261   5.852 130.125  0.00  0.00    +0.000 C 
BRANCH  17  18
ATOM     18  N   UNL     1      -2.703   6.979 130.912  0.00  0.00    +0.000 NA
ATOM     19  H   UNL     1      -3.392   7.312 131.584  0.00  0.00    +0.000 HD
ATOM     20  H   UNL     1      -2.448   7.750 130.302  0.00  0.00    +0.000 HD
ENDBRANCH  17  18
BRANCH  17  21
ATOM     21  C   UNL     1      -3.421   4.591 130.981  0.00  0.00    +0.000 C 
ATOM     22  O   UNL     1      -2.612   4.198 131.794  0.00  0.00    +0.000 OA
BRANCH  21  23
ATOM     23  O   UNL     1      -4.602   3.958 130.678  0.00  0.00    +0.000 OA
BRANCH  23  25
ATOM     24  C   UNL     1      -4.192   1.928 129.442  0.00  0.00    +0.000 C 
ATOM     25  C   UNL     1      -4.517   2.532 130.795  0.00  0.00    +0.000 C 
ENDBRANCH  23  25
ENDBRANCH  21  23
ENDBRANCH  17  21
ENDBRANCH  16  17
ENDBRANCH  10  16
ENDBRANCH   1  13
BRANCH   6  26
ATOM     26  O   UNL     1      -7.740   1.131 123.407  0.00  0.00    +0.000 OA
BRANCH  26  27
ATOM     27  C   UNL     1      -7.817   0.078 124.426  0.00  0.00    +0.000 C 
BRANCH  27  28
ATOM     28  C   UNL     1      -7.021  -1.209 124.247  0.00  0.00    +0.000 A 
ATOM     29  C   UNL     1      -6.713  -1.595 122.934  0.00  0.00    +0.000 A 
ATOM     30  C   UNL     1      -5.742  -2.549 122.677  0.00  0.00    +0.000 A 
ATOM     31  C   UNL     1      -5.119  -3.188 123.736  0.00  0.00    +0.000 A 
ATOM     32 CL   UNL     1      -3.771  -4.202 123.411  0.00  0.00    +0.000 Cl
ATOM     33  C   UNL     1      -5.563  -2.984 125.041  0.00  0.00    +0.000 A 
ATOM     34  C   UNL     1      -6.533  -2.002 125.300  0.00  0.00    +0.000 A 
BRANCH  34  35
ATOM     35  N   UNL     1      -7.051  -1.904 126.614  0.00  0.00    +0.000 N 
ATOM     36  C   UNL     1      -7.893  -2.800 127.229  0.00  0.00    +0.000 A 
ATOM     37  C   UNL     1      -8.117  -2.349 128.500  0.00  0.00    +0.000 A 
ATOM     38  C   UNL     1      -7.350  -1.178 128.589  0.00  0.00    +0.000 A 
ATOM     39  C   UNL     1      -7.228  -0.313 129.779  0.00  0.00    +0.000 C 
ATOM     40  N   UNL     1      -6.664  -0.928 127.466  0.00  0.00    +0.000 NA
ENDBRANCH  34  35
ENDBRANCH  27  28
BRANCH  27  41
ATOM     41  C   UNL     1      -9.287  -0.365 124.660  0.00  0.00    +0.000 C 
ATOM     42  F   UNL     1     -10.158   0.312 123.877  0.00  0.00    +0.000 F 
ATOM     43  F   UNL     1      -9.478  -1.676 124.372  0.00  0.00    +0.000 F 
ATOM     44  F   UNL     1      -9.675  -0.204 125.943  0.00  0.00    +0.000 F 
ENDBRANCH  27  41
ENDBRANCH  26  27
ENDBRANCH   6  26
TORSDOF 12
ENDMDL
MODEL 6
REMARK VINA RESULT:      -8.6      2.107      2.990
REMARK  Name = Telotristat ethyl
REMARK  14 active torsions:
REMARK  status: ('A' for Active; 'I' for Inactive)
REMARK    1  A    between atoms: C_1  and  C_2
REMARK    2  A    between atoms: C_2  and  O_3
REMARK    3  A    between atoms: O_3  and  C_4
REMARK    4  A    between atoms: C_4  and  C_6
REMARK    5  A    between atoms: C_6  and  N_7
REMARK    6  A    between atoms: C_6  and  C_8
REMARK    7  A    between atoms: C_8  and  C_9
REMARK    8  A    between atoms: C_12  and  C_15
REMARK    9  A    between atoms: C_20  and  O_21
REMARK   10  A    between atoms: O_21  and  C_22
REMARK   11  A    between atoms: C_22  and  C_23
REMARK   12  A    between atoms: C_22  and  C_36
REMARK   13  A    between atoms: C_29  and  N_30
REMARK   14  A    between atoms: C_33  and  C_34
REMARK                            x       y       z     vdW  Elec       q    Type
REMARK                         _______ _______ _______ _____ _____    ______ ____
ROOT
ATOM      1  C   UNL     1      -7.776  -1.462 130.867  0.00  0.00    +0.000 A 
ATOM      2  N   UNL     1      -7.663  -2.347 131.867  0.00  0.00    +0.000 NA
ATOM      3  C   UNL     1      -7.296  -1.840 133.023  0.00  0.00    +0.000 A 
ATOM      4  N   UNL     1      -7.279  -2.706 134.078  0.00  0.00    +0.000 N 
ATOM      5  N   UNL     1      -7.058  -0.534 133.227  0.00  0.00    +0.000 NA
ATOM      6  C   UNL     1      -7.437   0.333 132.281  0.00  0.00    +0.000 A 
ATOM      7  C   UNL     1      -7.747  -0.092 131.028  0.00  0.00    +0.000 A 
ATOM      8  H   UNL     1      -7.477  -3.675 133.899  0.00  0.00    +0.000 HD
ATOM      9  H   UNL     1      -6.891  -2.393 134.948  0.00  0.00    +0.000 HD
ENDROOT
BRANCH   1  13
ATOM     10  C   UNL     1      -8.278  -3.033 126.980  0.00  0.00    +0.000 A 
ATOM     11  C   UNL     1      -7.751  -1.751 127.155  0.00  0.00    +0.000 A 
ATOM     12  C   UNL     1      -7.505  -1.286 128.437  0.00  0.00    +0.000 A 
ATOM     13  C   UNL     1      -7.893  -2.042 129.552  0.00  0.00    +0.000 A 
ATOM     14  C   UNL     1      -8.420  -3.317 129.385  0.00  0.00    +0.000 A 
ATOM     15  C   UNL     1      -8.638  -3.792 128.107  0.00  0.00    +0.000 A 
BRANCH  10  16
ATOM     16  C   UNL     1      -8.381  -3.614 125.588  0.00  0.00    +0.000 C 
BRANCH  16  17
ATOM     17  C   UNL     1      -8.529  -2.547 124.479  0.00  0.00    +0.000 C 
BRANCH  17  18
ATOM     18  N   UNL     1      -9.762  -2.780 123.689  0.00  0.00    +0.000 NA
ATOM     19  H   UNL     1     -10.514  -2.183 124.029  0.00  0.00    +0.000 HD
ATOM     20  H   UNL     1     -10.059  -3.749 123.767  0.00  0.00    +0.000 HD
ENDBRANCH  17  18
BRANCH  17  21
ATOM     21  C   UNL     1      -7.282  -2.538 123.588  0.00  0.00    +0.000 C 
ATOM     22  O   UNL     1      -7.104  -1.789 122.651  0.00  0.00    +0.000 OA
BRANCH  21  23
ATOM     23  O   UNL     1      -6.405  -3.518 123.988  0.00  0.00    +0.000 OA
BRANCH  23  25
ATOM     24  C   UNL     1      -4.257  -4.541 123.596  0.00  0.00    +0.000 C 
ATOM     25  C   UNL     1      -5.053  -3.249 123.597  0.00  0.00    +0.000 C 
ENDBRANCH  23  25
ENDBRANCH  21  23
ENDBRANCH  17  21
ENDBRANCH  16  17
ENDBRANCH  10  16
ENDBRANCH   1  13
BRANCH   6  26
ATOM     26  O   UNL     1      -7.589   1.687 132.526  0.00  0.00    +0.000 OA
BRANCH  26  27
ATOM     27  C   UNL     1      -8.073   2.680 131.558  0.00  0.00    +0.000 C 
BRANCH  27  28
ATOM     28  C   UNL     1      -7.288   3.967 131.338  0.00  0.00    +0.000 A 
ATOM     29  C   UNL     1      -7.244   4.881 132.401  0.00  0.00    +0.000 A 
ATOM     30  C   UNL     1      -6.315   5.908 132.423  0.00  0.00    +0.000 A 
ATOM     31  C   UNL     1      -5.467   6.084 131.343  0.00  0.00    +0.000 A 
ATOM     32 CL   UNL     1      -4.182   7.215 131.476  0.00  0.00    +0.000 Cl
ATOM     33  C   UNL     1      -5.640   5.330 130.183  0.00  0.00    +0.000 A 
ATOM     34  C   UNL     1      -6.567   4.276 130.171  0.00  0.00    +0.000 A 
BRANCH  34  35
ATOM     35  N   UNL     1      -6.808   3.611 128.944  0.00  0.00    +0.000 N 
ATOM     36  C   UNL     1      -7.880   3.803 128.107  0.00  0.00    +0.000 A 
ATOM     37  C   UNL     1      -7.705   2.994 127.019  0.00  0.00    +0.000 A 
ATOM     38  C   UNL     1      -6.480   2.355 127.261  0.00  0.00    +0.000 A 
ATOM     39  C   UNL     1      -5.820   1.384 126.367  0.00  0.00    +0.000 C 
ATOM     40  N   UNL     1      -5.908   2.760 128.403  0.00  0.00    +0.000 NA
ENDBRANCH  34  35
ENDBRANCH  27  28
BRANCH  27  41
ATOM     41  C   UNL     1      -9.523   3.121 131.890  0.00  0.00    +0.000 C 
ATOM     42  F   UNL     1      -9.858   4.285 131.286  0.00  0.00    +0.000 F 
ATOM     43  F   UNL     1     -10.442   2.216 131.472  0.00  0.00    +0.000 F 
ATOM     44  F   UNL     1      -9.726   3.273 133.216  0.00  0.00    +0.000 F 
ENDBRANCH  27  41
ENDBRANCH  26  27
ENDBRANCH   6  26
TORSDOF 12
ENDMDL
MODEL 7
REMARK VINA RESULT:      -8.5      2.720      4.630
REMARK  Name = Telotristat ethyl
REMARK  14 active torsions:
REMARK  status: ('A' for Active; 'I' for Inactive)
REMARK    1  A    between atoms: C_1  and  C_2
REMARK    2  A    between atoms: C_2  and  O_3
REMARK    3  A    between atoms: O_3  and  C_4
REMARK    4  A    between atoms: C_4  and  C_6
REMARK    5  A    between atoms: C_6  and  N_7
REMARK    6  A    between atoms: C_6  and  C_8
REMARK    7  A    between atoms: C_8  and  C_9
REMARK    8  A    between atoms: C_12  and  C_15
REMARK    9  A    between atoms: C_20  and  O_21
REMARK   10  A    between atoms: O_21  and  C_22
REMARK   11  A    between atoms: C_22  and  C_23
REMARK   12  A    between atoms: C_22  and  C_36
REMARK   13  A    between atoms: C_29  and  N_30
REMARK   14  A    between atoms: C_33  and  C_34
REMARK                            x       y       z     vdW  Elec       q    Type
REMARK                         _______ _______ _______ _____ _____    ______ ____
ROOT
ATOM      1  C   UNL     1      -5.177   2.461 126.567  0.00  0.00    +0.000 A 
ATOM      2  N   UNL     1      -3.853   2.621 126.438  0.00  0.00    +0.000 NA
ATOM      3  C   UNL     1      -3.374   3.740 126.933  0.00  0.00    +0.000 A 
ATOM      4  N   UNL     1      -2.015   3.873 126.908  0.00  0.00    +0.000 N 
ATOM      5  N   UNL     1      -4.124   4.672 127.543  0.00  0.00    +0.000 NA
ATOM      6  C   UNL     1      -5.379   4.352 127.880  0.00  0.00    +0.000 A 
ATOM      7  C   UNL     1      -5.989   3.260 127.346  0.00  0.00    +0.000 A 
ATOM      8  H   UNL     1      -1.477   3.152 126.459  0.00  0.00    +0.000 HD
ATOM      9  H   UNL     1      -1.616   4.757 127.162  0.00  0.00    +0.000 HD
ENDROOT
BRANCH   1  13
ATOM     10  C   UNL     1      -6.642  -0.694 124.174  0.00  0.00    +0.000 A 
ATOM     11  C   UNL     1      -5.753  -0.962 125.220  0.00  0.00    +0.000 A 
ATOM     12  C   UNL     1      -5.355   0.071 126.053  0.00  0.00    +0.000 A 
ATOM     13  C   UNL     1      -5.740   1.391 125.782  0.00  0.00    +0.000 A 
ATOM     14  C   UNL     1      -6.622   1.664 124.742  0.00  0.00    +0.000 A 
ATOM     15  C   UNL     1      -7.041   0.630 123.929  0.00  0.00    +0.000 A 
BRANCH  10  16
ATOM     16  C   UNL     1      -7.219  -1.840 123.374  0.00  0.00    +0.000 C 
BRANCH  16  17
ATOM     17  C   UNL     1      -8.723  -2.084 123.635  0.00  0.00    +0.000 C 
BRANCH  17  18
ATOM     18  N   UNL     1      -9.549  -1.096 122.899  0.00  0.00    +0.000 NA
ATOM     19  H   UNL     1      -9.546  -0.203 123.387  0.00  0.00    +0.000 HD
ATOM     20  H   UNL     1     -10.511  -1.419 122.824  0.00  0.00    +0.000 HD
ENDBRANCH  17  18
BRANCH  17  21
ATOM     21  C   UNL     1      -9.009  -2.047 125.140  0.00  0.00    +0.000 C 
ATOM     22  O   UNL     1      -9.599  -1.156 125.713  0.00  0.00    +0.000 OA
BRANCH  21  23
ATOM     23  O   UNL     1      -8.480  -3.159 125.751  0.00  0.00    +0.000 OA
BRANCH  23  25
ATOM     24  C   UNL     1      -8.940  -3.955 127.980  0.00  0.00    +0.000 C 
ATOM     25  C   UNL     1      -8.183  -2.946 127.137  0.00  0.00    +0.000 C 
ENDBRANCH  23  25
ENDBRANCH  21  23
ENDBRANCH  17  21
ENDBRANCH  16  17
ENDBRANCH  10  16
ENDBRANCH   1  13
BRANCH   6  26
ATOM     26  O   UNL     1      -6.106   5.063 128.819  0.00  0.00    +0.000 OA
BRANCH  26  27
ATOM     27  C   UNL     1      -6.733   4.499 130.019  0.00  0.00    +0.000 C 
BRANCH  27  28
ATOM     28  C   UNL     1      -8.131   4.948 130.427  0.00  0.00    +0.000 A 
ATOM     29  C   UNL     1      -8.361   6.330 130.512  0.00  0.00    +0.000 A 
ATOM     30  C   UNL     1      -9.647   6.840 130.558  0.00  0.00    +0.000 A 
ATOM     31  C   UNL     1     -10.724   5.970 130.597  0.00  0.00    +0.000 A 
ATOM     32 CL   UNL     1     -12.309   6.610 130.432  0.00  0.00    +0.000 Cl
ATOM     33  C   UNL     1     -10.516   4.599 130.738  0.00  0.00    +0.000 A 
ATOM     34  C   UNL     1      -9.212   4.083 130.671  0.00  0.00    +0.000 A 
BRANCH  34  35
ATOM     35  N   UNL     1      -9.023   2.707 130.939  0.00  0.00    +0.000 N 
ATOM     36  C   UNL     1      -9.457   2.023 132.051  0.00  0.00    +0.000 A 
ATOM     37  C   UNL     1      -9.102   0.712 131.894  0.00  0.00    +0.000 A 
ATOM     38  C   UNL     1      -8.472   0.675 130.642  0.00  0.00    +0.000 A 
ATOM     39  C   UNL     1      -7.917  -0.527 129.988  0.00  0.00    +0.000 C 
ATOM     40  N   UNL     1      -8.463   1.870 130.036  0.00  0.00    +0.000 NA
ENDBRANCH  34  35
ENDBRANCH  27  28
BRANCH  27  41
ATOM     41  C   UNL     1      -5.839   4.715 131.269  0.00  0.00    +0.000 C 
ATOM     42  F   UNL     1      -4.728   3.943 131.247  0.00  0.00    +0.000 F 
ATOM     43  F   UNL     1      -5.394   5.993 131.365  0.00  0.00    +0.000 F 
ATOM     44  F   UNL     1      -6.494   4.461 132.423  0.00  0.00    +0.000 F 
ENDBRANCH  27  41
ENDBRANCH  26  27
ENDBRANCH   6  26
TORSDOF 12
ENDMDL
MODEL 8
REMARK VINA RESULT:      -8.3      5.256      8.130
REMARK  Name = Telotristat ethyl
REMARK  14 active torsions:
REMARK  status: ('A' for Active; 'I' for Inactive)
REMARK    1  A    between atoms: C_1  and  C_2
REMARK    2  A    between atoms: C_2  and  O_3
REMARK    3  A    between atoms: O_3  and  C_4
REMARK    4  A    between atoms: C_4  and  C_6
REMARK    5  A    between atoms: C_6  and  N_7
REMARK    6  A    between atoms: C_6  and  C_8
REMARK    7  A    between atoms: C_8  and  C_9
REMARK    8  A    between atoms: C_12  and  C_15
REMARK    9  A    between atoms: C_20  and  O_21
REMARK   10  A    between atoms: O_21  and  C_22
REMARK   11  A    between atoms: C_22  and  C_23
REMARK   12  A    between atoms: C_22  and  C_36
REMARK   13  A    between atoms: C_29  and  N_30
REMARK   14  A    between atoms: C_33  and  C_34
REMARK                            x       y       z     vdW  Elec       q    Type
REMARK                         _______ _______ _______ _____ _____    ______ ____
ROOT
ATOM      1  C   UNL     1      -7.516  -2.057 126.606  0.00  0.00    +0.000 A 
ATOM      2  N   UNL     1      -8.225  -2.937 125.887  0.00  0.00    +0.000 NA
ATOM      3  C   UNL     1      -9.000  -2.410 124.965  0.00  0.00    +0.000 A 
ATOM      4  N   UNL     1      -9.648  -3.293 124.150  0.00  0.00    +0.000 N 
ATOM      5  N   UNL     1      -9.088  -1.092 124.724  0.00  0.00    +0.000 NA
ATOM      6  C   UNL     1      -8.176  -0.285 125.279  0.00  0.00    +0.000 A 
ATOM      7  C   UNL     1      -7.391  -0.717 126.301  0.00  0.00    +0.000 A 
ATOM      8  H   UNL     1      -9.552  -4.275 124.344  0.00  0.00    +0.000 HD
ATOM      9  H   UNL     1     -10.341  -2.940 123.516  0.00  0.00    +0.000 HD
ENDROOT
BRANCH   1  13
ATOM     10  C   UNL     1      -5.790  -3.488 130.184  0.00  0.00    +0.000 A 
ATOM     11  C   UNL     1      -7.162  -3.635 129.960  0.00  0.00    +0.000 A 
ATOM     12  C   UNL     1      -7.697  -3.245 128.743  0.00  0.00    +0.000 A 
ATOM     13  C   UNL     1      -6.897  -2.599 127.790  0.00  0.00    +0.000 A 
ATOM     14  C   UNL     1      -5.532  -2.447 128.008  0.00  0.00    +0.000 A 
ATOM     15  C   UNL     1      -4.994  -2.863 129.210  0.00  0.00    +0.000 A 
BRANCH  10  16
ATOM     16  C   UNL     1      -5.171  -4.073 131.434  0.00  0.00    +0.000 C 
BRANCH  16  17
ATOM     17  C   UNL     1      -3.959  -3.272 131.960  0.00  0.00    +0.000 C 
BRANCH  17  18
ATOM     18  N   UNL     1      -3.065  -4.141 132.765  0.00  0.00    +0.000 NA
ATOM     19  H   UNL     1      -2.766  -4.942 132.212  0.00  0.00    +0.000 HD
ATOM     20  H   UNL     1      -3.548  -4.481 133.592  0.00  0.00    +0.000 HD
ENDBRANCH  17  18
BRANCH  17  21
ATOM     21  C   UNL     1      -4.438  -2.059 132.765  0.00  0.00    +0.000 C 
ATOM     22  O   UNL     1      -3.972  -0.943 132.683  0.00  0.00    +0.000 OA
BRANCH  21  23
ATOM     23  O   UNL     1      -5.458  -2.424 133.610  0.00  0.00    +0.000 OA
BRANCH  23  25
ATOM     24  C   UNL     1      -7.535  -1.429 132.893  0.00  0.00    +0.000 C 
ATOM     25  C   UNL     1      -6.377  -1.355 133.870  0.00  0.00    +0.000 C 
ENDBRANCH  23  25
ENDBRANCH  21  23
ENDBRANCH  17  21
ENDBRANCH  16  17
ENDBRANCH  10  16
ENDBRANCH   1  13
BRANCH   6  26
ATOM     26  O   UNL     1      -7.935   0.999 124.821  0.00  0.00    +0.000 OA
BRANCH  26  27
ATOM     27  C   UNL     1      -7.883   1.407 123.412  0.00  0.00    +0.000 C 
BRANCH  27  28
ATOM     28  C   UNL     1      -6.789   2.356 122.938  0.00  0.00    +0.000 A 
ATOM     29  C   UNL     1      -6.297   2.169 121.637  0.00  0.00    +0.000 A 
ATOM     30  C   UNL     1      -5.551   3.150 121.007  0.00  0.00    +0.000 A 
ATOM     31  C   UNL     1      -5.220   4.304 121.698  0.00  0.00    +0.000 A 
ATOM     32 CL   UNL     1      -4.488   5.600 120.840  0.00  0.00    +0.000 Cl
ATOM     33  C   UNL     1      -5.506   4.416 123.058  0.00  0.00    +0.000 A 
ATOM     34  C   UNL     1      -6.279   3.429 123.689  0.00  0.00    +0.000 A 
BRANCH  34  35
ATOM     35  N   UNL     1      -6.447   3.508 125.092  0.00  0.00    +0.000 N 
ATOM     36  C   UNL     1      -7.449   4.171 125.760  0.00  0.00    +0.000 A 
ATOM     37  C   UNL     1      -7.263   3.962 127.098  0.00  0.00    +0.000 A 
ATOM     38  C   UNL     1      -6.131   3.135 127.161  0.00  0.00    +0.000 A 
ATOM     39  C   UNL     1      -5.521   2.598 128.393  0.00  0.00    +0.000 C 
ATOM     40  N   UNL     1      -5.661   2.817 125.948  0.00  0.00    +0.000 NA
ENDBRANCH  34  35
ENDBRANCH  27  28
BRANCH  27  41
ATOM     41  C   UNL     1      -9.224   2.052 122.968  0.00  0.00    +0.000 C 
ATOM     42  F   UNL     1      -9.960   1.225 122.190  0.00  0.00    +0.000 F 
ATOM     43  F   UNL     1     -10.016   2.361 124.024  0.00  0.00    +0.000 F 
ATOM     44  F   UNL     1      -9.042   3.204 122.288  0.00  0.00    +0.000 F 
ENDBRANCH  27  41
ENDBRANCH  26  27
ENDBRANCH   6  26
TORSDOF 12
ENDMDL
MODEL 9
REMARK VINA RESULT:      -8.3      3.656      5.240
REMARK  Name = Telotristat ethyl
REMARK  14 active torsions:
REMARK  status: ('A' for Active; 'I' for Inactive)
REMARK    1  A    between atoms: C_1  and  C_2
REMARK    2  A    between atoms: C_2  and  O_3
REMARK    3  A    between atoms: O_3  and  C_4
REMARK    4  A    between atoms: C_4  and  C_6
REMARK    5  A    between atoms: C_6  and  N_7
REMARK    6  A    between atoms: C_6  and  C_8
REMARK    7  A    between atoms: C_8  and  C_9
REMARK    8  A    between atoms: C_12  and  C_15
REMARK    9  A    between atoms: C_20  and  O_21
REMARK   10  A    between atoms: O_21  and  C_22
REMARK   11  A    between atoms: C_22  and  C_23
REMARK   12  A    between atoms: C_22  and  C_36
REMARK   13  A    between atoms: C_29  and  N_30
REMARK   14  A    between atoms: C_33  and  C_34
REMARK                            x       y       z     vdW  Elec       q    Type
REMARK                         _______ _______ _______ _____ _____    ______ ____
ROOT
ATOM      1  C   UNL     1      -5.184   3.466 127.005  0.00  0.00    +0.000 A 
ATOM      2  N   UNL     1      -4.026   2.830 126.783  0.00  0.00    +0.000 NA
ATOM      3  C   UNL     1      -2.946   3.512 127.092  0.00  0.00    +0.000 A 
ATOM      4  N   UNL     1      -1.761   2.843 126.974  0.00  0.00    +0.000 N 
ATOM      5  N   UNL     1      -2.963   4.751 127.608  0.00  0.00    +0.000 NA
ATOM      6  C   UNL     1      -4.129   5.234 128.054  0.00  0.00    +0.000 A 
ATOM      7  C   UNL     1      -5.306   4.646 127.710  0.00  0.00    +0.000 A 
ATOM      8  H   UNL     1      -1.779   1.910 126.599  0.00  0.00    +0.000 HD
ATOM      9  H   UNL     1      -0.907   3.358 127.081  0.00  0.00    +0.000 HD
ENDROOT
BRANCH   1  13
ATOM     10  C   UNL     1      -8.674   1.840 125.272  0.00  0.00    +0.000 A 
ATOM     11  C   UNL     1      -7.880   2.731 124.544  0.00  0.00    +0.000 A 
ATOM     12  C   UNL     1      -6.690   3.183 125.092  0.00  0.00    +0.000 A 
ATOM     13  C   UNL     1      -6.342   2.848 126.408  0.00  0.00    +0.000 A 
ATOM     14  C   UNL     1      -7.129   1.965 127.138  0.00  0.00    +0.000 A 
ATOM     15  C   UNL     1      -8.300   1.492 126.580  0.00  0.00    +0.000 A 
BRANCH  10  16
ATOM     16  C   UNL     1      -9.878   1.205 124.614  0.00  0.00    +0.000 C 
BRANCH  16  17
ATOM     17  C   UNL     1      -9.573   0.579 123.234  0.00  0.00    +0.000 C 
BRANCH  17  18
ATOM     18  N   UNL     1     -10.830   0.284 122.502  0.00  0.00    +0.000 NA
ATOM     19  H   UNL     1     -11.448  -0.280 123.082  0.00  0.00    +0.000 HD
ATOM     20  H   UNL     1     -10.633  -0.228 121.646  0.00  0.00    +0.000 HD
ENDBRANCH  17  18
BRANCH  17  21
ATOM     21  C   UNL     1      -8.713  -0.678 123.404  0.00  0.00    +0.000 C 
ATOM     22  O   UNL     1      -7.527  -0.746 123.162  0.00  0.00    +0.000 OA
BRANCH  21  23
ATOM     23  O   UNL     1      -9.485  -1.725 123.848  0.00  0.00    +0.000 OA
BRANCH  23  25
ATOM     24  C   UNL     1      -8.423  -3.739 124.641  0.00  0.00    +0.000 C 
ATOM     25  C   UNL     1      -8.944  -2.363 125.011  0.00  0.00    +0.000 C 
ENDBRANCH  23  25
ENDBRANCH  21  23
ENDBRANCH  17  21
ENDBRANCH  16  17
ENDBRANCH  10  16
ENDBRANCH   1  13
BRANCH   6  26
ATOM     26  O   UNL     1      -4.210   6.307 128.924  0.00  0.00    +0.000 OA
BRANCH  26  27
ATOM     27  C   UNL     1      -4.221   6.220 130.389  0.00  0.00    +0.000 C 
BRANCH  27  28
ATOM     28  C   UNL     1      -5.548   6.203 131.138  0.00  0.00    +0.000 A 
ATOM     29  C   UNL     1      -6.513   7.146 130.753  0.00  0.00    +0.000 A 
ATOM     30  C   UNL     1      -7.836   7.013 131.137  0.00  0.00    +0.000 A 
ATOM     31  C   UNL     1      -8.201   5.973 131.977  0.00  0.00    +0.000 A 
ATOM     32 CL   UNL     1      -9.870   5.691 132.265  0.00  0.00    +0.000 Cl
ATOM     33  C   UNL     1      -7.227   5.157 132.549  0.00  0.00    +0.000 A 
ATOM     34  C   UNL     1      -5.889   5.281 132.143  0.00  0.00    +0.000 A 
BRANCH  34  35
ATOM     35  N   UNL     1      -4.909   4.526 132.831  0.00  0.00    +0.000 N 
ATOM     36  C   UNL     1      -4.261   4.888 133.988  0.00  0.00    +0.000 A 
ATOM     37  C   UNL     1      -3.427   3.860 134.333  0.00  0.00    +0.000 A 
ATOM     38  C   UNL     1      -3.647   2.893 133.340  0.00  0.00    +0.000 A 
ATOM     39  C   UNL     1      -2.998   1.569 133.265  0.00  0.00    +0.000 C 
ATOM     40  N   UNL     1      -4.578   3.270 132.454  0.00  0.00    +0.000 NA
ENDBRANCH  34  35
ENDBRANCH  27  28
BRANCH  27  41
ATOM     41  C   UNL     1      -3.393   7.370 131.023  0.00  0.00    +0.000 C 
ATOM     42  F   UNL     1      -3.578   8.549 130.384  0.00  0.00    +0.000 F 
ATOM     43  F   UNL     1      -3.738   7.597 132.314  0.00  0.00    +0.000 F 
ATOM     44  F   UNL     1      -2.069   7.109 131.031  0.00  0.00    +0.000 F 
ENDBRANCH  27  41
ENDBRANCH  26  27
ENDBRANCH   6  26
TORSDOF 12
ENDMDL
