MODEL 1
REMARK VINA RESULT:      -8.3      0.000      0.000
REMARK  Name = Temazepam
REMARK  3 active torsions:
REMARK  status: ('A' for Active; 'I' for Inactive)
REMARK    1  A    between atoms: C_1  and  N_2
REMARK    2  A    between atoms: C_10  and  C_16
REMARK    3  A    between atoms: C_12  and  O_13
REMARK                            x       y       z     vdW  Elec       q    Type
REMARK                         _______ _______ _______ _____ _____    ______ ____
ROOT
ATOM      1  C   UNL     1      -7.244  -1.547 123.857  0.00  0.00    +0.000 C 
ATOM      2  N   UNL     1      -7.928  -0.260 123.828  0.00  0.00    +0.000 N 
ATOM      3  C   UNL     1      -7.240   0.901 124.277  0.00  0.00    +0.000 A 
ATOM      4  C   UNL     1      -7.359   2.165 123.669  0.00  0.00    +0.000 A 
ATOM      5  C   UNL     1      -6.595   3.247 124.146  0.00  0.00    +0.000 A 
ATOM      6  C   UNL     1      -5.734   3.082 125.227  0.00  0.00    +0.000 A 
ATOM      7 CL   UNL     1      -4.807   4.411 125.799  0.00  0.00    +0.000 Cl
ATOM      8  C   UNL     1      -5.623   1.848 125.849  0.00  0.00    +0.000 A 
ATOM      9  C   UNL     1      -6.369   0.769 125.375  0.00  0.00    +0.000 A 
ATOM     10  C   UNL     1      -8.216   2.408 122.474  0.00  0.00    +0.000 C 
ATOM     11  N   UNL     1      -9.395   1.924 122.290  0.00  0.00    +0.000 NA
ATOM     12  C   UNL     1     -10.005   1.076 123.303  0.00  0.00    +0.000 C 
ATOM     13  C   UNL     1      -9.238  -0.270 123.352  0.00  0.00    +0.000 C 
ATOM     14  O   UNL     1      -9.790  -1.331 123.018  0.00  0.00    +0.000 OA
ENDROOT
BRANCH  10  15
ATOM     15  C   UNL     1      -7.687   3.288 121.393  0.00  0.00    +0.000 A 
ATOM     16  C   UNL     1      -8.568   3.802 120.437  0.00  0.00    +0.000 A 
ATOM     17  C   UNL     1      -8.065   4.507 119.342  0.00  0.00    +0.000 A 
ATOM     18  C   UNL     1      -6.698   4.769 119.251  0.00  0.00    +0.000 A 
ATOM     19  C   UNL     1      -5.833   4.340 120.259  0.00  0.00    +0.000 A 
ATOM     20  C   UNL     1      -6.318   3.559 121.309  0.00  0.00    +0.000 A 
ENDBRANCH  10  15
BRANCH  12  21
ATOM     21  O   UNL     1     -11.373   0.818 123.010  0.00  0.00    +0.000 OA
ATOM     22  H   UNL     1     -11.559  -0.003 123.504  0.00  0.00    +0.000 HD
ENDBRANCH  12  21
TORSDOF 2
ENDMDL
MODEL 2
REMARK VINA RESULT:      -7.7      2.991      5.083
REMARK  Name = Temazepam
REMARK  3 active torsions:
REMARK  status: ('A' for Active; 'I' for Inactive)
REMARK    1  A    between atoms: C_1  and  N_2
REMARK    2  A    between atoms: C_10  and  C_16
REMARK    3  A    between atoms: C_12  and  O_13
REMARK                            x       y       z     vdW  Elec       q    Type
REMARK                         _______ _______ _______ _____ _____    ______ ____
ROOT
ATOM      1  C   UNL     1      -4.041   3.396 126.217  0.00  0.00    +0.000 C 
ATOM      2  N   UNL     1      -5.434   3.244 125.817  0.00  0.00    +0.000 N 
ATOM      3  C   UNL     1      -5.779   3.370 124.443  0.00  0.00    +0.000 A 
ATOM      4  C   UNL     1      -6.746   2.573 123.802  0.00  0.00    +0.000 A 
ATOM      5  C   UNL     1      -6.982   2.729 122.423  0.00  0.00    +0.000 A 
ATOM      6  C   UNL     1      -6.277   3.679 121.689  0.00  0.00    +0.000 A 
ATOM      7 CL   UNL     1      -6.574   3.858 120.006  0.00  0.00    +0.000 Cl
ATOM      8  C   UNL     1      -5.336   4.485 122.312  0.00  0.00    +0.000 A 
ATOM      9  C   UNL     1      -5.090   4.329 123.675  0.00  0.00    +0.000 A 
ATOM     10  C   UNL     1      -7.502   1.499 124.507  0.00  0.00    +0.000 C 
ATOM     11  N   UNL     1      -7.988   1.585 125.697  0.00  0.00    +0.000 NA
ATOM     12  C   UNL     1      -7.837   2.813 126.462  0.00  0.00    +0.000 C 
ATOM     13  C   UNL     1      -6.344   2.982 126.840  0.00  0.00    +0.000 C 
ATOM     14  O   UNL     1      -5.976   2.929 128.026  0.00  0.00    +0.000 OA
ENDROOT
BRANCH  10  15
ATOM     15  C   UNL     1      -7.731   0.211 123.791  0.00  0.00    +0.000 A 
ATOM     16  C   UNL     1      -9.033  -0.152 123.435  0.00  0.00    +0.000 A 
ATOM     17  C   UNL     1      -9.275  -1.416 122.895  0.00  0.00    +0.000 A 
ATOM     18  C   UNL     1      -8.209  -2.277 122.632  0.00  0.00    +0.000 A 
ATOM     19  C   UNL     1      -6.899  -1.872 122.895  0.00  0.00    +0.000 A 
ATOM     20  C   UNL     1      -6.660  -0.646 123.518  0.00  0.00    +0.000 A 
ENDBRANCH  10  15
BRANCH  12  21
ATOM     21  O   UNL     1      -8.615   2.782 127.653  0.00  0.00    +0.000 OA
ATOM     22  H   UNL     1      -9.521   2.631 127.328  0.00  0.00    +0.000 HD
ENDBRANCH  12  21
TORSDOF 2
ENDMDL
MODEL 3
REMARK VINA RESULT:      -7.7      3.494      4.458
REMARK  Name = Temazepam
REMARK  3 active torsions:
REMARK  status: ('A' for Active; 'I' for Inactive)
REMARK    1  A    between atoms: C_1  and  N_2
REMARK    2  A    between atoms: C_10  and  C_16
REMARK    3  A    between atoms: C_12  and  O_13
REMARK                            x       y       z     vdW  Elec       q    Type
REMARK                         _______ _______ _______ _____ _____    ______ ____
ROOT
ATOM      1  C   UNL     1      -8.249   2.782 127.530  0.00  0.00    +0.000 C 
ATOM      2  N   UNL     1      -7.208   2.623 126.522  0.00  0.00    +0.000 N 
ATOM      3  C   UNL     1      -7.293   1.542 125.601  0.00  0.00    +0.000 A 
ATOM      4  C   UNL     1      -6.936   1.641 124.243  0.00  0.00    +0.000 A 
ATOM      5  C   UNL     1      -7.107   0.534 123.390  0.00  0.00    +0.000 A 
ATOM      6  C   UNL     1      -7.613  -0.665 123.884  0.00  0.00    +0.000 A 
ATOM      7 CL   UNL     1      -7.818  -2.008 122.831  0.00  0.00    +0.000 Cl
ATOM      8  C   UNL     1      -7.950  -0.783 125.224  0.00  0.00    +0.000 A 
ATOM      9  C   UNL     1      -7.792   0.313 126.071  0.00  0.00    +0.000 A 
ATOM     10  C   UNL     1      -6.440   2.906 123.629  0.00  0.00    +0.000 C 
ATOM     11  N   UNL     1      -5.607   3.725 124.174  0.00  0.00    +0.000 NA
ATOM     12  C   UNL     1      -5.053   3.439 125.488  0.00  0.00    +0.000 C 
ATOM     13  C   UNL     1      -6.183   3.567 126.542  0.00  0.00    +0.000 C 
ATOM     14  O   UNL     1      -6.150   4.460 127.405  0.00  0.00    +0.000 OA
ENDROOT
BRANCH  10  15
ATOM     15  C   UNL     1      -6.932   3.271 122.269  0.00  0.00    +0.000 A 
ATOM     16  C   UNL     1      -6.007   3.599 121.273  0.00  0.00    +0.000 A 
ATOM     17  C   UNL     1      -6.459   4.078 120.043  0.00  0.00    +0.000 A 
ATOM     18  C   UNL     1      -7.827   4.146 119.781  0.00  0.00    +0.000 A 
ATOM     19  C   UNL     1      -8.747   3.722 120.743  0.00  0.00    +0.000 A 
ATOM     20  C   UNL     1      -8.304   3.327 122.006  0.00  0.00    +0.000 A 
ENDBRANCH  10  15
BRANCH  12  21
ATOM     21  O   UNL     1      -4.007   4.344 125.820  0.00  0.00    +0.000 OA
ATOM     22  H   UNL     1      -3.969   4.299 126.793  0.00  0.00    +0.000 HD
ENDBRANCH  12  21
TORSDOF 2
ENDMDL
MODEL 4
REMARK VINA RESULT:      -7.6      7.837      9.055
REMARK  Name = Temazepam
REMARK  3 active torsions:
REMARK  status: ('A' for Active; 'I' for Inactive)
REMARK    1  A    between atoms: C_1  and  N_2
REMARK    2  A    between atoms: C_10  and  C_16
REMARK    3  A    between atoms: C_12  and  O_13
REMARK                            x       y       z     vdW  Elec       q    Type
REMARK                         _______ _______ _______ _____ _____    ______ ____
ROOT
ATOM      1  C   UNL     1      -9.738   1.920 132.177  0.00  0.00    +0.000 C 
ATOM      2  N   UNL     1      -9.262   3.271 131.913  0.00  0.00    +0.000 N 
ATOM      3  C   UNL     1      -8.802   3.602 130.608  0.00  0.00    +0.000 A 
ATOM      4  C   UNL     1      -9.042   4.841 129.984  0.00  0.00    +0.000 A 
ATOM      5  C   UNL     1      -8.598   5.060 128.667  0.00  0.00    +0.000 A 
ATOM      6  C   UNL     1      -7.907   4.066 127.980  0.00  0.00    +0.000 A 
ATOM      7 CL   UNL     1      -7.371   4.348 126.372  0.00  0.00    +0.000 Cl
ATOM      8  C   UNL     1      -7.645   2.849 128.590  0.00  0.00    +0.000 A 
ATOM      9  C   UNL     1      -8.091   2.621 129.891  0.00  0.00    +0.000 A 
ATOM     10  C   UNL     1      -9.822   5.933 130.633  0.00  0.00    +0.000 C 
ATOM     11  N   UNL     1      -9.733   6.282 131.870  0.00  0.00    +0.000 NA
ATOM     12  C   UNL     1      -8.797   5.606 132.755  0.00  0.00    +0.000 C 
ATOM     13  C   UNL     1      -9.294   4.157 132.989  0.00  0.00    +0.000 C 
ATOM     14  O   UNL     1      -9.668   3.785 134.114  0.00  0.00    +0.000 OA
ENDROOT
BRANCH  10  15
ATOM     15  C   UNL     1     -10.789   6.703 129.798  0.00  0.00    +0.000 A 
ATOM     16  C   UNL     1     -12.073   6.190 129.590  0.00  0.00    +0.000 A 
ATOM     17  C   UNL     1     -12.935   6.828 128.697  0.00  0.00    +0.000 A 
ATOM     18  C   UNL     1     -12.546   8.018 128.083  0.00  0.00    +0.000 A 
ATOM     19  C   UNL     1     -11.301   8.581 128.370  0.00  0.00    +0.000 A 
ATOM     20  C   UNL     1     -10.401   7.902 129.192  0.00  0.00    +0.000 A 
ENDBRANCH  10  15
BRANCH  12  21
ATOM     21  O   UNL     1      -8.697   6.269 134.011  0.00  0.00    +0.000 OA
ATOM     22  H   UNL     1      -7.738   6.409 134.116  0.00  0.00    +0.000 HD
ENDBRANCH  12  21
TORSDOF 2
ENDMDL
MODEL 5
REMARK VINA RESULT:      -7.2      7.578      9.586
REMARK  Name = Temazepam
REMARK  3 active torsions:
REMARK  status: ('A' for Active; 'I' for Inactive)
REMARK    1  A    between atoms: C_1  and  N_2
REMARK    2  A    between atoms: C_10  and  C_16
REMARK    3  A    between atoms: C_12  and  O_13
REMARK                            x       y       z     vdW  Elec       q    Type
REMARK                         _______ _______ _______ _____ _____    ______ ____
ROOT
ATOM      1  C   UNL     1      -3.396  -1.107 131.988  0.00  0.00    +0.000 C 
ATOM      2  N   UNL     1      -4.605  -1.918 131.919  0.00  0.00    +0.000 N 
ATOM      3  C   UNL     1      -5.873  -1.274 131.899  0.00  0.00    +0.000 A 
ATOM      4  C   UNL     1      -6.961  -1.713 131.121  0.00  0.00    +0.000 A 
ATOM      5  C   UNL     1      -8.162  -0.979 131.119  0.00  0.00    +0.000 A 
ATOM      6  C   UNL     1      -8.289   0.170 131.895  0.00  0.00    +0.000 A 
ATOM      7 CL   UNL     1      -9.762   1.056 131.883  0.00  0.00    +0.000 Cl
ATOM      8  C   UNL     1      -7.233   0.601 132.683  0.00  0.00    +0.000 A 
ATOM      9  C   UNL     1      -6.036  -0.115 132.680  0.00  0.00    +0.000 A 
ATOM     10  C   UNL     1      -6.884  -2.900 130.222  0.00  0.00    +0.000 C 
ATOM     11  N   UNL     1      -6.306  -4.015 130.506  0.00  0.00    +0.000 NA
ATOM     12  C   UNL     1      -5.674  -4.203 131.803  0.00  0.00    +0.000 C 
ATOM     13  C   UNL     1      -4.417  -3.299 131.878  0.00  0.00    +0.000 C 
ATOM     14  O   UNL     1      -3.280  -3.793 131.943  0.00  0.00    +0.000 OA
ENDROOT
BRANCH  10  15
ATOM     15  C   UNL     1      -7.528  -2.812 128.880  0.00  0.00    +0.000 A 
ATOM     16  C   UNL     1      -8.609  -3.649 128.584  0.00  0.00    +0.000 A 
ATOM     17  C   UNL     1      -9.126  -3.676 127.288  0.00  0.00    +0.000 A 
ATOM     18  C   UNL     1      -8.622  -2.809 126.318  0.00  0.00    +0.000 A 
ATOM     19  C   UNL     1      -7.610  -1.904 126.644  0.00  0.00    +0.000 A 
ATOM     20  C   UNL     1      -7.029  -1.934 127.913  0.00  0.00    +0.000 A 
ENDBRANCH  10  15
BRANCH  12  21
ATOM     21  O   UNL     1      -5.282  -5.557 132.000  0.00  0.00    +0.000 OA
ATOM     22  H   UNL     1      -4.543  -5.671 131.374  0.00  0.00    +0.000 HD
ENDBRANCH  12  21
TORSDOF 2
ENDMDL
MODEL 6
REMARK VINA RESULT:      -7.2      4.398      7.498
REMARK  Name = Temazepam
REMARK  3 active torsions:
REMARK  status: ('A' for Active; 'I' for Inactive)
REMARK    1  A    between atoms: C_1  and  N_2
REMARK    2  A    between atoms: C_10  and  C_16
REMARK    3  A    between atoms: C_12  and  O_13
REMARK                            x       y       z     vdW  Elec       q    Type
REMARK                         _______ _______ _______ _____ _____    ______ ____
ROOT
ATOM      1  C   UNL     1      -6.419   2.373 124.649  0.00  0.00    +0.000 C 
ATOM      2  N   UNL     1      -7.348   1.730 125.569  0.00  0.00    +0.000 N 
ATOM      3  C   UNL     1      -7.889   0.459 125.232  0.00  0.00    +0.000 A 
ATOM      4  C   UNL     1      -8.108  -0.571 126.167  0.00  0.00    +0.000 A 
ATOM      5  C   UNL     1      -8.594  -1.820 125.733  0.00  0.00    +0.000 A 
ATOM      6  C   UNL     1      -8.878  -2.038 124.389  0.00  0.00    +0.000 A 
ATOM      7 CL   UNL     1      -9.472  -3.567 123.874  0.00  0.00    +0.000 Cl
ATOM      8  C   UNL     1      -8.688  -1.026 123.461  0.00  0.00    +0.000 A 
ATOM      9  C   UNL     1      -8.196   0.209 123.881  0.00  0.00    +0.000 A 
ATOM     10  C   UNL     1      -7.776  -0.432 127.613  0.00  0.00    +0.000 C 
ATOM     11  N   UNL     1      -7.991   0.615 128.332  0.00  0.00    +0.000 NA
ATOM     12  C   UNL     1      -8.626   1.786 127.746  0.00  0.00    +0.000 C 
ATOM     13  C   UNL     1      -7.642   2.431 126.737  0.00  0.00    +0.000 C 
ATOM     14  O   UNL     1      -7.165   3.559 126.944  0.00  0.00    +0.000 OA
ENDROOT
BRANCH  10  15
ATOM     15  C   UNL     1      -7.147  -1.592 128.308  0.00  0.00    +0.000 A 
ATOM     16  C   UNL     1      -7.929  -2.396 129.142  0.00  0.00    +0.000 A 
ATOM     17  C   UNL     1      -7.323  -3.395 129.906  0.00  0.00    +0.000 A 
ATOM     18  C   UNL     1      -5.957  -3.643 129.771  0.00  0.00    +0.000 A 
ATOM     19  C   UNL     1      -5.197  -2.904 128.862  0.00  0.00    +0.000 A 
ATOM     20  C   UNL     1      -5.780  -1.846 128.162  0.00  0.00    +0.000 A 
ENDBRANCH  10  15
BRANCH  12  21
ATOM     21  O   UNL     1      -8.963   2.747 128.741  0.00  0.00    +0.000 OA
ATOM     22  H   UNL     1      -9.085   2.207 129.544  0.00  0.00    +0.000 HD
ENDBRANCH  12  21
TORSDOF 2
ENDMDL
MODEL 7
REMARK VINA RESULT:      -7.1      2.746      6.041
REMARK  Name = Temazepam
REMARK  3 active torsions:
REMARK  status: ('A' for Active; 'I' for Inactive)
REMARK    1  A    between atoms: C_1  and  N_2
REMARK    2  A    between atoms: C_10  and  C_16
REMARK    3  A    between atoms: C_12  and  O_13
REMARK                            x       y       z     vdW  Elec       q    Type
REMARK                         _______ _______ _______ _____ _____    ______ ____
ROOT
ATOM      1  C   UNL     1      -9.844   1.730 124.040  0.00  0.00    +0.000 C 
ATOM      2  N   UNL     1      -8.722   0.800 124.011  0.00  0.00    +0.000 N 
ATOM      3  C   UNL     1      -7.503   1.166 124.647  0.00  0.00    +0.000 A 
ATOM      4  C   UNL     1      -6.694   0.264 125.364  0.00  0.00    +0.000 A 
ATOM      5  C   UNL     1      -5.532   0.727 126.010  0.00  0.00    +0.000 A 
ATOM      6  C   UNL     1      -5.166   2.067 125.930  0.00  0.00    +0.000 A 
ATOM      7 CL   UNL     1      -3.744   2.618 126.724  0.00  0.00    +0.000 Cl
ATOM      8  C   UNL     1      -5.942   2.962 125.209  0.00  0.00    +0.000 A 
ATOM      9  C   UNL     1      -7.100   2.513 124.576  0.00  0.00    +0.000 A 
ATOM     10  C   UNL     1      -7.048  -1.173 125.541  0.00  0.00    +0.000 C 
ATOM     11  N   UNL     1      -7.539  -1.939 124.630  0.00  0.00    +0.000 NA
ATOM     12  C   UNL     1      -7.772  -1.425 123.289  0.00  0.00    +0.000 C 
ATOM     13  C   UNL     1      -8.938  -0.405 123.345  0.00  0.00    +0.000 C 
ATOM     14  O   UNL     1     -10.016  -0.637 122.774  0.00  0.00    +0.000 OA
ENDROOT
BRANCH  10  15
ATOM     15  C   UNL     1      -6.818  -1.797 126.876  0.00  0.00    +0.000 A 
ATOM     16  C   UNL     1      -7.896  -1.952 127.753  0.00  0.00    +0.000 A 
ATOM     17  C   UNL     1      -7.668  -2.403 129.054  0.00  0.00    +0.000 A 
ATOM     18  C   UNL     1      -6.383  -2.777 129.447  0.00  0.00    +0.000 A 
ATOM     19  C   UNL     1      -5.325  -2.715 128.537  0.00  0.00    +0.000 A 
ATOM     20  C   UNL     1      -5.531  -2.182 127.263  0.00  0.00    +0.000 A 
ENDBRANCH  10  15
BRANCH  12  21
ATOM     21  O   UNL     1      -8.114  -2.468 122.384  0.00  0.00    +0.000 OA
ATOM     22  H   UNL     1      -8.241  -2.001 121.537  0.00  0.00    +0.000 HD
ENDBRANCH  12  21
TORSDOF 2
ENDMDL
MODEL 8
REMARK VINA RESULT:      -7.1      1.596      2.154
REMARK  Name = Temazepam
REMARK  3 active torsions:
REMARK  status: ('A' for Active; 'I' for Inactive)
REMARK    1  A    between atoms: C_1  and  N_2
REMARK    2  A    between atoms: C_10  and  C_16
REMARK    3  A    between atoms: C_12  and  O_13
REMARK                            x       y       z     vdW  Elec       q    Type
REMARK                         _______ _______ _______ _____ _____    ______ ____
ROOT
ATOM      1  C   UNL     1      -7.483  -2.578 124.059  0.00  0.00    +0.000 C 
ATOM      2  N   UNL     1      -7.869  -1.189 124.275  0.00  0.00    +0.000 N 
ATOM      3  C   UNL     1      -7.054  -0.363 125.098  0.00  0.00    +0.000 A 
ATOM      4  C   UNL     1      -6.793   0.994 124.829  0.00  0.00    +0.000 A 
ATOM      5  C   UNL     1      -5.926   1.720 125.668  0.00  0.00    +0.000 A 
ATOM      6  C   UNL     1      -5.338   1.112 126.773  0.00  0.00    +0.000 A 
ATOM      7 CL   UNL     1      -4.283   2.010 127.788  0.00  0.00    +0.000 Cl
ATOM      8  C   UNL     1      -5.604  -0.218 127.062  0.00  0.00    +0.000 A 
ATOM      9  C   UNL     1      -6.452  -0.947 126.229  0.00  0.00    +0.000 A 
ATOM     10  C   UNL     1      -7.340   1.700 123.636  0.00  0.00    +0.000 C 
ATOM     11  N   UNL     1      -8.537   1.574 123.177  0.00  0.00    +0.000 NA
ATOM     12  C   UNL     1      -9.488   0.699 123.845  0.00  0.00    +0.000 C 
ATOM     13  C   UNL     1      -9.038  -0.770 123.644  0.00  0.00    +0.000 C 
ATOM     14  O   UNL     1      -9.724  -1.560 122.974  0.00  0.00    +0.000 OA
ENDROOT
BRANCH  10  15
ATOM     15  C   UNL     1      -6.446   2.640 122.900  0.00  0.00    +0.000 A 
ATOM     16  C   UNL     1      -5.894   3.731 123.579  0.00  0.00    +0.000 A 
ATOM     17  C   UNL     1      -5.174   4.693 122.869  0.00  0.00    +0.000 A 
ATOM     18  C   UNL     1      -4.934   4.519 121.506  0.00  0.00    +0.000 A 
ATOM     19  C   UNL     1      -5.402   3.377 120.852  0.00  0.00    +0.000 A 
ATOM     20  C   UNL     1      -6.198   2.457 121.537  0.00  0.00    +0.000 A 
ENDBRANCH  10  15
BRANCH  12  21
ATOM     21  O   UNL     1     -10.800   0.858 123.317  0.00  0.00    +0.000 OA
ATOM     22  H   UNL     1     -10.933   0.045 122.794  0.00  0.00    +0.000 HD
ENDBRANCH  12  21
TORSDOF 2
ENDMDL
MODEL 9
REMARK VINA RESULT:      -7.0      3.408      6.962
REMARK  Name = Temazepam
REMARK  3 active torsions:
REMARK  status: ('A' for Active; 'I' for Inactive)
REMARK    1  A    between atoms: C_1  and  N_2
REMARK    2  A    between atoms: C_10  and  C_16
REMARK    3  A    between atoms: C_12  and  O_13
REMARK                            x       y       z     vdW  Elec       q    Type
REMARK                         _______ _______ _______ _____ _____    ______ ____
ROOT
ATOM      1  C   UNL     1      -8.373   0.448 123.503  0.00  0.00    +0.000 C 
ATOM      2  N   UNL     1      -7.180  -0.172 124.065  0.00  0.00    +0.000 N 
ATOM      3  C   UNL     1      -6.502   0.472 125.137  0.00  0.00    +0.000 A 
ATOM      4  C   UNL     1      -5.924  -0.214 126.222  0.00  0.00    +0.000 A 
ATOM      5  C   UNL     1      -5.323   0.510 127.269  0.00  0.00    +0.000 A 
ATOM      6  C   UNL     1      -5.280   1.901 127.233  0.00  0.00    +0.000 A 
ATOM      7 CL   UNL     1      -4.544   2.772 128.518  0.00  0.00    +0.000 Cl
ATOM      8  C   UNL     1      -5.827   2.589 126.160  0.00  0.00    +0.000 A 
ATOM      9  C   UNL     1      -6.434   1.878 125.125  0.00  0.00    +0.000 A 
ATOM     10  C   UNL     1      -5.977  -1.697 126.360  0.00  0.00    +0.000 C 
ATOM     11  N   UNL     1      -5.809  -2.543 125.403  0.00  0.00    +0.000 NA
ATOM     12  C   UNL     1      -5.521  -2.076 124.055  0.00  0.00    +0.000 C 
ATOM     13  C   UNL     1      -6.785  -1.379 123.490  0.00  0.00    +0.000 C 
ATOM     14  O   UNL     1      -7.401  -1.861 122.526  0.00  0.00    +0.000 OA
ENDROOT
BRANCH  10  15
ATOM     15  C   UNL     1      -6.241  -2.271 127.711  0.00  0.00    +0.000 A 
ATOM     16  C   UNL     1      -5.165  -2.704 128.492  0.00  0.00    +0.000 A 
ATOM     17  C   UNL     1      -5.408  -3.371 129.693  0.00  0.00    +0.000 A 
ATOM     18  C   UNL     1      -6.716  -3.528 130.151  0.00  0.00    +0.000 A 
ATOM     19  C   UNL     1      -7.783  -3.006 129.417  0.00  0.00    +0.000 A 
ATOM     20  C   UNL     1      -7.552  -2.417 128.173  0.00  0.00    +0.000 A 
ENDBRANCH  10  15
BRANCH  12  21
ATOM     21  O   UNL     1      -5.164  -3.153 123.197  0.00  0.00    +0.000 OA
ATOM     22  H   UNL     1      -5.959  -3.717 123.199  0.00  0.00    +0.000 HD
ENDBRANCH  12  21
TORSDOF 2
ENDMDL
