MODEL 1
REMARK VINA RESULT:      -7.3      0.000      0.000
REMARK  Name = Temocillin
REMARK  11 active torsions:
REMARK  status: ('A' for Active; 'I' for Inactive)
REMARK    1  A    between atoms: C_1  and  O_2
REMARK    2  A    between atoms: O_2  and  C_3
REMARK    3  A    between atoms: C_3  and  N_4
REMARK    4  A    between atoms: C_5  and  C_7
REMARK    5  A    between atoms: C_7  and  C_8
REMARK    6  A    between atoms: C_7  and  C_11
REMARK    7  A    between atoms: C_8  and  O_9
REMARK    8  A    between atoms: C_18  and  C_19
REMARK    9  A    between atoms: C_18  and  C_20
REMARK   10  A    between atoms: C_21  and  C_25
REMARK   11  A    between atoms: C_25  and  O_26
REMARK                            x       y       z     vdW  Elec       q    Type
REMARK                         _______ _______ _______ _____ _____    ______ ____
ROOT
ATOM      1  C   UNL     1      -7.568  -0.816 124.324  0.00  0.00    +0.000 C 
ATOM      2  C   UNL     1      -6.530  -1.274 125.399  0.00  0.00    +0.000 C 
ATOM      3  S   UNL     1      -6.006  -0.003 126.625  0.00  0.00    +0.000 S 
ATOM      4  C   UNL     1      -6.444  -1.131 128.034  0.00  0.00    +0.000 C 
ATOM      5  C   UNL     1      -6.724  -0.233 129.240  0.00  0.00    +0.000 C 
ATOM      6  C   UNL     1      -5.179  -1.989 128.198  0.00  0.00    +0.000 C 
ATOM      7  C   UNL     1      -7.706  -1.886 127.558  0.00  0.00    +0.000 C 
ATOM      8  N   UNL     1      -7.554  -2.061 126.101  0.00  0.00    +0.000 N 
ATOM      9  C   UNL     1      -8.568  -1.702 125.250  0.00  0.00    +0.000 C 
ATOM     10  O   UNL     1      -9.759  -1.927 125.381  0.00  0.00    +0.000 OA
ENDROOT
BRANCH   1  11
ATOM     11  N   UNL     1      -7.764   0.678 124.334  0.00  0.00    +0.000 N 
ATOM     12  C   UNL     1      -8.790   1.214 123.610  0.00  0.00    +0.000 C 
ATOM     13  O   UNL     1      -9.644   0.483 123.123  0.00  0.00    +0.000 OA
ATOM     14  H   UNL     1      -6.928   1.247 124.452  0.00  0.00    +0.000 HD
BRANCH  12  15
ATOM     15  C   UNL     1      -8.793   2.726 123.419  0.00  0.00    +0.000 C 
BRANCH  15  16
ATOM     16  C   UNL     1      -7.893   3.134 122.254  0.00  0.00    +0.000 A 
ATOM     17  C   UNL     1      -6.509   2.996 122.221  0.00  0.00    +0.000 A 
ATOM     18  S   UNL     1      -5.790   3.617 120.808  0.00  0.00    +0.000 S 
ATOM     19  C   UNL     1      -7.313   4.005 120.160  0.00  0.00    +0.000 A 
ATOM     20  C   UNL     1      -8.346   3.653 120.996  0.00  0.00    +0.000 A 
ENDBRANCH  15  16
BRANCH  15  21
ATOM     21  C   UNL     1      -8.529   3.397 124.762  0.00  0.00    +0.000 C 
ATOM     22  O   UNL     1      -8.763   2.809 125.819  0.00  0.00    +0.000 OA
BRANCH  21  23
ATOM     23  O   UNL     1      -8.025   4.646 124.794  0.00  0.00    +0.000 OA
ATOM     24  H   UNL     1      -8.419   5.299 124.184  0.00  0.00    +0.000 HD
ENDBRANCH  21  23
ENDBRANCH  15  21
ENDBRANCH  12  15
ENDBRANCH   1  11
BRANCH   1  26
ATOM     25  C   UNL     1      -6.157  -2.084 122.778  0.00  0.00    +0.000 C 
ATOM     26  O   UNL     1      -7.361  -1.345 122.975  0.00  0.00    +0.000 OA
ENDBRANCH   1  26
BRANCH   7  27
ATOM     27  C   UNL     1      -8.086  -3.226 128.237  0.00  0.00    +0.000 C 
ATOM     28  O   UNL     1      -7.586  -3.604 129.290  0.00  0.00    +0.000 OA
BRANCH  27  29
ATOM     29  O   UNL     1      -8.986  -4.031 127.638  0.00  0.00    +0.000 OA
ATOM     30  H   UNL     1      -8.849  -4.338 126.730  0.00  0.00    +0.000 HD
ENDBRANCH  27  29
ENDBRANCH   7  27
TORSDOF 8
ENDMDL
MODEL 2
REMARK VINA RESULT:      -7.1      3.097      4.962
REMARK  Name = Temocillin
REMARK  11 active torsions:
REMARK  status: ('A' for Active; 'I' for Inactive)
REMARK    1  A    between atoms: C_1  and  O_2
REMARK    2  A    between atoms: O_2  and  C_3
REMARK    3  A    between atoms: C_3  and  N_4
REMARK    4  A    between atoms: C_5  and  C_7
REMARK    5  A    between atoms: C_7  and  C_8
REMARK    6  A    between atoms: C_7  and  C_11
REMARK    7  A    between atoms: C_8  and  O_9
REMARK    8  A    between atoms: C_18  and  C_19
REMARK    9  A    between atoms: C_18  and  C_20
REMARK   10  A    between atoms: C_21  and  C_25
REMARK   11  A    between atoms: C_25  and  O_26
REMARK                            x       y       z     vdW  Elec       q    Type
REMARK                         _______ _______ _______ _____ _____    ______ ____
ROOT
ATOM      1  C   UNL     1      -8.080   1.162 126.614  0.00  0.00    +0.000 C 
ATOM      2  C   UNL     1      -8.761   0.618 125.316  0.00  0.00    +0.000 C 
ATOM      3  S   UNL     1      -7.729   0.617 123.790  0.00  0.00    +0.000 S 
ATOM      4  C   UNL     1      -8.079  -1.186 123.513  0.00  0.00    +0.000 C 
ATOM      5  C   UNL     1      -6.921  -1.730 122.675  0.00  0.00    +0.000 C 
ATOM      6  C   UNL     1      -9.417  -1.168 122.758  0.00  0.00    +0.000 C 
ATOM      7  C   UNL     1      -8.120  -1.802 124.930  0.00  0.00    +0.000 C 
ATOM      8  N   UNL     1      -8.682  -0.763 125.814  0.00  0.00    +0.000 N 
ATOM      9  C   UNL     1      -8.043  -0.421 126.978  0.00  0.00    +0.000 C 
ATOM     10  O   UNL     1      -7.552  -1.175 127.800  0.00  0.00    +0.000 OA
ENDROOT
BRANCH   1  11
ATOM     11  N   UNL     1      -6.763   1.831 126.318  0.00  0.00    +0.000 N 
ATOM     12  C   UNL     1      -6.764   3.117 125.860  0.00  0.00    +0.000 C 
ATOM     13  O   UNL     1      -7.799   3.772 125.873  0.00  0.00    +0.000 OA
ATOM     14  H   UNL     1      -6.003   1.227 126.013  0.00  0.00    +0.000 HD
BRANCH  12  15
ATOM     15  C   UNL     1      -5.450   3.663 125.313  0.00  0.00    +0.000 C 
BRANCH  15  16
ATOM     16  C   UNL     1      -4.445   3.905 126.437  0.00  0.00    +0.000 A 
ATOM     17  C   UNL     1      -4.730   4.525 127.650  0.00  0.00    +0.000 A 
ATOM     18  S   UNL     1      -3.374   4.712 128.663  0.00  0.00    +0.000 S 
ATOM     19  C   UNL     1      -2.385   3.889 127.551  0.00  0.00    +0.000 A 
ATOM     20  C   UNL     1      -3.079   3.467 126.442  0.00  0.00    +0.000 A 
ENDBRANCH  15  16
BRANCH  15  21
ATOM     21  C   UNL     1      -5.748   4.840 124.389  0.00  0.00    +0.000 C 
ATOM     22  O   UNL     1      -5.477   4.785 123.189  0.00  0.00    +0.000 OA
BRANCH  21  23
ATOM     23  O   UNL     1      -6.323   5.950 124.891  0.00  0.00    +0.000 OA
ATOM     24  H   UNL     1      -7.204   5.847 125.301  0.00  0.00    +0.000 HD
ENDBRANCH  21  23
ENDBRANCH  15  21
ENDBRANCH  12  15
ENDBRANCH   1  11
BRANCH   1  26
ATOM     25  C   UNL     1      -8.568   1.976 128.870  0.00  0.00    +0.000 C 
ATOM     26  O   UNL     1      -8.933   1.966 127.490  0.00  0.00    +0.000 OA
ENDBRANCH   1  26
BRANCH   7  27
ATOM     27  C   UNL     1      -8.842  -3.156 125.144  0.00  0.00    +0.000 C 
ATOM     28  O   UNL     1      -8.321  -4.236 124.889  0.00  0.00    +0.000 OA
BRANCH  27  29
ATOM     29  O   UNL     1     -10.107  -3.157 125.608  0.00  0.00    +0.000 OA
ATOM     30  H   UNL     1     -10.608  -2.332 125.684  0.00  0.00    +0.000 HD
ENDBRANCH  27  29
ENDBRANCH   7  27
TORSDOF 8
ENDMDL
MODEL 3
REMARK VINA RESULT:      -6.8      5.931      7.530
REMARK  Name = Temocillin
REMARK  11 active torsions:
REMARK  status: ('A' for Active; 'I' for Inactive)
REMARK    1  A    between atoms: C_1  and  O_2
REMARK    2  A    between atoms: O_2  and  C_3
REMARK    3  A    between atoms: C_3  and  N_4
REMARK    4  A    between atoms: C_5  and  C_7
REMARK    5  A    between atoms: C_7  and  C_8
REMARK    6  A    between atoms: C_7  and  C_11
REMARK    7  A    between atoms: C_8  and  O_9
REMARK    8  A    between atoms: C_18  and  C_19
REMARK    9  A    between atoms: C_18  and  C_20
REMARK   10  A    between atoms: C_21  and  C_25
REMARK   11  A    between atoms: C_25  and  O_26
REMARK                            x       y       z     vdW  Elec       q    Type
REMARK                         _______ _______ _______ _____ _____    ______ ____
ROOT
ATOM      1  C   UNL     1      -8.912   2.716 130.388  0.00  0.00    +0.000 C 
ATOM      2  C   UNL     1      -7.403   2.478 130.718  0.00  0.00    +0.000 C 
ATOM      3  S   UNL     1      -6.645   3.621 131.949  0.00  0.00    +0.000 S 
ATOM      4  C   UNL     1      -6.048   2.186 132.965  0.00  0.00    +0.000 C 
ATOM      5  C   UNL     1      -5.885   2.703 134.395  0.00  0.00    +0.000 C 
ATOM      6  C   UNL     1      -4.712   1.820 132.298  0.00  0.00    +0.000 C 
ATOM      7  C   UNL     1      -7.166   1.126 132.847  0.00  0.00    +0.000 C 
ATOM      8  N   UNL     1      -7.727   1.270 131.490  0.00  0.00    +0.000 N 
ATOM      9  C   UNL     1      -9.081   1.386 131.307  0.00  0.00    +0.000 C 
ATOM     10  O   UNL     1      -9.959   0.733 131.845  0.00  0.00    +0.000 OA
ENDROOT
BRANCH   1  11
ATOM     11  N   UNL     1      -9.414   4.016 130.960  0.00  0.00    +0.000 N 
ATOM     12  C   UNL     1     -10.651   4.463 130.595  0.00  0.00    +0.000 C 
ATOM     13  O   UNL     1     -11.410   3.729 129.972  0.00  0.00    +0.000 OA
ATOM     14  H   UNL     1      -8.711   4.717 131.183  0.00  0.00    +0.000 HD
BRANCH  12  15
ATOM     15  C   UNL     1     -11.013   5.897 130.966  0.00  0.00    +0.000 C 
BRANCH  15  16
ATOM     16  C   UNL     1     -11.352   6.717 129.723  0.00  0.00    +0.000 A 
ATOM     17  C   UNL     1     -10.512   6.905 128.630  0.00  0.00    +0.000 A 
ATOM     18  S   UNL     1     -11.155   7.936 127.437  0.00  0.00    +0.000 S 
ATOM     19  C   UNL     1     -12.611   8.087 128.302  0.00  0.00    +0.000 A 
ATOM     20  C   UNL     1     -12.611   7.354 129.465  0.00  0.00    +0.000 A 
ENDBRANCH  15  16
BRANCH  15  21
ATOM     21  C   UNL     1      -9.936   6.457 131.889  0.00  0.00    +0.000 C 
ATOM     22  O   UNL     1      -8.887   6.912 131.433  0.00  0.00    +0.000 OA
BRANCH  21  23
ATOM     23  O   UNL     1     -10.138   6.462 133.221  0.00  0.00    +0.000 OA
ATOM     24  H   UNL     1     -10.610   5.696 133.601  0.00  0.00    +0.000 HD
ENDBRANCH  21  23
ENDBRANCH  15  21
ENDBRANCH  12  15
ENDBRANCH   1  11
BRANCH   1  26
ATOM     25  C   UNL     1      -8.216   2.294 128.080  0.00  0.00    +0.000 C 
ATOM     26  O   UNL     1      -9.292   2.536 128.986  0.00  0.00    +0.000 OA
ENDBRANCH   1  26
BRANCH   7  27
ATOM     27  C   UNL     1      -6.836  -0.358 133.151  0.00  0.00    +0.000 C 
ATOM     28  O   UNL     1      -6.649  -1.191 132.273  0.00  0.00    +0.000 OA
BRANCH  27  29
ATOM     29  O   UNL     1      -6.776  -0.765 134.434  0.00  0.00    +0.000 OA
ATOM     30  H   UNL     1      -6.576  -1.687 134.653  0.00  0.00    +0.000 HD
ENDBRANCH  27  29
ENDBRANCH   7  27
TORSDOF 8
ENDMDL
MODEL 4
REMARK VINA RESULT:      -6.8      3.592      8.280
REMARK  Name = Temocillin
REMARK  11 active torsions:
REMARK  status: ('A' for Active; 'I' for Inactive)
REMARK    1  A    between atoms: C_1  and  O_2
REMARK    2  A    between atoms: O_2  and  C_3
REMARK    3  A    between atoms: C_3  and  N_4
REMARK    4  A    between atoms: C_5  and  C_7
REMARK    5  A    between atoms: C_7  and  C_8
REMARK    6  A    between atoms: C_7  and  C_11
REMARK    7  A    between atoms: C_8  and  O_9
REMARK    8  A    between atoms: C_18  and  C_19
REMARK    9  A    between atoms: C_18  and  C_20
REMARK   10  A    between atoms: C_21  and  C_25
REMARK   11  A    between atoms: C_25  and  O_26
REMARK                            x       y       z     vdW  Elec       q    Type
REMARK                         _______ _______ _______ _____ _____    ______ ____
ROOT
ATOM      1  C   UNL     1      -7.078  -2.009 128.606  0.00  0.00    +0.000 C 
ATOM      2  C   UNL     1      -7.009  -1.253 127.239  0.00  0.00    +0.000 C 
ATOM      3  S   UNL     1      -5.465  -1.474 126.259  0.00  0.00    +0.000 S 
ATOM      4  C   UNL     1      -6.444  -1.992 124.769  0.00  0.00    +0.000 C 
ATOM      5  C   UNL     1      -5.509  -2.845 123.909  0.00  0.00    +0.000 C 
ATOM      6  C   UNL     1      -6.816  -0.653 124.114  0.00  0.00    +0.000 C 
ATOM      7  C   UNL     1      -7.626  -2.809 125.338  0.00  0.00    +0.000 C 
ATOM      8  N   UNL     1      -7.965  -2.192 126.634  0.00  0.00    +0.000 N 
ATOM      9  C   UNL     1      -8.084  -2.965 127.761  0.00  0.00    +0.000 C 
ATOM     10  O   UNL     1      -8.655  -4.037 127.865  0.00  0.00    +0.000 OA
ENDROOT
BRANCH   1  11
ATOM     11  N   UNL     1      -5.742  -2.589 128.994  0.00  0.00    +0.000 N 
ATOM     12  C   UNL     1      -5.685  -3.479 130.028  0.00  0.00    +0.000 C 
ATOM     13  O   UNL     1      -6.718  -3.940 130.498  0.00  0.00    +0.000 OA
ATOM     14  H   UNL     1      -4.927  -2.000 128.839  0.00  0.00    +0.000 HD
BRANCH  12  15
ATOM     15  C   UNL     1      -4.304  -3.830 130.570  0.00  0.00    +0.000 C 
BRANCH  15  16
ATOM     16  C   UNL     1      -4.132  -3.326 132.002  0.00  0.00    +0.000 A 
ATOM     17  C   UNL     1      -3.469  -4.005 133.019  0.00  0.00    +0.000 A 
ATOM     18  S   UNL     1      -3.518  -3.209 134.523  0.00  0.00    +0.000 S 
ATOM     19  C   UNL     1      -4.345  -1.890 133.839  0.00  0.00    +0.000 A 
ATOM     20  C   UNL     1      -4.563  -2.048 132.491  0.00  0.00    +0.000 A 
ENDBRANCH  15  16
BRANCH  15  21
ATOM     21  C   UNL     1      -3.248  -3.400 129.557  0.00  0.00    +0.000 C 
ATOM     22  O   UNL     1      -2.998  -4.096 128.572  0.00  0.00    +0.000 OA
BRANCH  21  23
ATOM     23  O   UNL     1      -2.587  -2.240 129.736  0.00  0.00    +0.000 OA
ATOM     24  H   UNL     1      -2.335  -1.744 128.933  0.00  0.00    +0.000 HD
ENDBRANCH  21  23
ENDBRANCH  15  21
ENDBRANCH  12  15
ENDBRANCH   1  11
BRANCH   1  26
ATOM     25  C   UNL     1      -7.725   0.141 129.578  0.00  0.00    +0.000 C 
ATOM     26  O   UNL     1      -7.713  -1.280 129.704  0.00  0.00    +0.000 OA
ENDBRANCH   1  26
BRANCH   7  27
ATOM     27  C   UNL     1      -8.897  -3.003 124.472  0.00  0.00    +0.000 C 
ATOM     28  O   UNL     1      -8.858  -3.147 123.256  0.00  0.00    +0.000 OA
BRANCH  27  29
ATOM     29  O   UNL     1     -10.104  -2.989 125.070  0.00  0.00    +0.000 OA
ATOM     30  H   UNL     1     -10.476  -2.165 125.417  0.00  0.00    +0.000 HD
ENDBRANCH  27  29
ENDBRANCH   7  27
TORSDOF 8
ENDMDL
MODEL 5
REMARK VINA RESULT:      -6.7      4.093      7.674
REMARK  Name = Temocillin
REMARK  11 active torsions:
REMARK  status: ('A' for Active; 'I' for Inactive)
REMARK    1  A    between atoms: C_1  and  O_2
REMARK    2  A    between atoms: O_2  and  C_3
REMARK    3  A    between atoms: C_3  and  N_4
REMARK    4  A    between atoms: C_5  and  C_7
REMARK    5  A    between atoms: C_7  and  C_8
REMARK    6  A    between atoms: C_7  and  C_11
REMARK    7  A    between atoms: C_8  and  O_9
REMARK    8  A    between atoms: C_18  and  C_19
REMARK    9  A    between atoms: C_18  and  C_20
REMARK   10  A    between atoms: C_21  and  C_25
REMARK   11  A    between atoms: C_25  and  O_26
REMARK                            x       y       z     vdW  Elec       q    Type
REMARK                         _______ _______ _______ _____ _____    ______ ____
ROOT
ATOM      1  C   UNL     1      -7.360   4.152 127.766  0.00  0.00    +0.000 C 
ATOM      2  C   UNL     1      -7.059   2.853 126.950  0.00  0.00    +0.000 C 
ATOM      3  S   UNL     1      -8.073   1.372 127.366  0.00  0.00    +0.000 S 
ATOM      4  C   UNL     1      -8.559   1.163 125.586  0.00  0.00    +0.000 C 
ATOM      5  C   UNL     1      -9.884   0.398 125.584  0.00  0.00    +0.000 C 
ATOM      6  C   UNL     1      -7.392   0.353 124.999  0.00  0.00    +0.000 C 
ATOM      7  C   UNL     1      -8.711   2.603 125.046  0.00  0.00    +0.000 C 
ATOM      8  N   UNL     1      -7.703   3.415 125.754  0.00  0.00    +0.000 N 
ATOM      9  C   UNL     1      -8.063   4.588 126.367  0.00  0.00    +0.000 C 
ATOM     10  O   UNL     1      -8.786   5.463 125.922  0.00  0.00    +0.000 OA
ENDROOT
BRANCH   1  11
ATOM     11  N   UNL     1      -8.269   3.881 128.937  0.00  0.00    +0.000 N 
ATOM     12  C   UNL     1      -8.789   4.938 129.626  0.00  0.00    +0.000 C 
ATOM     13  O   UNL     1      -8.676   6.075 129.184  0.00  0.00    +0.000 OA
ATOM     14  H   UNL     1      -8.100   3.022 129.456  0.00  0.00    +0.000 HD
BRANCH  12  15
ATOM     15  C   UNL     1      -9.470   4.636 130.956  0.00  0.00    +0.000 C 
BRANCH  15  16
ATOM     16  C   UNL     1      -9.099   3.243 131.459  0.00  0.00    +0.000 A 
ATOM     17  C   UNL     1      -7.871   2.886 132.008  0.00  0.00    +0.000 A 
ATOM     18  S   UNL     1      -7.747   1.235 132.402  0.00  0.00    +0.000 S 
ATOM     19  C   UNL     1      -9.361   0.965 131.938  0.00  0.00    +0.000 A 
ATOM     20  C   UNL     1      -9.983   2.113 131.508  0.00  0.00    +0.000 A 
ENDBRANCH  15  16
BRANCH  15  21
ATOM     21  C   UNL     1     -10.957   4.952 130.835  0.00  0.00    +0.000 C 
ATOM     22  O   UNL     1     -11.595   4.619 129.836  0.00  0.00    +0.000 OA
BRANCH  21  23
ATOM     23  O   UNL     1     -11.584   5.596 131.840  0.00  0.00    +0.000 OA
ATOM     24  H   UNL     1     -12.456   5.988 131.640  0.00  0.00    +0.000 HD
ENDBRANCH  21  23
ENDBRANCH  15  21
ENDBRANCH  12  15
ENDBRANCH   1  11
BRANCH   1  26
ATOM     25  C   UNL     1      -5.191   4.279 128.890  0.00  0.00    +0.000 C 
ATOM     26  O   UNL     1      -6.194   4.955 128.135  0.00  0.00    +0.000 OA
ENDBRANCH   1  26
BRANCH   7  27
ATOM     27  C   UNL     1      -8.640   2.848 123.517  0.00  0.00    +0.000 C 
ATOM     28  O   UNL     1      -9.255   2.167 122.705  0.00  0.00    +0.000 OA
BRANCH  27  29
ATOM     29  O   UNL     1      -7.850   3.834 123.049  0.00  0.00    +0.000 OA
ATOM     30  H   UNL     1      -8.166   4.749 123.016  0.00  0.00    +0.000 HD
ENDBRANCH  27  29
ENDBRANCH   7  27
TORSDOF 8
ENDMDL
MODEL 6
REMARK VINA RESULT:      -6.6      4.883      6.687
REMARK  Name = Temocillin
REMARK  11 active torsions:
REMARK  status: ('A' for Active; 'I' for Inactive)
REMARK    1  A    between atoms: C_1  and  O_2
REMARK    2  A    between atoms: O_2  and  C_3
REMARK    3  A    between atoms: C_3  and  N_4
REMARK    4  A    between atoms: C_5  and  C_7
REMARK    5  A    between atoms: C_7  and  C_8
REMARK    6  A    between atoms: C_7  and  C_11
REMARK    7  A    between atoms: C_8  and  O_9
REMARK    8  A    between atoms: C_18  and  C_19
REMARK    9  A    between atoms: C_18  and  C_20
REMARK   10  A    between atoms: C_21  and  C_25
REMARK   11  A    between atoms: C_25  and  O_26
REMARK                            x       y       z     vdW  Elec       q    Type
REMARK                         _______ _______ _______ _____ _____    ______ ____
ROOT
ATOM      1  C   UNL     1      -8.055   2.281 129.626  0.00  0.00    +0.000 C 
ATOM      2  C   UNL     1      -7.383   2.984 130.849  0.00  0.00    +0.000 C 
ATOM      3  S   UNL     1      -6.254   4.389 130.467  0.00  0.00    +0.000 S 
ATOM      4  C   UNL     1      -7.184   5.498 131.630  0.00  0.00    +0.000 C 
ATOM      5  C   UNL     1      -6.936   6.932 131.156  0.00  0.00    +0.000 C 
ATOM      6  C   UNL     1      -6.542   5.191 132.992  0.00  0.00    +0.000 C 
ATOM      7  C   UNL     1      -8.663   5.077 131.479  0.00  0.00    +0.000 C 
ATOM      8  N   UNL     1      -8.653   3.625 131.222  0.00  0.00    +0.000 N 
ATOM      9  C   UNL     1      -9.351   3.102 130.163  0.00  0.00    +0.000 C 
ATOM     10  O   UNL     1     -10.484   3.385 129.813  0.00  0.00    +0.000 OA
ENDROOT
BRANCH   1  11
ATOM     11  N   UNL     1      -7.451   2.728 128.320  0.00  0.00    +0.000 N 
ATOM     12  C   UNL     1      -8.012   2.298 127.152  0.00  0.00    +0.000 C 
ATOM     13  O   UNL     1      -9.093   1.722 127.166  0.00  0.00    +0.000 OA
ATOM     14  H   UNL     1      -6.449   2.908 128.319  0.00  0.00    +0.000 HD
BRANCH  12  15
ATOM     15  C   UNL     1      -7.223   2.537 125.870  0.00  0.00    +0.000 C 
BRANCH  15  16
ATOM     16  C   UNL     1      -5.804   3.010 126.178  0.00  0.00    +0.000 A 
ATOM     17  C   UNL     1      -4.689   2.186 126.298  0.00  0.00    +0.000 A 
ATOM     18  S   UNL     1      -3.263   3.014 126.723  0.00  0.00    +0.000 S 
ATOM     19  C   UNL     1      -4.072   4.509 126.669  0.00  0.00    +0.000 A 
ATOM     20  C   UNL     1      -5.395   4.378 126.318  0.00  0.00    +0.000 A 
ENDBRANCH  15  16
BRANCH  15  21
ATOM     21  C   UNL     1      -8.051   3.408 124.932  0.00  0.00    +0.000 C 
ATOM     22  O   UNL     1      -7.852   3.395 123.717  0.00  0.00    +0.000 OA
BRANCH  21  23
ATOM     23  O   UNL     1      -9.020   4.196 125.438  0.00  0.00    +0.000 OA
ATOM     24  H   UNL     1      -9.926   4.057 125.101  0.00  0.00    +0.000 HD
ENDBRANCH  21  23
ENDBRANCH  15  21
ENDBRANCH  12  15
ENDBRANCH   1  11
BRANCH   1  26
ATOM     25  C   UNL     1      -6.991   0.127 130.086  0.00  0.00    +0.000 C 
ATOM     26  O   UNL     1      -8.178   0.826 129.718  0.00  0.00    +0.000 OA
ENDBRANCH   1  26
BRANCH   7  27
ATOM     27  C   UNL     1      -9.668   5.429 132.605  0.00  0.00    +0.000 C 
ATOM     28  O   UNL     1     -10.171   6.540 132.725  0.00  0.00    +0.000 OA
BRANCH  27  29
ATOM     29  O   UNL     1      -9.989   4.487 133.513  0.00  0.00    +0.000 OA
ATOM     30  H   UNL     1     -10.102   3.562 133.249  0.00  0.00    +0.000 HD
ENDBRANCH  27  29
ENDBRANCH   7  27
TORSDOF 8
ENDMDL
MODEL 7
REMARK VINA RESULT:      -6.6      3.819      6.157
REMARK  Name = Temocillin
REMARK  11 active torsions:
REMARK  status: ('A' for Active; 'I' for Inactive)
REMARK    1  A    between atoms: C_1  and  O_2
REMARK    2  A    between atoms: O_2  and  C_3
REMARK    3  A    between atoms: C_3  and  N_4
REMARK    4  A    between atoms: C_5  and  C_7
REMARK    5  A    between atoms: C_7  and  C_8
REMARK    6  A    between atoms: C_7  and  C_11
REMARK    7  A    between atoms: C_8  and  O_9
REMARK    8  A    between atoms: C_18  and  C_19
REMARK    9  A    between atoms: C_18  and  C_20
REMARK   10  A    between atoms: C_21  and  C_25
REMARK   11  A    between atoms: C_25  and  O_26
REMARK                            x       y       z     vdW  Elec       q    Type
REMARK                         _______ _______ _______ _____ _____    ______ ____
ROOT
ATOM      1  C   UNL     1      -6.505   2.862 124.740  0.00  0.00    +0.000 C 
ATOM      2  C   UNL     1      -6.826   1.493 124.057  0.00  0.00    +0.000 C 
ATOM      3  S   UNL     1      -6.785   0.007 125.146  0.00  0.00    +0.000 S 
ATOM      4  C   UNL     1      -8.495  -0.477 124.607  0.00  0.00    +0.000 C 
ATOM      5  C   UNL     1      -9.079  -1.335 125.731  0.00  0.00    +0.000 C 
ATOM      6  C   UNL     1      -8.242  -1.265 123.313  0.00  0.00    +0.000 C 
ATOM      7  C   UNL     1      -9.249   0.861 124.438  0.00  0.00    +0.000 C 
ATOM      8  N   UNL     1      -8.252   1.837 123.959  0.00  0.00    +0.000 N 
ATOM      9  C   UNL     1      -8.112   3.050 124.583  0.00  0.00    +0.000 C 
ATOM     10  O   UNL     1      -9.001   3.799 124.951  0.00  0.00    +0.000 OA
ENDROOT
BRANCH   1  11
ATOM     11  N   UNL     1      -5.967   2.682 126.135  0.00  0.00    +0.000 N 
ATOM     12  C   UNL     1      -5.871   3.771 126.952  0.00  0.00    +0.000 C 
ATOM     13  O   UNL     1      -6.391   4.831 126.624  0.00  0.00    +0.000 OA
ATOM     14  H   UNL     1      -5.286   1.937 126.268  0.00  0.00    +0.000 HD
BRANCH  12  15
ATOM     15  C   UNL     1      -5.075   3.609 128.242  0.00  0.00    +0.000 C 
BRANCH  15  16
ATOM     16  C   UNL     1      -4.227   4.848 128.523  0.00  0.00    +0.000 A 
ATOM     17  C   UNL     1      -3.183   5.306 127.726  0.00  0.00    +0.000 A 
ATOM     18  S   UNL     1      -2.386   6.673 128.355  0.00  0.00    +0.000 S 
ATOM     19  C   UNL     1      -3.470   6.748 129.663  0.00  0.00    +0.000 A 
ATOM     20  C   UNL     1      -4.427   5.763 129.609  0.00  0.00    +0.000 A 
ENDBRANCH  15  16
BRANCH  15  21
ATOM     21  C   UNL     1      -4.348   2.269 128.211  0.00  0.00    +0.000 C 
ATOM     22  O   UNL     1      -4.716   1.333 128.921  0.00  0.00    +0.000 OA
BRANCH  21  23
ATOM     23  O   UNL     1      -3.294   2.103 127.388  0.00  0.00    +0.000 OA
ATOM     24  H   UNL     1      -2.987   1.188 127.238  0.00  0.00    +0.000 HD
ENDBRANCH  21  23
ENDBRANCH  15  21
ENDBRANCH  12  15
ENDBRANCH   1  11
BRANCH   1  26
ATOM     25  C   UNL     1      -6.003   3.836 122.552  0.00  0.00    +0.000 C 
ATOM     26  O   UNL     1      -5.706   3.796 123.947  0.00  0.00    +0.000 OA
ENDBRANCH   1  26
BRANCH   7  27
ATOM     27  C   UNL     1     -10.525   0.904 123.560  0.00  0.00    +0.000 C 
ATOM     28  O   UNL     1     -10.543   0.530 122.393  0.00  0.00    +0.000 OA
BRANCH  27  29
ATOM     29  O   UNL     1     -11.665   1.395 124.085  0.00  0.00    +0.000 OA
ATOM     30  H   UNL     1     -12.460   0.845 124.147  0.00  0.00    +0.000 HD
ENDBRANCH  27  29
ENDBRANCH   7  27
TORSDOF 8
ENDMDL
MODEL 8
REMARK VINA RESULT:      -6.6      2.553      4.331
REMARK  Name = Temocillin
REMARK  11 active torsions:
REMARK  status: ('A' for Active; 'I' for Inactive)
REMARK    1  A    between atoms: C_1  and  O_2
REMARK    2  A    between atoms: O_2  and  C_3
REMARK    3  A    between atoms: C_3  and  N_4
REMARK    4  A    between atoms: C_5  and  C_7
REMARK    5  A    between atoms: C_7  and  C_8
REMARK    6  A    between atoms: C_7  and  C_11
REMARK    7  A    between atoms: C_8  and  O_9
REMARK    8  A    between atoms: C_18  and  C_19
REMARK    9  A    between atoms: C_18  and  C_20
REMARK   10  A    between atoms: C_21  and  C_25
REMARK   11  A    between atoms: C_25  and  O_26
REMARK                            x       y       z     vdW  Elec       q    Type
REMARK                         _______ _______ _______ _____ _____    ______ ____
ROOT
ATOM      1  C   UNL     1      -7.816   1.714 124.283  0.00  0.00    +0.000 C 
ATOM      2  C   UNL     1      -7.133   0.329 124.042  0.00  0.00    +0.000 C 
ATOM      3  S   UNL     1      -6.101  -0.325 125.421  0.00  0.00    +0.000 S 
ATOM      4  C   UNL     1      -7.041  -1.927 125.411  0.00  0.00    +0.000 C 
ATOM      5  C   UNL     1      -6.893  -2.527 126.810  0.00  0.00    +0.000 C 
ATOM      6  C   UNL     1      -6.325  -2.743 124.323  0.00  0.00    +0.000 C 
ATOM      7  C   UNL     1      -8.500  -1.526 125.094  0.00  0.00    +0.000 C 
ATOM      8  N   UNL     1      -8.419  -0.368 124.183  0.00  0.00    +0.000 N 
ATOM      9  C   UNL     1      -9.131   0.773 124.448  0.00  0.00    +0.000 C 
ATOM     10  O   UNL     1     -10.292   0.853 124.811  0.00  0.00    +0.000 OA
ENDROOT
BRANCH   1  11
ATOM     11  N   UNL     1      -7.293   2.389 125.524  0.00  0.00    +0.000 N 
ATOM     12  C   UNL     1      -7.827   3.589 125.897  0.00  0.00    +0.000 C 
ATOM     13  O   UNL     1      -8.837   4.010 125.344  0.00  0.00    +0.000 OA
ATOM     14  H   UNL     1      -6.318   2.218 125.761  0.00  0.00    +0.000 HD
BRANCH  12  15
ATOM     15  C   UNL     1      -7.097   4.370 126.984  0.00  0.00    +0.000 C 
BRANCH  15  16
ATOM     16  C   UNL     1      -5.631   3.950 127.072  0.00  0.00    +0.000 A 
ATOM     17  C   UNL     1      -4.618   4.381 126.221  0.00  0.00    +0.000 A 
ATOM     18  S   UNL     1      -3.104   3.669 126.536  0.00  0.00    +0.000 S 
ATOM     19  C   UNL     1      -3.736   2.833 127.875  0.00  0.00    +0.000 A 
ATOM     20  C   UNL     1      -5.067   3.106 128.085  0.00  0.00    +0.000 A 
ENDBRANCH  15  16
BRANCH  15  21
ATOM     21  C   UNL     1      -7.910   4.307 128.272  0.00  0.00    +0.000 C 
ATOM     22  O   UNL     1      -7.777   5.163 129.146  0.00  0.00    +0.000 OA
BRANCH  21  23
ATOM     23  O   UNL     1      -8.794   3.306 128.452  0.00  0.00    +0.000 OA
ATOM     24  H   UNL     1      -9.684   3.551 128.770  0.00  0.00    +0.000 HD
ENDBRANCH  21  23
ENDBRANCH  15  21
ENDBRANCH  12  15
ENDBRANCH   1  11
BRANCH   1  26
ATOM     25  C   UNL     1      -6.620   2.777 122.432  0.00  0.00    +0.000 C 
ATOM     26  O   UNL     1      -7.854   2.613 123.129  0.00  0.00    +0.000 OA
ENDBRANCH   1  26
BRANCH   7  27
ATOM     27  C   UNL     1      -9.473  -2.596 124.539  0.00  0.00    +0.000 C 
ATOM     28  O   UNL     1      -9.677  -2.753 123.341  0.00  0.00    +0.000 OA
BRANCH  27  29
ATOM     29  O   UNL     1     -10.150  -3.376 125.404  0.00  0.00    +0.000 OA
ATOM     30  H   UNL     1     -10.934  -3.869 125.119  0.00  0.00    +0.000 HD
ENDBRANCH  27  29
ENDBRANCH   7  27
TORSDOF 8
ENDMDL
MODEL 9
REMARK VINA RESULT:      -6.4      6.382      8.707
REMARK  Name = Temocillin
REMARK  11 active torsions:
REMARK  status: ('A' for Active; 'I' for Inactive)
REMARK    1  A    between atoms: C_1  and  O_2
REMARK    2  A    between atoms: O_2  and  C_3
REMARK    3  A    between atoms: C_3  and  N_4
REMARK    4  A    between atoms: C_5  and  C_7
REMARK    5  A    between atoms: C_7  and  C_8
REMARK    6  A    between atoms: C_7  and  C_11
REMARK    7  A    between atoms: C_8  and  O_9
REMARK    8  A    between atoms: C_18  and  C_19
REMARK    9  A    between atoms: C_18  and  C_20
REMARK   10  A    between atoms: C_21  and  C_25
REMARK   11  A    between atoms: C_25  and  O_26
REMARK                            x       y       z     vdW  Elec       q    Type
REMARK                         _______ _______ _______ _____ _____    ______ ____
ROOT
ATOM      1  C   UNL     1      -6.492   3.503 129.534  0.00  0.00    +0.000 C 
ATOM      2  C   UNL     1      -7.340   3.071 130.773  0.00  0.00    +0.000 C 
ATOM      3  S   UNL     1      -6.926   3.888 132.372  0.00  0.00    +0.000 S 
ATOM      4  C   UNL     1      -8.696   4.396 132.610  0.00  0.00    +0.000 C 
ATOM      5  C   UNL     1      -8.678   5.619 133.529  0.00  0.00    +0.000 C 
ATOM      6  C   UNL     1      -9.329   3.157 133.265  0.00  0.00    +0.000 C 
ATOM      7  C   UNL     1      -9.205   4.735 131.191  0.00  0.00    +0.000 C 
ATOM      8  N   UNL     1      -8.508   3.812 130.274  0.00  0.00    +0.000 N 
ATOM      9  C   UNL     1      -7.864   4.292 129.163  0.00  0.00    +0.000 C 
ATOM     10  O   UNL     1      -8.272   5.127 128.375  0.00  0.00    +0.000 OA
ENDROOT
BRANCH   1  11
ATOM     11  N   UNL     1      -5.303   4.339 129.930  0.00  0.00    +0.000 N 
ATOM     12  C   UNL     1      -4.648   5.052 128.969  0.00  0.00    +0.000 C 
ATOM     13  O   UNL     1      -5.132   5.162 127.848  0.00  0.00    +0.000 OA
ATOM     14  H   UNL     1      -4.754   4.006 130.720  0.00  0.00    +0.000 HD
BRANCH  12  15
ATOM     15  C   UNL     1      -3.300   5.659 129.346  0.00  0.00    +0.000 C 
BRANCH  15  16
ATOM     16  C   UNL     1      -3.142   5.743 130.863  0.00  0.00    +0.000 A 
ATOM     17  C   UNL     1      -2.328   4.917 131.633  0.00  0.00    +0.000 A 
ATOM     18  S   UNL     1      -2.430   5.217 133.306  0.00  0.00    +0.000 S 
ATOM     19  C   UNL     1      -3.494   6.518 133.044  0.00  0.00    +0.000 A 
ATOM     20  C   UNL     1      -3.749   6.728 131.710  0.00  0.00    +0.000 A 
ENDBRANCH  15  16
BRANCH  15  21
ATOM     21  C   UNL     1      -3.099   6.949 128.560  0.00  0.00    +0.000 C 
ATOM     22  O   UNL     1      -2.067   7.143 127.916  0.00  0.00    +0.000 OA
BRANCH  21  23
ATOM     23  O   UNL     1      -4.067   7.887 128.561  0.00  0.00    +0.000 OA
ATOM     24  H   UNL     1      -4.241   8.346 127.717  0.00  0.00    +0.000 HD
ENDBRANCH  21  23
ENDBRANCH  15  21
ENDBRANCH  12  15
ENDBRANCH   1  11
BRANCH   1  26
ATOM     25  C   UNL     1      -5.327   1.388 129.138  0.00  0.00    +0.000 C 
ATOM     26  O   UNL     1      -6.138   2.432 128.601  0.00  0.00    +0.000 OA
ENDBRANCH   1  26
BRANCH   7  27
ATOM     27  C   UNL     1     -10.730   4.737 130.915  0.00  0.00    +0.000 C 
ATOM     28  O   UNL     1     -11.255   4.019 130.072  0.00  0.00    +0.000 OA
BRANCH  27  29
ATOM     29  O   UNL     1     -11.519   5.581 131.608  0.00  0.00    +0.000 OA
ATOM     30  H   UNL     1     -11.411   6.540 131.527  0.00  0.00    +0.000 HD
ENDBRANCH  27  29
ENDBRANCH   7  27
TORSDOF 8
ENDMDL
