MODEL 1
REMARK VINA RESULT:      -6.3      0.000      0.000
REMARK  Name = Temozolomide
REMARK  2 active torsions:
REMARK  status: ('A' for Active; 'I' for Inactive)
REMARK    1  A    between atoms: C_1  and  N_2
REMARK    2  A    between atoms: C_6  and  C_12
REMARK                            x       y       z     vdW  Elec       q    Type
REMARK                         _______ _______ _______ _____ _____    ______ ____
ROOT
ATOM      1  C   UNL     1     -11.249   7.577 126.140  0.00  0.00    +0.000 C 
ATOM      2  N   UNL     1     -11.172   7.261 127.552  0.00  0.00    +0.000 N 
ATOM      3  N   UNL     1      -9.957   6.801 127.999  0.00  0.00    +0.000 NA
ATOM      4  N   UNL     1      -9.797   6.515 129.208  0.00  0.00    +0.000 NA
ATOM      5  C   UNL     1     -10.807   6.650 130.091  0.00  0.00    +0.000 A 
ATOM      6  C   UNL     1     -10.948   6.426 131.453  0.00  0.00    +0.000 A 
ATOM      7  N   UNL     1     -12.244   6.740 131.853  0.00  0.00    +0.000 NA
ATOM      8  C   UNL     1     -12.855   7.139 130.754  0.00  0.00    +0.000 A 
ATOM      9  N   UNL     1     -12.022   7.103 129.664  0.00  0.00    +0.000 N 
ATOM     10  C   UNL     1     -12.291   7.443 128.349  0.00  0.00    +0.000 A 
ATOM     11  O   UNL     1     -13.399   7.844 128.029  0.00  0.00    +0.000 OA
ENDROOT
BRANCH   6  12
ATOM     12  C   UNL     1      -9.896   5.931 132.342  0.00  0.00    +0.000 C 
ATOM     13  N   UNL     1     -10.187   4.799 133.051  0.00  0.00    +0.000 N 
ATOM     14  O   UNL     1      -8.800   6.468 132.471  0.00  0.00    +0.000 OA
ATOM     15  H   UNL     1     -11.079   4.329 132.967  0.00  0.00    +0.000 HD
ATOM     16  H   UNL     1      -9.476   4.435 133.669  0.00  0.00    +0.000 HD
ENDBRANCH   6  12
TORSDOF 1
ENDMDL
MODEL 2
REMARK VINA RESULT:      -6.1      1.682      4.545
REMARK  Name = Temozolomide
REMARK  2 active torsions:
REMARK  status: ('A' for Active; 'I' for Inactive)
REMARK    1  A    between atoms: C_1  and  N_2
REMARK    2  A    between atoms: C_6  and  C_12
REMARK                            x       y       z     vdW  Elec       q    Type
REMARK                         _______ _______ _______ _____ _____    ______ ____
ROOT
ATOM      1  C   UNL     1      -6.789   6.131 132.108  0.00  0.00    +0.000 C 
ATOM      2  N   UNL     1      -8.064   6.508 131.532  0.00  0.00    +0.000 N 
ATOM      3  N   UNL     1      -8.005   7.261 130.385  0.00  0.00    +0.000 NA
ATOM      4  N   UNL     1      -9.060   7.622 129.812  0.00  0.00    +0.000 NA
ATOM      5  C   UNL     1     -10.267   7.281 130.307  0.00  0.00    +0.000 A 
ATOM      6  C   UNL     1     -11.579   7.514 129.921  0.00  0.00    +0.000 A 
ATOM      7  N   UNL     1     -12.452   6.915 130.825  0.00  0.00    +0.000 NA
ATOM      8  C   UNL     1     -11.674   6.341 131.723  0.00  0.00    +0.000 A 
ATOM      9  N   UNL     1     -10.345   6.536 131.448  0.00  0.00    +0.000 N 
ATOM     10  C   UNL     1      -9.234   6.093 132.147  0.00  0.00    +0.000 A 
ATOM     11  O   UNL     1      -9.369   5.427 133.162  0.00  0.00    +0.000 OA
ENDROOT
BRANCH   6  12
ATOM     12  C   UNL     1     -11.991   8.280 128.743  0.00  0.00    +0.000 C 
ATOM     13  N   UNL     1     -10.985   8.795 127.975  0.00  0.00    +0.000 N 
ATOM     14  O   UNL     1     -13.162   8.469 128.427  0.00  0.00    +0.000 OA
ATOM     15  H   UNL     1     -10.010   8.656 128.205  0.00  0.00    +0.000 HD
ATOM     16  H   UNL     1     -11.245   9.325 127.154  0.00  0.00    +0.000 HD
ENDBRANCH   6  12
TORSDOF 1
ENDMDL
MODEL 3
REMARK VINA RESULT:      -6.0      1.767      4.544
REMARK  Name = Temozolomide
REMARK  2 active torsions:
REMARK  status: ('A' for Active; 'I' for Inactive)
REMARK    1  A    between atoms: C_1  and  N_2
REMARK    2  A    between atoms: C_6  and  C_12
REMARK                            x       y       z     vdW  Elec       q    Type
REMARK                         _______ _______ _______ _____ _____    ______ ____
ROOT
ATOM      1  C   UNL     1      -7.898   5.084 131.522  0.00  0.00    +0.000 C 
ATOM      2  N   UNL     1      -8.825   5.706 130.598  0.00  0.00    +0.000 N 
ATOM      3  N   UNL     1      -8.571   5.503 129.263  0.00  0.00    +0.000 NA
ATOM      4  N   UNL     1      -9.328   5.994 128.395  0.00  0.00    +0.000 NA
ATOM      5  C   UNL     1     -10.402   6.728 128.749  0.00  0.00    +0.000 A 
ATOM      6  C   UNL     1     -11.404   7.388 128.052  0.00  0.00    +0.000 A 
ATOM      7  N   UNL     1     -12.277   8.003 128.945  0.00  0.00    +0.000 NA
ATOM      8  C   UNL     1     -11.802   7.714 130.142  0.00  0.00    +0.000 A 
ATOM      9  N   UNL     1     -10.669   6.943 130.070  0.00  0.00    +0.000 N 
ATOM     10  C   UNL     1      -9.889   6.440 131.097  0.00  0.00    +0.000 A 
ATOM     11  O   UNL     1     -10.182   6.666 132.261  0.00  0.00    +0.000 OA
ENDROOT
BRANCH   6  12
ATOM     12  C   UNL     1     -11.529   7.437 126.594  0.00  0.00    +0.000 C 
ATOM     13  N   UNL     1     -12.626   6.820 126.060  0.00  0.00    +0.000 N 
ATOM     14  O   UNL     1     -10.720   7.992 125.857  0.00  0.00    +0.000 OA
ATOM     15  H   UNL     1     -13.313   6.355 126.638  0.00  0.00    +0.000 HD
ATOM     16  H   UNL     1     -12.736   6.843 125.056  0.00  0.00    +0.000 HD
ENDBRANCH   6  12
TORSDOF 1
ENDMDL
MODEL 4
REMARK VINA RESULT:      -5.8      7.671      9.310
REMARK  Name = Temozolomide
REMARK  2 active torsions:
REMARK  status: ('A' for Active; 'I' for Inactive)
REMARK    1  A    between atoms: C_1  and  N_2
REMARK    2  A    between atoms: C_6  and  C_12
REMARK                            x       y       z     vdW  Elec       q    Type
REMARK                         _______ _______ _______ _____ _____    ______ ____
ROOT
ATOM      1  C   UNL     1      -7.526   4.493 118.710  0.00  0.00    +0.000 C 
ATOM      2  N   UNL     1      -7.599   4.083 120.097  0.00  0.00    +0.000 N 
ATOM      3  N   UNL     1      -8.835   3.681 120.540  0.00  0.00    +0.000 NA
ATOM      4  N   UNL     1      -8.988   3.299 121.724  0.00  0.00    +0.000 NA
ATOM      5  C   UNL     1      -7.949   3.275 122.583  0.00  0.00    +0.000 A 
ATOM      6  C   UNL     1      -7.793   2.917 123.914  0.00  0.00    +0.000 A 
ATOM      7  N   UNL     1      -6.468   3.100 124.302  0.00  0.00    +0.000 NA
ATOM      8  C   UNL     1      -5.856   3.555 123.225  0.00  0.00    +0.000 A 
ATOM      9  N   UNL     1      -6.713   3.675 122.161  0.00  0.00    +0.000 N 
ATOM     10  C   UNL     1      -6.451   4.112 120.873  0.00  0.00    +0.000 A 
ATOM     11  O   UNL     1      -5.323   4.455 120.556  0.00  0.00    +0.000 OA
ENDROOT
BRANCH   6  12
ATOM     12  C   UNL     1      -8.859   2.424 124.788  0.00  0.00    +0.000 C 
ATOM     13  N   UNL     1      -9.970   1.929 124.165  0.00  0.00    +0.000 N 
ATOM     14  O   UNL     1      -8.797   2.435 126.013  0.00  0.00    +0.000 OA
ATOM     15  H   UNL     1     -10.054   1.904 123.157  0.00  0.00    +0.000 HD
ATOM     16  H   UNL     1     -10.719   1.580 124.747  0.00  0.00    +0.000 HD
ENDBRANCH   6  12
TORSDOF 1
ENDMDL
MODEL 5
REMARK VINA RESULT:      -5.8      2.083      4.144
REMARK  Name = Temozolomide
REMARK  2 active torsions:
REMARK  status: ('A' for Active; 'I' for Inactive)
REMARK    1  A    between atoms: C_1  and  N_2
REMARK    2  A    between atoms: C_6  and  C_12
REMARK                            x       y       z     vdW  Elec       q    Type
REMARK                         _______ _______ _______ _____ _____    ______ ____
ROOT
ATOM      1  C   UNL     1      -7.872   3.206 129.078  0.00  0.00    +0.000 C 
ATOM      2  N   UNL     1      -8.790   4.310 129.274  0.00  0.00    +0.000 N 
ATOM      3  N   UNL     1      -8.875   5.211 128.241  0.00  0.00    +0.000 NA
ATOM      4  N   UNL     1      -9.653   6.190 128.320  0.00  0.00    +0.000 NA
ATOM      5  C   UNL     1     -10.419   6.379 129.413  0.00  0.00    +0.000 A 
ATOM      6  C   UNL     1     -11.351   7.331 129.797  0.00  0.00    +0.000 A 
ATOM      7  N   UNL     1     -11.843   7.029 131.064  0.00  0.00    +0.000 NA
ATOM      8  C   UNL     1     -11.216   5.924 131.421  0.00  0.00    +0.000 A 
ATOM      9  N   UNL     1     -10.345   5.495 130.451  0.00  0.00    +0.000 N 
ATOM     10  C   UNL     1      -9.516   4.386 130.452  0.00  0.00    +0.000 A 
ATOM     11  O   UNL     1      -9.497   3.630 131.411  0.00  0.00    +0.000 OA
ENDROOT
BRANCH   6  12
ATOM     12  C   UNL     1     -11.760   8.486 128.996  0.00  0.00    +0.000 C 
ATOM     13  N   UNL     1     -10.937   8.824 127.958  0.00  0.00    +0.000 N 
ATOM     14  O   UNL     1     -12.776   9.140 129.208  0.00  0.00    +0.000 OA
ATOM     15  H   UNL     1     -10.092   8.306 127.754  0.00  0.00    +0.000 HD
ATOM     16  H   UNL     1     -11.198   9.616 127.389  0.00  0.00    +0.000 HD
ENDBRANCH   6  12
TORSDOF 1
ENDMDL
MODEL 6
REMARK VINA RESULT:      -5.6      2.116      2.599
REMARK  Name = Temozolomide
REMARK  2 active torsions:
REMARK  status: ('A' for Active; 'I' for Inactive)
REMARK    1  A    between atoms: C_1  and  N_2
REMARK    2  A    between atoms: C_6  and  C_12
REMARK                            x       y       z     vdW  Elec       q    Type
REMARK                         _______ _______ _______ _____ _____    ______ ____
ROOT
ATOM      1  C   UNL     1     -12.926   8.727 128.622  0.00  0.00    +0.000 C 
ATOM      2  N   UNL     1     -11.828   8.082 129.314  0.00  0.00    +0.000 N 
ATOM      3  N   UNL     1     -10.592   8.210 128.730  0.00  0.00    +0.000 NA
ATOM      4  N   UNL     1      -9.584   7.694 129.266  0.00  0.00    +0.000 NA
ATOM      5  C   UNL     1      -9.691   7.006 130.421  0.00  0.00    +0.000 A 
ATOM      6  C   UNL     1      -8.796   6.337 131.243  0.00  0.00    +0.000 A 
ATOM      7  N   UNL     1      -9.471   5.790 132.332  0.00  0.00    +0.000 NA
ATOM      8  C   UNL     1     -10.734   6.129 132.157  0.00  0.00    +0.000 A 
ATOM      9  N   UNL     1     -10.912   6.866 131.015  0.00  0.00    +0.000 N 
ATOM     10  C   UNL     1     -12.079   7.402 130.495  0.00  0.00    +0.000 A 
ATOM     11  O   UNL     1     -13.142   7.244 131.074  0.00  0.00    +0.000 OA
ENDROOT
BRANCH   6  12
ATOM     12  C   UNL     1      -7.357   6.216 131.005  0.00  0.00    +0.000 C 
ATOM     13  N   UNL     1      -6.546   6.440 132.082  0.00  0.00    +0.000 N 
ATOM     14  O   UNL     1      -6.865   5.929 129.918  0.00  0.00    +0.000 OA
ATOM     15  H   UNL     1      -6.917   6.677 132.993  0.00  0.00    +0.000 HD
ATOM     16  H   UNL     1      -5.548   6.360 131.945  0.00  0.00    +0.000 HD
ENDBRANCH   6  12
TORSDOF 1
ENDMDL
MODEL 7
REMARK VINA RESULT:      -5.6      2.272      4.165
REMARK  Name = Temozolomide
REMARK  2 active torsions:
REMARK  status: ('A' for Active; 'I' for Inactive)
REMARK    1  A    between atoms: C_1  and  N_2
REMARK    2  A    between atoms: C_6  and  C_12
REMARK                            x       y       z     vdW  Elec       q    Type
REMARK                         _______ _______ _______ _____ _____    ______ ____
ROOT
ATOM      1  C   UNL     1      -6.992   4.091 128.540  0.00  0.00    +0.000 C 
ATOM      2  N   UNL     1      -8.052   4.758 129.268  0.00  0.00    +0.000 N 
ATOM      3  N   UNL     1      -9.063   5.289 128.505  0.00  0.00    +0.000 NA
ATOM      4  N   UNL     1     -10.026   5.873 129.053  0.00  0.00    +0.000 NA
ATOM      5  C   UNL     1     -10.091   5.992 130.395  0.00  0.00    +0.000 A 
ATOM      6  C   UNL     1     -10.995   6.562 131.280  0.00  0.00    +0.000 A 
ATOM      7  N   UNL     1     -10.548   6.391 132.588  0.00  0.00    +0.000 NA
ATOM      8  C   UNL     1      -9.408   5.736 132.478  0.00  0.00    +0.000 A 
ATOM      9  N   UNL     1      -9.094   5.473 131.169  0.00  0.00    +0.000 N 
ATOM     10  C   UNL     1      -7.993   4.812 130.652  0.00  0.00    +0.000 A 
ATOM     11  O   UNL     1      -7.134   4.367 131.397  0.00  0.00    +0.000 OA
ENDROOT
BRANCH   6  12
ATOM     12  C   UNL     1     -12.233   7.245 130.902  0.00  0.00    +0.000 C 
ATOM     13  N   UNL     1     -12.181   8.007 129.769  0.00  0.00    +0.000 N 
ATOM     14  O   UNL     1     -13.279   7.164 131.538  0.00  0.00    +0.000 OA
ATOM     15  H   UNL     1     -11.335   8.095 129.220  0.00  0.00    +0.000 HD
ATOM     16  H   UNL     1     -13.024   8.487 129.486  0.00  0.00    +0.000 HD
ENDBRANCH   6  12
TORSDOF 1
ENDMDL
MODEL 8
REMARK VINA RESULT:      -5.4      2.031      4.817
REMARK  Name = Temozolomide
REMARK  2 active torsions:
REMARK  status: ('A' for Active; 'I' for Inactive)
REMARK    1  A    between atoms: C_1  and  N_2
REMARK    2  A    between atoms: C_6  and  C_12
REMARK                            x       y       z     vdW  Elec       q    Type
REMARK                         _______ _______ _______ _____ _____    ______ ____
ROOT
ATOM      1  C   UNL     1      -9.871   2.385 131.595  0.00  0.00    +0.000 C 
ATOM      2  N   UNL     1     -10.051   3.677 130.964  0.00  0.00    +0.000 N 
ATOM      3  N   UNL     1     -11.193   3.826 130.215  0.00  0.00    +0.000 NA
ATOM      4  N   UNL     1     -11.436   4.914 129.643  0.00  0.00    +0.000 NA
ATOM      5  C   UNL     1     -10.587   5.956 129.751  0.00  0.00    +0.000 A 
ATOM      6  C   UNL     1     -10.568   7.252 129.257  0.00  0.00    +0.000 A 
ATOM      7  N   UNL     1      -9.419   7.908 129.691  0.00  0.00    +0.000 NA
ATOM      8  C   UNL     1      -8.774   7.020 130.423  0.00  0.00    +0.000 A 
ATOM      9  N   UNL     1      -9.446   5.826 130.488  0.00  0.00    +0.000 N 
ATOM     10  C   UNL     1      -9.096   4.663 131.154  0.00  0.00    +0.000 A 
ATOM     11  O   UNL     1      -8.061   4.609 131.800  0.00  0.00    +0.000 OA
ENDROOT
BRANCH   6  12
ATOM     12  C   UNL     1     -11.598   7.847 128.403  0.00  0.00    +0.000 C 
ATOM     13  N   UNL     1     -12.093   7.050 127.409  0.00  0.00    +0.000 N 
ATOM     14  O   UNL     1     -12.021   8.991 128.538  0.00  0.00    +0.000 OA
ATOM     15  H   UNL     1     -11.768   6.102 127.270  0.00  0.00    +0.000 HD
ATOM     16  H   UNL     1     -12.807   7.437 126.808  0.00  0.00    +0.000 HD
ENDBRANCH   6  12
TORSDOF 1
ENDMDL
MODEL 9
REMARK VINA RESULT:      -5.3      1.645      4.938
REMARK  Name = Temozolomide
REMARK  2 active torsions:
REMARK  status: ('A' for Active; 'I' for Inactive)
REMARK    1  A    between atoms: C_1  and  N_2
REMARK    2  A    between atoms: C_6  and  C_12
REMARK                            x       y       z     vdW  Elec       q    Type
REMARK                         _______ _______ _______ _____ _____    ______ ____
ROOT
ATOM      1  C   UNL     1      -9.412   5.581 132.915  0.00  0.00    +0.000 C 
ATOM      2  N   UNL     1     -10.040   6.260 131.800  0.00  0.00    +0.000 N 
ATOM      3  N   UNL     1     -11.410   6.176 131.740  0.00  0.00    +0.000 NA
ATOM      4  N   UNL     1     -12.037   6.744 130.815  0.00  0.00    +0.000 NA
ATOM      5  C   UNL     1     -11.385   7.444 129.865  0.00  0.00    +0.000 A 
ATOM      6  C   UNL     1     -11.775   8.165 128.747  0.00  0.00    +0.000 A 
ATOM      7  N   UNL     1     -10.655   8.692 128.108  0.00  0.00    +0.000 NA
ATOM      8  C   UNL     1      -9.628   8.292 128.833  0.00  0.00    +0.000 A 
ATOM      9  N   UNL     1     -10.024   7.536 129.907  0.00  0.00    +0.000 N 
ATOM     10  C   UNL     1      -9.249   6.942 130.889  0.00  0.00    +0.000 A 
ATOM     11  O   UNL     1      -8.034   7.062 130.873  0.00  0.00    +0.000 OA
ENDROOT
BRANCH   6  12
ATOM     12  C   UNL     1     -13.156   8.346 128.295  0.00  0.00    +0.000 C 
ATOM     13  N   UNL     1     -13.621   9.631 128.272  0.00  0.00    +0.000 N 
ATOM     14  O   UNL     1     -13.887   7.424 127.947  0.00  0.00    +0.000 OA
ATOM     15  H   UNL     1     -13.044  10.415 128.551  0.00  0.00    +0.000 HD
ATOM     16  H   UNL     1     -14.570   9.783 127.962  0.00  0.00    +0.000 HD
ENDBRANCH   6  12
TORSDOF 1
ENDMDL
