MODEL 1
REMARK VINA RESULT:     -11.2      0.000      0.000
REMARK  Name = Temoporfin
REMARK  8 active torsions:
REMARK  status: ('A' for Active; 'I' for Inactive)
REMARK    1  A    between atoms: O_1  and  C_2
REMARK    2  A    between atoms: C_6  and  C_8
REMARK    3  A    between atoms: C_14  and  C_46
REMARK    4  A    between atoms: C_20  and  C_39
REMARK    5  A    between atoms: C_26  and  C_32
REMARK    6  A    between atoms: C_34  and  O_35
REMARK    7  A    between atoms: C_41  and  O_42
REMARK    8  A    between atoms: C_48  and  O_49
REMARK                            x       y       z     vdW  Elec       q    Type
REMARK                         _______ _______ _______ _____ _____    ______ ____
ROOT
ATOM      1  C   UNL     1      -3.783   2.371 132.215  0.00  0.00    +0.000 C 
ATOM      2  C   UNL     1      -4.402   4.013 131.424  0.00  0.00    +0.000 C 
ATOM      3  C   UNL     1      -5.406   4.752 132.290  0.00  0.00    +0.000 C 
ATOM      4  C   UNL     1      -4.889   3.887 131.034  0.00  0.00    +0.000 C 
ATOM      5  C   UNL     1      -5.013   4.527 129.118  0.00  0.00    +0.000 C 
ATOM      6  N   UNL     1      -4.682   5.440 129.948  0.00  0.00    +0.000 NA
ATOM      7  C   UNL     1      -5.654   3.595 128.128  0.00  0.00    +0.000 C 
ATOM      8  C   UNL     1      -5.553   2.329 128.555  0.00  0.00    +0.000 A 
ATOM      9  N   UNL     1      -5.850   1.268 127.827  0.00  0.00    +0.000 N 
ATOM     10  C   UNL     1      -5.604   0.103 128.479  0.00  0.00    +0.000 A 
ATOM     11  C   UNL     1      -5.126   0.468 129.730  0.00  0.00    +0.000 A 
ATOM     12  C   UNL     1      -5.125   1.751 129.744  0.00  0.00    +0.000 A 
ATOM     13  C   UNL     1      -5.737  -1.160 128.093  0.00  0.00    +0.000 C 
ATOM     14  C   UNL     1      -5.376  -2.280 129.025  0.00  0.00    +0.000 C 
ATOM     15  N   UNL     1      -5.924  -2.548 130.156  0.00  0.00    +0.000 NA
ATOM     16  C   UNL     1      -5.292  -3.643 130.544  0.00  0.00    +0.000 C 
ATOM     17  C   UNL     1      -4.194  -4.002 129.745  0.00  0.00    +0.000 C 
ATOM     18  C   UNL     1      -4.273  -3.198 128.716  0.00  0.00    +0.000 C 
ATOM     19  C   UNL     1      -5.680  -4.264 131.624  0.00  0.00    +0.000 C 
ATOM     20  C   UNL     1      -4.453  -4.341 132.138  0.00  0.00    +0.000 A 
ATOM     21  C   UNL     1      -3.220  -4.448 132.389  0.00  0.00    +0.000 A 
ATOM     22  C   UNL     1      -3.351  -2.292 132.570  0.00  0.00    +0.000 A 
ATOM     23  C   UNL     1      -3.805  -0.225 132.330  0.00  0.00    +0.000 A 
ATOM     24  N   UNL     1      -4.323  -2.319 132.452  0.00  0.00    +0.000 N 
ATOM     25  H   UNL     1      -6.209   1.342 126.904  0.00  0.00    +0.000 HD
ATOM     26  H   UNL     1      -4.736  -3.815 132.895  0.00  0.00    +0.000 HD
ENDROOT
BRANCH   1  31
ATOM     27  C   UNL     1      -1.063   7.957 133.040  0.00  0.00    +0.000 A 
ATOM     28  C   UNL     1      -0.968   9.313 133.143  0.00  0.00    +0.000 A 
ATOM     29  C   UNL     1      -2.387   9.030 133.307  0.00  0.00    +0.000 A 
ATOM     30  C   UNL     1      -3.212   7.068 132.889  0.00  0.00    +0.000 A 
ATOM     31  C   UNL     1      -3.368   4.766 132.417  0.00  0.00    +0.000 A 
ATOM     32  C   UNL     1      -2.230   6.421 132.737  0.00  0.00    +0.000 A 
BRANCH  27  33
ATOM     33  O   UNL     1       0.091   7.301 132.629  0.00  0.00    +0.000 OA
ATOM     34  H   UNL     1       0.806   7.195 133.259  0.00  0.00    +0.000 HD
ENDBRANCH  27  33
ENDBRANCH   1  31
BRANCH  19  35
ATOM     35  C   UNL     1      -6.603  -3.770 132.748  0.00  0.00    +0.000 A 
ATOM     36  C   UNL     1      -6.462  -4.529 133.844  0.00  0.00    +0.000 A 
ATOM     37  C   UNL     1      -7.222  -4.256 134.939  0.00  0.00    +0.000 A 
ATOM     38  C   UNL     1      -8.152  -3.236 134.920  0.00  0.00    +0.000 A 
ATOM     39  C   UNL     1      -8.313  -2.443 133.811  0.00  0.00    +0.000 A 
ATOM     40  C   UNL     1      -7.534  -2.678 132.723  0.00  0.00    +0.000 A 
BRANCH  37  41
ATOM     41  O   UNL     1      -7.125  -4.957 136.095  0.00  0.00    +0.000 OA
ATOM     42  H   UNL     1      -7.338  -5.900 136.026  0.00  0.00    +0.000 HD
ENDBRANCH  37  41
ENDBRANCH  19  35
BRANCH  13  43
ATOM     43  C   UNL     1      -6.248  -1.391 126.734  0.00  0.00    +0.000 A 
ATOM     44  C   UNL     1      -7.613  -1.566 126.472  0.00  0.00    +0.000 A 
ATOM     45  C   UNL     1      -8.056  -1.751 125.174  0.00  0.00    +0.000 A 
ATOM     46  C   UNL     1      -7.144  -1.806 124.139  0.00  0.00    +0.000 A 
ATOM     47  C   UNL     1      -5.800  -1.645 124.386  0.00  0.00    +0.000 A 
ATOM     48  C   UNL     1      -5.357  -1.436 125.674  0.00  0.00    +0.000 A 
BRANCH  45  49
ATOM     49  O   UNL     1      -9.360  -1.893 124.823  0.00  0.00    +0.000 OA
ATOM     50  H   UNL     1      -9.695  -2.803 124.820  0.00  0.00    +0.000 HD
ENDBRANCH  45  49
ENDBRANCH  13  43
BRANCH   7  51
ATOM     51  C   UNL     1      -5.438   4.210 129.279  0.00  0.00    +0.000 A 
ATOM     52  C   UNL     1      -6.778   4.655 130.582  0.00  0.00    +0.000 A 
ATOM     53  C   UNL     1      -6.747   5.893 131.352  0.00  0.00    +0.000 A 
ATOM     54  C   UNL     1      -5.602   6.746 131.180  0.00  0.00    +0.000 A 
ATOM     55  C   UNL     1      -4.062   6.908 130.022  0.00  0.00    +0.000 A 
ATOM     56  C   UNL     1      -3.996   5.669 128.868  0.00  0.00    +0.000 A 
BRANCH  53  57
ATOM     57  O   UNL     1      -7.451   6.278 132.365  0.00  0.00    +0.000 OA
ATOM     58  H   UNL     1      -7.530   7.174 132.083  0.00  0.00    +0.000 HD
ENDBRANCH  53  57
ENDBRANCH   7  51
TORSDOF 8
ENDMDL
MODEL 2
REMARK VINA RESULT:     -11.1      3.202      7.877
REMARK  Name = Temoporfin
REMARK  8 active torsions:
REMARK  status: ('A' for Active; 'I' for Inactive)
REMARK    1  A    between atoms: O_1  and  C_2
REMARK    2  A    between atoms: C_6  and  C_8
REMARK    3  A    between atoms: C_14  and  C_46
REMARK    4  A    between atoms: C_20  and  C_39
REMARK    5  A    between atoms: C_26  and  C_32
REMARK    6  A    between atoms: C_34  and  O_35
REMARK    7  A    between atoms: C_41  and  O_42
REMARK    8  A    between atoms: C_48  and  O_49
REMARK                            x       y       z     vdW  Elec       q    Type
REMARK                         _______ _______ _______ _____ _____    ______ ____
ROOT
ATOM      1  C   UNL     1      -6.220   2.793 127.318  0.00  0.00    +0.000 C 
ATOM      2  C   UNL     1      -7.064   1.739 125.945  0.00  0.00    +0.000 C 
ATOM      3  C   UNL     1      -8.468   2.208 125.610  0.00  0.00    +0.000 C 
ATOM      4  C   UNL     1      -7.340   1.230 126.212  0.00  0.00    +0.000 C 
ATOM      5  C   UNL     1      -7.070  -0.674 125.582  0.00  0.00    +0.000 C 
ATOM      6  N   UNL     1      -7.324   0.151 124.641  0.00  0.00    +0.000 NA
ATOM      7  C   UNL     1      -7.037  -1.743 126.639  0.00  0.00    +0.000 C 
ATOM      8  C   UNL     1      -6.666  -1.217 127.815  0.00  0.00    +0.000 A 
ATOM      9  N   UNL     1      -6.364  -1.925 128.888  0.00  0.00    +0.000 N 
ATOM     10  C   UNL     1      -5.966  -1.149 129.928  0.00  0.00    +0.000 A 
ATOM     11  C   UNL     1      -6.041   0.159 129.469  0.00  0.00    +0.000 A 
ATOM     12  C   UNL     1      -6.461   0.083 128.259  0.00  0.00    +0.000 A 
ATOM     13  C   UNL     1      -5.556  -1.466 131.150  0.00  0.00    +0.000 C 
ATOM     14  C   UNL     1      -5.156  -0.393 132.120  0.00  0.00    +0.000 C 
ATOM     15  N   UNL     1      -5.907   0.537 132.593  0.00  0.00    +0.000 NA
ATOM     16  C   UNL     1      -5.106   1.173 133.431  0.00  0.00    +0.000 C 
ATOM     17  C   UNL     1      -3.761   0.769 133.379  0.00  0.00    +0.000 C 
ATOM     18  C   UNL     1      -3.777  -0.290 132.611  0.00  0.00    +0.000 C 
ATOM     19  C   UNL     1      -5.583   2.127 134.182  0.00  0.00    +0.000 C 
ATOM     20  C   UNL     1      -4.618   2.990 133.867  0.00  0.00    +0.000 A 
ATOM     21  C   UNL     1      -3.557   3.608 133.570  0.00  0.00    +0.000 A 
ATOM     22  C   UNL     1      -4.430   3.588 131.585  0.00  0.00    +0.000 A 
ATOM     23  C   UNL     1      -5.433   3.078 129.777  0.00  0.00    +0.000 A 
ATOM     24  N   UNL     1      -5.254   3.186 131.928  0.00  0.00    +0.000 N 
ATOM     25  H   UNL     1      -6.426  -2.915 128.906  0.00  0.00    +0.000 HD
ATOM     26  H   UNL     1      -5.274   3.589 133.491  0.00  0.00    +0.000 HD
ENDROOT
BRANCH   1  31
ATOM     27  C   UNL     1      -5.959   4.177 121.210  0.00  0.00    +0.000 A 
ATOM     28  C   UNL     1      -6.339   4.193 119.901  0.00  0.00    +0.000 A 
ATOM     29  C   UNL     1      -7.534   3.787 120.626  0.00  0.00    +0.000 A 
ATOM     30  C   UNL     1      -7.462   3.237 122.723  0.00  0.00    +0.000 A 
ATOM     31  C   UNL     1      -6.689   2.941 124.928  0.00  0.00    +0.000 A 
ATOM     32  C   UNL     1      -6.358   3.555 123.018  0.00  0.00    +0.000 A 
BRANCH  27  33
ATOM     33  O   UNL     1      -4.598   4.330 121.445  0.00  0.00    +0.000 OA
ATOM     34  H   UNL     1      -4.280   5.182 121.752  0.00  0.00    +0.000 HD
ENDBRANCH  27  33
ENDBRANCH   1  31
BRANCH  19  35
ATOM     35  C   UNL     1      -6.914   2.883 134.060  0.00  0.00    +0.000 A 
ATOM     36  C   UNL     1      -6.901   3.990 134.818  0.00  0.00    +0.000 A 
ATOM     37  C   UNL     1      -8.010   4.777 134.856  0.00  0.00    +0.000 A 
ATOM     38  C   UNL     1      -9.149   4.432 134.155  0.00  0.00    +0.000 A 
ATOM     39  C   UNL     1      -9.186   3.306 133.371  0.00  0.00    +0.000 A 
ATOM     40  C   UNL     1      -8.073   2.530 133.291  0.00  0.00    +0.000 A 
BRANCH  37  41
ATOM     41  O   UNL     1      -8.073   5.924 135.574  0.00  0.00    +0.000 OA
ATOM     42  H   UNL     1      -7.866   5.833 136.518  0.00  0.00    +0.000 HD
ENDBRANCH  37  41
ENDBRANCH  19  35
BRANCH  13  43
ATOM     43  C   UNL     1      -5.521  -2.897 131.489  0.00  0.00    +0.000 A 
ATOM     44  C   UNL     1      -5.877  -3.370 132.760  0.00  0.00    +0.000 A 
ATOM     45  C   UNL     1      -5.859  -4.726 133.029  0.00  0.00    +0.000 A 
ATOM     46  C   UNL     1      -5.448  -5.614 132.055  0.00  0.00    +0.000 A 
ATOM     47  C   UNL     1      -5.086  -5.161 130.807  0.00  0.00    +0.000 A 
ATOM     48  C   UNL     1      -5.126  -3.812 130.527  0.00  0.00    +0.000 A 
BRANCH  45  49
ATOM     49  O   UNL     1      -6.222  -5.276 134.217  0.00  0.00    +0.000 OA
ATOM     50  H   UNL     1      -7.082  -5.725 134.225  0.00  0.00    +0.000 HD
ENDBRANCH  45  49
ENDBRANCH  13  43
BRANCH   7  51
ATOM     51  C   UNL     1      -7.396  -0.626 126.028  0.00  0.00    +0.000 A 
ATOM     52  C   UNL     1      -9.163   0.127 126.017  0.00  0.00    +0.000 A 
ATOM     53  C   UNL     1      -9.732   0.784 124.846  0.00  0.00    +0.000 A 
ATOM     54  C   UNL     1      -8.875   0.949 123.703  0.00  0.00    +0.000 A 
ATOM     55  C   UNL     1      -7.141   0.360 123.080  0.00  0.00    +0.000 A 
ATOM     56  C   UNL     1      -6.357  -0.627 124.212  0.00  0.00    +0.000 A 
BRANCH  53  57
ATOM     57  O   UNL     1     -10.812   1.480 124.707  0.00  0.00    +0.000 OA
ATOM     58  H   UNL     1     -11.201   0.912 124.062  0.00  0.00    +0.000 HD
ENDBRANCH  53  57
ENDBRANCH   7  51
TORSDOF 8
ENDMDL
MODEL 3
REMARK VINA RESULT:     -10.6      1.598      2.077
REMARK  Name = Temoporfin
REMARK  8 active torsions:
REMARK  status: ('A' for Active; 'I' for Inactive)
REMARK    1  A    between atoms: O_1  and  C_2
REMARK    2  A    between atoms: C_6  and  C_8
REMARK    3  A    between atoms: C_14  and  C_46
REMARK    4  A    between atoms: C_20  and  C_39
REMARK    5  A    between atoms: C_26  and  C_32
REMARK    6  A    between atoms: C_34  and  O_35
REMARK    7  A    between atoms: C_41  and  O_42
REMARK    8  A    between atoms: C_48  and  O_49
REMARK                            x       y       z     vdW  Elec       q    Type
REMARK                         _______ _______ _______ _____ _____    ______ ____
ROOT
ATOM      1  C   UNL     1      -4.048   1.430 133.310  0.00  0.00    +0.000 C 
ATOM      2  C   UNL     1      -4.780   3.018 132.503  0.00  0.00    +0.000 C 
ATOM      3  C   UNL     1      -5.635   3.833 133.456  0.00  0.00    +0.000 C 
ATOM      4  C   UNL     1      -5.323   2.870 132.204  0.00  0.00    +0.000 C 
ATOM      5  C   UNL     1      -5.744   3.367 130.288  0.00  0.00    +0.000 C 
ATOM      6  N   UNL     1      -5.285   4.334 130.985  0.00  0.00    +0.000 NA
ATOM      7  C   UNL     1      -6.533   2.372 129.483  0.00  0.00    +0.000 C 
ATOM      8  C   UNL     1      -6.368   1.140 129.984  0.00  0.00    +0.000 A 
ATOM      9  N   UNL     1      -6.778   0.032 129.393  0.00  0.00    +0.000 N 
ATOM     10  C   UNL     1      -6.434  -1.084 130.085  0.00  0.00    +0.000 A 
ATOM     11  C   UNL     1      -5.766  -0.634 131.215  0.00  0.00    +0.000 A 
ATOM     12  C   UNL     1      -5.761   0.647 131.132  0.00  0.00    +0.000 A 
ATOM     13  C   UNL     1      -6.627  -2.370 129.822  0.00  0.00    +0.000 C 
ATOM     14  C   UNL     1      -6.127  -3.423 130.768  0.00  0.00    +0.000 C 
ATOM     15  N   UNL     1      -6.493  -3.599 131.988  0.00  0.00    +0.000 NA
ATOM     16  C   UNL     1      -5.810  -4.670 132.355  0.00  0.00    +0.000 C 
ATOM     17  C   UNL     1      -4.850  -5.103 131.423  0.00  0.00    +0.000 C 
ATOM     18  C   UNL     1      -5.088  -4.377 130.361  0.00  0.00    +0.000 C 
ATOM     19  C   UNL     1      -6.025  -5.204 133.526  0.00  0.00    +0.000 C 
ATOM     20  C   UNL     1      -4.733  -5.259 133.846  0.00  0.00    +0.000 A 
ATOM     21  C   UNL     1      -3.476  -5.364 133.910  0.00  0.00    +0.000 A 
ATOM     22  C   UNL     1      -3.574  -3.198 133.945  0.00  0.00    +0.000 A 
ATOM     23  C   UNL     1      -4.056  -1.149 133.623  0.00  0.00    +0.000 A 
ATOM     24  N   UNL     1      -4.552  -3.221 133.982  0.00  0.00    +0.000 N 
ATOM     25  H   UNL     1      -7.276   0.041 128.535  0.00  0.00    +0.000 HD
ATOM     26  H   UNL     1      -4.893  -4.674 134.596  0.00  0.00    +0.000 HD
ENDROOT
BRANCH   1  31
ATOM     27  C   UNL     1      -1.242   7.022 132.937  0.00  0.00    +0.000 A 
ATOM     28  C   UNL     1      -1.124   8.380 132.948  0.00  0.00    +0.000 A 
ATOM     29  C   UNL     1      -2.401   8.116 133.595  0.00  0.00    +0.000 A 
ATOM     30  C   UNL     1      -3.308   6.146 133.561  0.00  0.00    +0.000 A 
ATOM     31  C   UNL     1      -3.603   3.829 133.263  0.00  0.00    +0.000 A 
ATOM     32  C   UNL     1      -2.433   5.485 133.111  0.00  0.00    +0.000 A 
BRANCH  27  33
ATOM     33  O   UNL     1      -0.293   6.341 132.185  0.00  0.00    +0.000 OA
ATOM     34  H   UNL     1       0.581   6.726 132.092  0.00  0.00    +0.000 HD
ENDBRANCH  27  33
ENDBRANCH   1  31
BRANCH  19  35
ATOM     35  C   UNL     1      -6.760  -4.615 134.738  0.00  0.00    +0.000 A 
ATOM     36  C   UNL     1      -6.473  -5.310 135.849  0.00  0.00    +0.000 A 
ATOM     37  C   UNL     1      -7.057  -4.948 137.023  0.00  0.00    +0.000 A 
ATOM     38  C   UNL     1      -7.958  -3.904 137.076  0.00  0.00    +0.000 A 
ATOM     39  C   UNL     1      -8.266  -3.175 135.953  0.00  0.00    +0.000 A 
ATOM     40  C   UNL     1      -7.662  -3.500 134.780  0.00  0.00    +0.000 A 
BRANCH  37  41
ATOM     41  O   UNL     1      -6.803  -5.580 138.196  0.00  0.00    +0.000 OA
ATOM     42  H   UNL     1      -7.328  -6.379 138.357  0.00  0.00    +0.000 HD
ENDBRANCH  37  41
ENDBRANCH  19  35
BRANCH  13  43
ATOM     43  C   UNL     1      -7.345  -2.695 128.580  0.00  0.00    +0.000 A 
ATOM     44  C   UNL     1      -6.887  -2.278 127.323  0.00  0.00    +0.000 A 
ATOM     45  C   UNL     1      -7.575  -2.631 126.177  0.00  0.00    +0.000 A 
ATOM     46  C   UNL     1      -8.743  -3.360 126.275  0.00  0.00    +0.000 A 
ATOM     47  C   UNL     1      -9.210  -3.767 127.504  0.00  0.00    +0.000 A 
ATOM     48  C   UNL     1      -8.513  -3.439 128.647  0.00  0.00    +0.000 A 
BRANCH  45  49
ATOM     49  O   UNL     1      -7.186  -2.302 124.918  0.00  0.00    +0.000 OA
ATOM     50  H   UNL     1      -7.872  -2.376 124.236  0.00  0.00    +0.000 HD
ENDBRANCH  45  49
ENDBRANCH  13  43
BRANCH   7  51
ATOM     51  C   UNL     1      -6.139   3.068 130.537  0.00  0.00    +0.000 A 
ATOM     52  C   UNL     1      -7.260   3.636 131.990  0.00  0.00    +0.000 A 
ATOM     53  C   UNL     1      -7.102   4.927 132.647  0.00  0.00    +0.000 A 
ATOM     54  C   UNL     1      -5.991   5.743 132.238  0.00  0.00    +0.000 A 
ATOM     55  C   UNL     1      -4.645   5.788 130.850  0.00  0.00    +0.000 A 
ATOM     56  C   UNL     1      -4.766   4.464 129.799  0.00  0.00    +0.000 A 
BRANCH  53  57
ATOM     57  O   UNL     1      -7.640   5.401 133.723  0.00  0.00    +0.000 OA
ATOM     58  H   UNL     1      -8.526   5.184 133.483  0.00  0.00    +0.000 HD
ENDBRANCH  53  57
ENDBRANCH   7  51
TORSDOF 8
ENDMDL
MODEL 4
REMARK VINA RESULT:     -10.5      3.201      9.655
REMARK  Name = Temoporfin
REMARK  8 active torsions:
REMARK  status: ('A' for Active; 'I' for Inactive)
REMARK    1  A    between atoms: O_1  and  C_2
REMARK    2  A    between atoms: C_6  and  C_8
REMARK    3  A    between atoms: C_14  and  C_46
REMARK    4  A    between atoms: C_20  and  C_39
REMARK    5  A    between atoms: C_26  and  C_32
REMARK    6  A    between atoms: C_34  and  O_35
REMARK    7  A    between atoms: C_41  and  O_42
REMARK    8  A    between atoms: C_48  and  O_49
REMARK                            x       y       z     vdW  Elec       q    Type
REMARK                         _______ _______ _______ _____ _____    ______ ____
ROOT
ATOM      1  C   UNL     1      -4.335   0.111 132.060  0.00  0.00    +0.000 C 
ATOM      2  C   UNL     1      -5.687  -1.256 132.174  0.00  0.00    +0.000 C 
ATOM      3  C   UNL     1      -5.546  -2.325 131.105  0.00  0.00    +0.000 C 
ATOM      4  C   UNL     1      -6.206  -1.063 131.858  0.00  0.00    +0.000 C 
ATOM      5  C   UNL     1      -8.079  -1.081 132.624  0.00  0.00    +0.000 C 
ATOM      6  N   UNL     1      -7.435  -2.170 132.805  0.00  0.00    +0.000 NA
ATOM      7  C   UNL     1      -8.991   0.044 132.222  0.00  0.00    +0.000 C 
ATOM      8  C   UNL     1      -8.270   1.117 131.868  0.00  0.00    +0.000 A 
ATOM      9  N   UNL     1      -8.775   2.317 131.646  0.00  0.00    +0.000 N 
ATOM     10  C   UNL     1      -7.820   3.238 131.358  0.00  0.00    +0.000 A 
ATOM     11  C   UNL     1      -6.614   2.550 131.387  0.00  0.00    +0.000 A 
ATOM     12  C   UNL     1      -6.912   1.334 131.667  0.00  0.00    +0.000 A 
ATOM     13  C   UNL     1      -7.907   4.538 131.106  0.00  0.00    +0.000 C 
ATOM     14  C   UNL     1      -6.670   5.342 130.824  0.00  0.00    +0.000 C 
ATOM     15  N   UNL     1      -5.859   5.187 129.839  0.00  0.00    +0.000 NA
ATOM     16  C   UNL     1      -4.984   6.163 130.013  0.00  0.00    +0.000 C 
ATOM     17  C   UNL     1      -5.118   6.862 131.225  0.00  0.00    +0.000 C 
ATOM     18  C   UNL     1      -6.241   6.416 131.727  0.00  0.00    +0.000 C 
ATOM     19  C   UNL     1      -4.063   6.373 129.114  0.00  0.00    +0.000 C 
ATOM     20  C   UNL     1      -3.069   6.408 130.000  0.00  0.00    +0.000 A 
ATOM     21  C   UNL     1      -2.292   6.554 130.985  0.00  0.00    +0.000 A 
ATOM     22  C   UNL     1      -2.713   4.448 131.277  0.00  0.00    +0.000 A 
ATOM     23  C   UNL     1      -3.617   2.525 131.420  0.00  0.00    +0.000 A 
ATOM     24  N   UNL     1      -3.228   4.413 130.445  0.00  0.00    +0.000 N 
ATOM     25  H   UNL     1      -9.749   2.500 131.694  0.00  0.00    +0.000 HD
ATOM     26  H   UNL     1      -2.659   5.646 129.572  0.00  0.00    +0.000 HD
ENDROOT
BRANCH   1  31
ATOM     27  C   UNL     1      -4.251  -5.022 135.657  0.00  0.00    +0.000 A 
ATOM     28  C   UNL     1      -4.410  -6.334 135.989  0.00  0.00    +0.000 A 
ATOM     29  C   UNL     1      -4.410  -6.320 134.534  0.00  0.00    +0.000 A 
ATOM     30  C   UNL     1      -4.544  -4.469 133.412  0.00  0.00    +0.000 A 
ATOM     31  C   UNL     1      -4.560  -2.174 132.887  0.00  0.00    +0.000 A 
ATOM     32  C   UNL     1      -4.411  -3.658 134.267  0.00  0.00    +0.000 A 
BRANCH  27  33
ATOM     33  O   UNL     1      -4.342  -4.118 136.708  0.00  0.00    +0.000 OA
ATOM     34  H   UNL     1      -4.878  -4.353 137.469  0.00  0.00    +0.000 HD
ENDBRANCH  27  33
ENDBRANCH   1  31
BRANCH  19  35
ATOM     35  C   UNL     1      -3.605   5.463 127.965  0.00  0.00    +0.000 A 
ATOM     36  C   UNL     1      -4.623   5.203 127.132  0.00  0.00    +0.000 A 
ATOM     37  C   UNL     1      -4.411   4.387 126.064  0.00  0.00    +0.000 A 
ATOM     38  C   UNL     1      -3.178   3.804 125.850  0.00  0.00    +0.000 A 
ATOM     39  C   UNL     1      -2.119   4.056 126.688  0.00  0.00    +0.000 A 
ATOM     40  C   UNL     1      -2.305   4.899 127.737  0.00  0.00    +0.000 A 
BRANCH  37  41
ATOM     41  O   UNL     1      -5.377   4.094 125.159  0.00  0.00    +0.000 OA
ATOM     42  H   UNL     1      -6.018   3.423 125.442  0.00  0.00    +0.000 HD
ENDBRANCH  37  41
ENDBRANCH  19  35
BRANCH  13  43
ATOM     43  C   UNL     1      -9.253   5.130 131.118  0.00  0.00    +0.000 A 
ATOM     44  C   UNL     1     -10.071   5.142 129.981  0.00  0.00    +0.000 A 
ATOM     45  C   UNL     1     -11.344   5.682 130.043  0.00  0.00    +0.000 A 
ATOM     46  C   UNL     1     -11.791   6.251 131.218  0.00  0.00    +0.000 A 
ATOM     47  C   UNL     1     -10.993   6.255 132.339  0.00  0.00    +0.000 A 
ATOM     48  C   UNL     1      -9.734   5.696 132.288  0.00  0.00    +0.000 A 
BRANCH  45  49
ATOM     49  O   UNL     1     -12.218   5.704 129.003  0.00  0.00    +0.000 OA
ATOM     50  H   UNL     1     -11.988   5.135 128.252  0.00  0.00    +0.000 HD
ENDBRANCH  45  49
ENDBRANCH  13  43
BRANCH   7  51
ATOM     51  C   UNL     1      -8.045  -0.874 132.111  0.00  0.00    +0.000 A 
ATOM     52  C   UNL     1      -7.579  -1.815 130.502  0.00  0.00    +0.000 A 
ATOM     53  C   UNL     1      -7.198  -3.222 130.494  0.00  0.00    +0.000 A 
ATOM     54  C   UNL     1      -7.078  -3.878 131.769  0.00  0.00    +0.000 A 
ATOM     55  C   UNL     1      -7.484  -3.540 133.629  0.00  0.00    +0.000 A 
ATOM     56  C   UNL     1      -8.160  -2.004 133.868  0.00  0.00    +0.000 A 
BRANCH  53  57
ATOM     57  O   UNL     1      -6.704  -3.960 129.556  0.00  0.00    +0.000 OA
ATOM     58  H   UNL     1      -6.971  -4.780 129.938  0.00  0.00    +0.000 HD
ENDBRANCH  53  57
ENDBRANCH   7  51
TORSDOF 8
ENDMDL
MODEL 5
REMARK VINA RESULT:     -10.2      3.176      8.437
REMARK  Name = Temoporfin
REMARK  8 active torsions:
REMARK  status: ('A' for Active; 'I' for Inactive)
REMARK    1  A    between atoms: O_1  and  C_2
REMARK    2  A    between atoms: C_6  and  C_8
REMARK    3  A    between atoms: C_14  and  C_46
REMARK    4  A    between atoms: C_20  and  C_39
REMARK    5  A    between atoms: C_26  and  C_32
REMARK    6  A    between atoms: C_34  and  O_35
REMARK    7  A    between atoms: C_41  and  O_42
REMARK    8  A    between atoms: C_48  and  O_49
REMARK                            x       y       z     vdW  Elec       q    Type
REMARK                         _______ _______ _______ _____ _____    ______ ____
ROOT
ATOM      1  C   UNL     1      -6.119   0.404 132.571  0.00  0.00    +0.000 C 
ATOM      2  C   UNL     1      -5.561  -1.352 133.131  0.00  0.00    +0.000 C 
ATOM      3  C   UNL     1      -4.130  -1.392 133.635  0.00  0.00    +0.000 C 
ATOM      4  C   UNL     1      -5.351  -1.676 132.624  0.00  0.00    +0.000 C 
ATOM      5  C   UNL     1      -5.968  -3.537 132.123  0.00  0.00    +0.000 C 
ATOM      6  N   UNL     1      -5.658  -3.409 133.356  0.00  0.00    +0.000 NA
ATOM      7  C   UNL     1      -6.091  -3.843 130.657  0.00  0.00    +0.000 C 
ATOM      8  C   UNL     1      -6.281  -2.712 129.964  0.00  0.00    +0.000 A 
ATOM      9  N   UNL     1      -6.610  -2.664 128.686  0.00  0.00    +0.000 N 
ATOM     10  C   UNL     1      -6.799  -1.394 128.244  0.00  0.00    +0.000 A 
ATOM     11  C   UNL     1      -6.551  -0.576 129.338  0.00  0.00    +0.000 A 
ATOM     12  C   UNL     1      -6.242  -1.365 130.302  0.00  0.00    +0.000 A 
ATOM     13  C   UNL     1      -7.159  -0.926 127.056  0.00  0.00    +0.000 C 
ATOM     14  C   UNL     1      -7.308   0.551 126.835  0.00  0.00    +0.000 C 
ATOM     15  N   UNL     1      -6.384   1.441 126.925  0.00  0.00    +0.000 NA
ATOM     16  C   UNL     1      -7.007   2.557 126.587  0.00  0.00    +0.000 C 
ATOM     17  C   UNL     1      -8.400   2.431 126.441  0.00  0.00    +0.000 C 
ATOM     18  C   UNL     1      -8.611   1.142 126.510  0.00  0.00    +0.000 C 
ATOM     19  C   UNL     1      -6.328   3.664 126.464  0.00  0.00    +0.000 C 
ATOM     20  C   UNL     1      -7.165   4.375 127.220  0.00  0.00    +0.000 A 
ATOM     21  C   UNL     1      -8.132   4.910 127.829  0.00  0.00    +0.000 A 
ATOM     22  C   UNL     1      -7.428   3.672 129.463  0.00  0.00    +0.000 A 
ATOM     23  C   UNL     1      -6.660   2.102 130.680  0.00  0.00    +0.000 A 
ATOM     24  N   UNL     1      -6.655   3.380 128.938  0.00  0.00    +0.000 N 
ATOM     25  H   UNL     1      -6.706  -3.481 128.132  0.00  0.00    +0.000 HD
ATOM     26  H   UNL     1      -6.452   4.550 127.845  0.00  0.00    +0.000 HD
ENDROOT
BRANCH   1  31
ATOM     27  C   UNL     1      -6.962  -2.152 138.231  0.00  0.00    +0.000 A 
ATOM     28  C   UNL     1      -6.664  -2.872 139.350  0.00  0.00    +0.000 A 
ATOM     29  C   UNL     1      -5.377  -2.627 138.715  0.00  0.00    +0.000 A 
ATOM     30  C   UNL     1      -5.233  -1.827 136.704  0.00  0.00    +0.000 A 
ATOM     31  C   UNL     1      -5.817  -0.843 134.646  0.00  0.00    +0.000 A 
ATOM     32  C   UNL     1      -6.358  -1.526 136.483  0.00  0.00    +0.000 A 
BRANCH  27  33
ATOM     33  O   UNL     1      -8.313  -2.047 137.924  0.00  0.00    +0.000 OA
ATOM     34  H   UNL     1      -8.684  -1.174 137.781  0.00  0.00    +0.000 HD
ENDBRANCH  27  33
ENDBRANCH   1  31
BRANCH  19  35
ATOM     35  C   UNL     1      -4.907   3.988 126.947  0.00  0.00    +0.000 A 
ATOM     36  C   UNL     1      -4.030   3.093 126.469  0.00  0.00    +0.000 A 
ATOM     37  C   UNL     1      -2.718   3.204 126.814  0.00  0.00    +0.000 A 
ATOM     38  C   UNL     1      -2.292   4.200 127.670  0.00  0.00    +0.000 A 
ATOM     39  C   UNL     1      -3.170   5.130 128.170  0.00  0.00    +0.000 A 
ATOM     40  C   UNL     1      -4.477   5.055 127.804  0.00  0.00    +0.000 A 
BRANCH  37  41
ATOM     41  O   UNL     1      -1.763   2.359 126.355  0.00  0.00    +0.000 OA
ATOM     42  H   UNL     1      -2.050   1.442 126.227  0.00  0.00    +0.000 HD
ENDBRANCH  37  41
ENDBRANCH  19  35
BRANCH  13  43
ATOM     43  C   UNL     1      -7.396  -1.916 125.994  0.00  0.00    +0.000 A 
ATOM     44  C   UNL     1      -8.687  -2.268 125.579  0.00  0.00    +0.000 A 
ATOM     45  C   UNL     1      -8.865  -3.182 124.556  0.00  0.00    +0.000 A 
ATOM     46  C   UNL     1      -7.768  -3.781 123.971  0.00  0.00    +0.000 A 
ATOM     47  C   UNL     1      -6.495  -3.450 124.377  0.00  0.00    +0.000 A 
ATOM     48  C   UNL     1      -6.312  -2.522 125.380  0.00  0.00    +0.000 A 
BRANCH  45  49
ATOM     49  O   UNL     1     -10.075  -3.556 124.065  0.00  0.00    +0.000 OA
ATOM     50  H   UNL     1     -10.050  -4.164 123.310  0.00  0.00    +0.000 HD
ENDBRANCH  45  49
ENDBRANCH  13  43
BRANCH   7  51
ATOM     51  C   UNL     1      -5.605  -3.315 131.768  0.00  0.00    +0.000 A 
ATOM     52  C   UNL     1      -3.756  -2.921 132.108  0.00  0.00    +0.000 A 
ATOM     53  C   UNL     1      -3.138  -3.109 133.415  0.00  0.00    +0.000 A 
ATOM     54  C   UNL     1      -3.998  -3.510 134.498  0.00  0.00    +0.000 A 
ATOM     55  C   UNL     1      -5.809  -4.127 134.772  0.00  0.00    +0.000 A 
ATOM     56  C   UNL     1      -6.685  -4.205 133.323  0.00  0.00    +0.000 A 
BRANCH  53  57
ATOM     57  O   UNL     1      -1.981  -2.751 133.865  0.00  0.00    +0.000 OA
ATOM     58  H   UNL     1      -1.722  -2.287 133.085  0.00  0.00    +0.000 HD
ENDBRANCH  53  57
ENDBRANCH   7  51
TORSDOF 8
ENDMDL
MODEL 6
REMARK VINA RESULT:      -9.8      1.811      2.348
REMARK  Name = Temoporfin
REMARK  8 active torsions:
REMARK  status: ('A' for Active; 'I' for Inactive)
REMARK    1  A    between atoms: O_1  and  C_2
REMARK    2  A    between atoms: C_6  and  C_8
REMARK    3  A    between atoms: C_14  and  C_46
REMARK    4  A    between atoms: C_20  and  C_39
REMARK    5  A    between atoms: C_26  and  C_32
REMARK    6  A    between atoms: C_34  and  O_35
REMARK    7  A    between atoms: C_41  and  O_42
REMARK    8  A    between atoms: C_48  and  O_49
REMARK                            x       y       z     vdW  Elec       q    Type
REMARK                         _______ _______ _______ _____ _____    ______ ____
ROOT
ATOM      1  C   UNL     1      -3.307   2.268 132.283  0.00  0.00    +0.000 C 
ATOM      2  C   UNL     1      -4.002   4.054 132.462  0.00  0.00    +0.000 C 
ATOM      3  C   UNL     1      -4.582   4.335 133.837  0.00  0.00    +0.000 C 
ATOM      4  C   UNL     1      -4.603   4.068 132.249  0.00  0.00    +0.000 C 
ATOM      5  C   UNL     1      -5.308   5.408 130.906  0.00  0.00    +0.000 C 
ATOM      6  N   UNL     1      -4.632   5.932 131.855  0.00  0.00    +0.000 NA
ATOM      7  C   UNL     1      -6.329   4.913 129.920  0.00  0.00    +0.000 C 
ATOM      8  C   UNL     1      -6.207   3.588 129.757  0.00  0.00    +0.000 A 
ATOM      9  N   UNL     1      -6.830   2.890 128.825  0.00  0.00    +0.000 N 
ATOM     10  C   UNL     1      -6.486   1.576 128.842  0.00  0.00    +0.000 A 
ATOM     11  C   UNL     1      -5.581   1.440 129.887  0.00  0.00    +0.000 A 
ATOM     12  C   UNL     1      -5.458   2.610 130.398  0.00  0.00    +0.000 A 
ATOM     13  C   UNL     1      -6.857   0.565 128.068  0.00  0.00    +0.000 C 
ATOM     14  C   UNL     1      -6.308  -0.813 128.301  0.00  0.00    +0.000 C 
ATOM     15  N   UNL     1      -6.464  -1.536 129.352  0.00  0.00    +0.000 NA
ATOM     16  C   UNL     1      -5.842  -2.660 129.038  0.00  0.00    +0.000 C 
ATOM     17  C   UNL     1      -5.116  -2.614 127.835  0.00  0.00    +0.000 C 
ATOM     18  C   UNL     1      -5.464  -1.473 127.298  0.00  0.00    +0.000 C 
ATOM     19  C   UNL     1      -5.897  -3.678 129.852  0.00  0.00    +0.000 C 
ATOM     20  C   UNL     1      -4.581  -3.887 129.835  0.00  0.00    +0.000 A 
ATOM     21  C   UNL     1      -3.352  -4.021 129.581  0.00  0.00    +0.000 A 
ATOM     22  C   UNL     1      -3.214  -2.123 130.620  0.00  0.00    +0.000 A 
ATOM     23  C   UNL     1      -3.529  -0.158 131.377  0.00  0.00    +0.000 A 
ATOM     24  N   UNL     1      -4.166  -2.153 130.845  0.00  0.00    +0.000 N 
ATOM     25  H   UNL     1      -7.471   3.304 128.191  0.00  0.00    +0.000 HD
ATOM     26  H   UNL     1      -4.541  -3.721 130.784  0.00  0.00    +0.000 HD
ENDROOT
BRANCH   1  31
ATOM     27  C   UNL     1      -0.180   7.520 133.669  0.00  0.00    +0.000 A 
ATOM     28  C   UNL     1       0.092   8.701 134.292  0.00  0.00    +0.000 A 
ATOM     29  C   UNL     1      -0.893   8.052 135.145  0.00  0.00    +0.000 A 
ATOM     30  C   UNL     1      -1.978   6.290 134.496  0.00  0.00    +0.000 A 
ATOM     31  C   UNL     1      -2.629   4.405 133.244  0.00  0.00    +0.000 A 
ATOM     32  C   UNL     1      -1.404   6.008 133.498  0.00  0.00    +0.000 A 
BRANCH  27  33
ATOM     33  O   UNL     1       0.353   7.374 132.393  0.00  0.00    +0.000 OA
ATOM     34  H   UNL     1       1.297   7.231 132.305  0.00  0.00    +0.000 HD
ENDBRANCH  27  33
ENDBRANCH   1  31
BRANCH  19  35
ATOM     35  C   UNL     1      -6.336  -3.720 131.323  0.00  0.00    +0.000 A 
ATOM     36  C   UNL     1      -5.655  -4.661 131.993  0.00  0.00    +0.000 A 
ATOM     37  C   UNL     1      -5.929  -4.862 133.311  0.00  0.00    +0.000 A 
ATOM     38  C   UNL     1      -6.915  -4.135 133.949  0.00  0.00    +0.000 A 
ATOM     39  C   UNL     1      -7.623  -3.165 133.285  0.00  0.00    +0.000 A 
ATOM     40  C   UNL     1      -7.335  -2.926 131.979  0.00  0.00    +0.000 A 
BRANCH  37  41
ATOM     41  O   UNL     1      -5.271  -5.773 134.068  0.00  0.00    +0.000 OA
ATOM     42  H   UNL     1      -4.579  -5.410 134.643  0.00  0.00    +0.000 HD
ENDBRANCH  37  41
ENDBRANCH  19  35
BRANCH  13  43
ATOM     43  C   UNL     1      -7.817   0.865 126.995  0.00  0.00    +0.000 A 
ATOM     44  C   UNL     1      -7.924   2.142 126.427  0.00  0.00    +0.000 A 
ATOM     45  C   UNL     1      -8.819   2.375 125.399  0.00  0.00    +0.000 A 
ATOM     46  C   UNL     1      -9.641   1.357 124.960  0.00  0.00    +0.000 A 
ATOM     47  C   UNL     1      -9.552   0.101 125.516  0.00  0.00    +0.000 A 
ATOM     48  C   UNL     1      -8.644  -0.142 126.524  0.00  0.00    +0.000 A 
BRANCH  45  49
ATOM     49  O   UNL     1      -8.966   3.569 124.766  0.00  0.00    +0.000 OA
ATOM     50  H   UNL     1      -8.177   3.897 124.305  0.00  0.00    +0.000 HD
ENDBRANCH  45  49
ENDBRANCH  13  43
BRANCH   7  51
ATOM     51  C   UNL     1      -5.680   5.030 131.067  0.00  0.00    +0.000 A 
ATOM     52  C   UNL     1      -6.461   4.893 132.817  0.00  0.00    +0.000 A 
ATOM     53  C   UNL     1      -6.041   5.729 133.935  0.00  0.00    +0.000 A 
ATOM     54  C   UNL     1      -4.926   6.610 133.714  0.00  0.00    +0.000 A 
ATOM     55  C   UNL     1      -3.840   7.254 132.249  0.00  0.00    +0.000 A 
ATOM     56  C   UNL     1      -4.296   6.571 130.767  0.00  0.00    +0.000 A 
BRANCH  53  57
ATOM     57  O   UNL     1      -6.327   5.666 135.193  0.00  0.00    +0.000 OA
ATOM     58  H   UNL     1      -5.971   4.803 135.323  0.00  0.00    +0.000 HD
ENDBRANCH  53  57
ENDBRANCH   7  51
TORSDOF 8
ENDMDL
MODEL 7
REMARK VINA RESULT:      -9.7      4.845      7.245
REMARK  Name = Temoporfin
REMARK  8 active torsions:
REMARK  status: ('A' for Active; 'I' for Inactive)
REMARK    1  A    between atoms: O_1  and  C_2
REMARK    2  A    between atoms: C_6  and  C_8
REMARK    3  A    between atoms: C_14  and  C_46
REMARK    4  A    between atoms: C_20  and  C_39
REMARK    5  A    between atoms: C_26  and  C_32
REMARK    6  A    between atoms: C_34  and  O_35
REMARK    7  A    between atoms: C_41  and  O_42
REMARK    8  A    between atoms: C_48  and  O_49
REMARK                            x       y       z     vdW  Elec       q    Type
REMARK                         _______ _______ _______ _____ _____    ______ ____
ROOT
ATOM      1  C   UNL     1      -4.591   6.032 134.841  0.00  0.00    +0.000 C 
ATOM      2  C   UNL     1      -3.047   7.169 134.672  0.00  0.00    +0.000 C 
ATOM      3  C   UNL     1      -3.360   8.638 134.890  0.00  0.00    +0.000 C 
ATOM      4  C   UNL     1      -2.962   7.318 134.059  0.00  0.00    +0.000 C 
ATOM      5  C   UNL     1      -1.211   7.116 133.065  0.00  0.00    +0.000 C 
ATOM      6  N   UNL     1      -1.099   7.693 134.199  0.00  0.00    +0.000 NA
ATOM      7  C   UNL     1      -1.289   6.699 131.623  0.00  0.00    +0.000 C 
ATOM      8  C   UNL     1      -2.431   6.035 131.396  0.00  0.00    +0.000 A 
ATOM      9  N   UNL     1      -2.708   5.382 130.283  0.00  0.00    +0.000 N 
ATOM     10  C   UNL     1      -3.907   4.748 130.335  0.00  0.00    +0.000 A 
ATOM     11  C   UNL     1      -4.433   5.045 131.585  0.00  0.00    +0.000 A 
ATOM     12  C   UNL     1      -3.567   5.798 132.160  0.00  0.00    +0.000 A 
ATOM     13  C   UNL     1      -4.527   3.975 129.453  0.00  0.00    +0.000 C 
ATOM     14  C   UNL     1      -5.868   3.381 129.773  0.00  0.00    +0.000 C 
ATOM     15  N   UNL     1      -6.958   4.020 130.006  0.00  0.00    +0.000 NA
ATOM     16  C   UNL     1      -7.844   3.053 130.174  0.00  0.00    +0.000 C 
ATOM     17  C   UNL     1      -7.298   1.759 130.226  0.00  0.00    +0.000 C 
ATOM     18  C   UNL     1      -6.046   1.929 129.887  0.00  0.00    +0.000 C 
ATOM     19  C   UNL     1      -9.106   3.351 130.324  0.00  0.00    +0.000 C 
ATOM     20  C   UNL     1      -9.259   2.584 131.403  0.00  0.00    +0.000 A 
ATOM     21  C   UNL     1      -9.249   1.703 132.308  0.00  0.00    +0.000 A 
ATOM     22  C   UNL     1      -7.930   3.119 133.286  0.00  0.00    +0.000 A 
ATOM     23  C   UNL     1      -6.448   4.574 133.754  0.00  0.00    +0.000 A 
ATOM     24  N   UNL     1      -8.071   3.776 132.573  0.00  0.00    +0.000 N 
ATOM     25  H   UNL     1      -2.088   5.368 129.508  0.00  0.00    +0.000 HD
ATOM     26  H   UNL     1      -9.490   3.361 131.924  0.00  0.00    +0.000 HD
ENDROOT
BRANCH   1  31
ATOM     27  C   UNL     1      -0.325   7.384 139.229  0.00  0.00    +0.000 A 
ATOM     28  C   UNL     1       0.513   8.151 139.983  0.00  0.00    +0.000 A 
ATOM     29  C   UNL     1      -0.416   9.098 139.385  0.00  0.00    +0.000 A 
ATOM     30  C   UNL     1      -1.775   8.515 137.798  0.00  0.00    +0.000 A 
ATOM     31  C   UNL     1      -3.010   7.194 136.290  0.00  0.00    +0.000 A 
ATOM     32  C   UNL     1      -1.642   7.337 137.788  0.00  0.00    +0.000 A 
BRANCH  27  33
ATOM     33  O   UNL     1       0.043   6.052 139.084  0.00  0.00    +0.000 OA
ATOM     34  H   UNL     1       0.493   5.786 138.279  0.00  0.00    +0.000 HD
ENDBRANCH  27  33
ENDBRANCH   1  31
BRANCH  19  35
ATOM     35  C   UNL     1      -9.749   4.707 130.647  0.00  0.00    +0.000 A 
ATOM     36  C   UNL     1      -9.485   5.599 129.681  0.00  0.00    +0.000 A 
ATOM     37  C   UNL     1      -9.954   6.869 129.808  0.00  0.00    +0.000 A 
ATOM     38  C   UNL     1     -10.664   7.255 130.928  0.00  0.00    +0.000 A 
ATOM     39  C   UNL     1     -10.949   6.360 131.930  0.00  0.00    +0.000 A 
ATOM     40  C   UNL     1     -10.520   5.077 131.799  0.00  0.00    +0.000 A 
BRANCH  37  41
ATOM     41  O   UNL     1      -9.756   7.824 128.867  0.00  0.00    +0.000 OA
ATOM     42  H   UNL     1      -9.132   8.525 129.114  0.00  0.00    +0.000 HD
ENDBRANCH  37  41
ENDBRANCH  19  35
BRANCH  13  43
ATOM     43  C   UNL     1      -3.841   3.744 128.173  0.00  0.00    +0.000 A 
ATOM     44  C   UNL     1      -2.574   3.151 128.103  0.00  0.00    +0.000 A 
ATOM     45  C   UNL     1      -1.976   2.923 126.877  0.00  0.00    +0.000 A 
ATOM     46  C   UNL     1      -2.613   3.321 125.719  0.00  0.00    +0.000 A 
ATOM     47  C   UNL     1      -3.854   3.914 125.774  0.00  0.00    +0.000 A 
ATOM     48  C   UNL     1      -4.464   4.120 126.993  0.00  0.00    +0.000 A 
BRANCH  45  49
ATOM     49  O   UNL     1      -0.769   2.323 126.713  0.00  0.00    +0.000 OA
ATOM     50  H   UNL     1      -0.631   1.888 125.856  0.00  0.00    +0.000 HD
ENDBRANCH  45  49
ENDBRANCH  13  43
BRANCH   7  51
ATOM     51  C   UNL     1      -1.630   7.299 132.752  0.00  0.00    +0.000 A 
ATOM     52  C   UNL     1      -2.526   8.992 132.896  0.00  0.00    +0.000 A 
ATOM     53  C   UNL     1      -2.215   9.961 133.940  0.00  0.00    +0.000 A 
ATOM     54  C   UNL     1      -1.267   9.563 134.947  0.00  0.00    +0.000 A 
ATOM     55  C   UNL     1      -0.016   8.128 135.288  0.00  0.00    +0.000 A 
ATOM     56  C   UNL     1      -0.038   6.955 134.066  0.00  0.00    +0.000 A 
BRANCH  53  57
ATOM     57  O   UNL     1      -2.812  11.053 134.287  0.00  0.00    +0.000 OA
ATOM     58  H   UNL     1      -2.077  11.412 134.755  0.00  0.00    +0.000 HD
ENDBRANCH  53  57
ENDBRANCH   7  51
TORSDOF 8
ENDMDL
MODEL 8
REMARK VINA RESULT:      -9.6      5.185     11.714
REMARK  Name = Temoporfin
REMARK  8 active torsions:
REMARK  status: ('A' for Active; 'I' for Inactive)
REMARK    1  A    between atoms: O_1  and  C_2
REMARK    2  A    between atoms: C_6  and  C_8
REMARK    3  A    between atoms: C_14  and  C_46
REMARK    4  A    between atoms: C_20  and  C_39
REMARK    5  A    between atoms: C_26  and  C_32
REMARK    6  A    between atoms: C_34  and  O_35
REMARK    7  A    between atoms: C_41  and  O_42
REMARK    8  A    between atoms: C_48  and  O_49
REMARK                            x       y       z     vdW  Elec       q    Type
REMARK                         _______ _______ _______ _____ _____    ______ ____
ROOT
ATOM      1  C   UNL     1      -4.123   5.281 135.130  0.00  0.00    +0.000 C 
ATOM      2  C   UNL     1      -4.594   4.920 133.299  0.00  0.00    +0.000 C 
ATOM      3  C   UNL     1      -4.096   3.573 132.808  0.00  0.00    +0.000 C 
ATOM      4  C   UNL     1      -4.156   5.178 132.915  0.00  0.00    +0.000 C 
ATOM      5  C   UNL     1      -4.580   6.381 131.344  0.00  0.00    +0.000 C 
ATOM      6  N   UNL     1      -5.286   5.317 131.387  0.00  0.00    +0.000 NA
ATOM      7  C   UNL     1      -3.622   7.506 131.067  0.00  0.00    +0.000 C 
ATOM      8  C   UNL     1      -2.965   7.836 132.188  0.00  0.00    +0.000 A 
ATOM      9  N   UNL     1      -2.196   8.902 132.316  0.00  0.00    +0.000 N 
ATOM     10  C   UNL     1      -1.695   9.035 133.571  0.00  0.00    +0.000 A 
ATOM     11  C   UNL     1      -2.180   7.947 134.285  0.00  0.00    +0.000 A 
ATOM     12  C   UNL     1      -2.891   7.273 133.456  0.00  0.00    +0.000 A 
ATOM     13  C   UNL     1      -0.919   9.967 134.109  0.00  0.00    +0.000 C 
ATOM     14  C   UNL     1      -0.512   9.877 135.552  0.00  0.00    +0.000 C 
ATOM     15  N   UNL     1       0.192   8.950 136.097  0.00  0.00    +0.000 NA
ATOM     16  C   UNL     1       0.312   9.361 137.348  0.00  0.00    +0.000 C 
ATOM     17  C   UNL     1      -0.470  10.482 137.676  0.00  0.00    +0.000 C 
ATOM     18  C   UNL     1      -0.942  10.887 136.526  0.00  0.00    +0.000 C 
ATOM     19  C   UNL     1       1.074   8.699 138.175  0.00  0.00    +0.000 C 
ATOM     20  C   UNL     1       0.147   8.635 139.131  0.00  0.00    +0.000 A 
ATOM     21  C   UNL     1      -0.790   8.803 139.960  0.00  0.00    +0.000 A 
ATOM     22  C   UNL     1      -1.862   7.509 138.590  0.00  0.00    +0.000 A 
ATOM     23  C   UNL     1      -2.655   6.521 136.878  0.00  0.00    +0.000 A 
ATOM     24  N   UNL     1      -1.053   7.369 138.056  0.00  0.00    +0.000 N 
ATOM     25  H   UNL     1      -2.022   9.526 131.564  0.00  0.00    +0.000 HD
ATOM     26  H   UNL     1       0.158   7.672 139.078  0.00  0.00    +0.000 HD
ENDROOT
BRANCH   1  31
ATOM     27  C   UNL     1      -9.482   2.771 133.063  0.00  0.00    +0.000 A 
ATOM     28  C   UNL     1     -10.300   1.985 132.307  0.00  0.00    +0.000 A 
ATOM     29  C   UNL     1      -8.973   1.412 132.132  0.00  0.00    +0.000 A 
ATOM     30  C   UNL     1      -7.189   2.440 132.811  0.00  0.00    +0.000 A 
ATOM     31  C   UNL     1      -5.778   3.987 133.889  0.00  0.00    +0.000 A 
ATOM     32  C   UNL     1      -7.650   3.333 133.440  0.00  0.00    +0.000 A 
BRANCH  27  33
ATOM     33  O   UNL     1     -10.059   3.928 133.573  0.00  0.00    +0.000 OA
ATOM     34  H   UNL     1     -11.014   4.011 133.550  0.00  0.00    +0.000 HD
ENDBRANCH  27  33
ENDBRANCH   1  31
BRANCH  19  35
ATOM     35  C   UNL     1       1.664   7.289 138.032  0.00  0.00    +0.000 A 
ATOM     36  C   UNL     1       2.695   7.293 137.175  0.00  0.00    +0.000 A 
ATOM     37  C   UNL     1       3.330   6.121 136.901  0.00  0.00    +0.000 A 
ATOM     38  C   UNL     1       2.906   4.935 137.466  0.00  0.00    +0.000 A 
ATOM     39  C   UNL     1       1.854   4.906 138.348  0.00  0.00    +0.000 A 
ATOM     40  C   UNL     1       1.234   6.074 138.662  0.00  0.00    +0.000 A 
BRANCH  37  41
ATOM     41  O   UNL     1       4.396   6.040 136.067  0.00  0.00    +0.000 OA
ATOM     42  H   UNL     1       4.996   6.802 136.088  0.00  0.00    +0.000 HD
ENDBRANCH  37  41
ENDBRANCH  19  35
BRANCH  13  43
ATOM     43  C   UNL     1      -0.490  11.065 133.230  0.00  0.00    +0.000 A 
ATOM     44  C   UNL     1      -1.398  11.986 132.691  0.00  0.00    +0.000 A 
ATOM     45  C   UNL     1      -0.949  13.023 131.893  0.00  0.00    +0.000 A 
ATOM     46  C   UNL     1       0.393  13.124 131.591  0.00  0.00    +0.000 A 
ATOM     47  C   UNL     1       1.294  12.219 132.106  0.00  0.00    +0.000 A 
ATOM     48  C   UNL     1       0.854  11.199 132.922  0.00  0.00    +0.000 A 
BRANCH  45  49
ATOM     49  O   UNL     1      -1.751  13.980 131.359  0.00  0.00    +0.000 OA
ATOM     50  H   UNL     1      -1.948  13.881 130.414  0.00  0.00    +0.000 HD
ENDBRANCH  45  49
ENDBRANCH  13  43
BRANCH   7  51
ATOM     51  C   UNL     1      -4.038   6.304 131.431  0.00  0.00    +0.000 A 
ATOM     52  C   UNL     1      -3.138   4.647 131.065  0.00  0.00    +0.000 A 
ATOM     53  C   UNL     1      -3.851   3.419 130.736  0.00  0.00    +0.000 A 
ATOM     54  C   UNL     1      -5.288   3.456 130.794  0.00  0.00    +0.000 A 
ATOM     55  C   UNL     1      -6.708   4.755 130.983  0.00  0.00    +0.000 A 
ATOM     56  C   UNL     1      -6.113   6.331 131.165  0.00  0.00    +0.000 A 
BRANCH  53  57
ATOM     57  O   UNL     1      -3.433   2.201 130.626  0.00  0.00    +0.000 OA
ATOM     58  H   UNL     1      -2.578   2.428 130.300  0.00  0.00    +0.000 HD
ENDBRANCH  53  57
ENDBRANCH   7  51
TORSDOF 8
ENDMDL
