MODEL 1
REMARK VINA RESULT:      -9.1      0.000      0.000
REMARK  Name = Teniposide
REMARK  11 active torsions:
REMARK  status: ('A' for Active; 'I' for Inactive)
REMARK    1  A    between atoms: C_9  and  C_10
REMARK    2  A    between atoms: C_12  and  O_13
REMARK    3  A    between atoms: O_13  and  C_14
REMARK    4  A    between atoms: C_15  and  O_16
REMARK    5  A    between atoms: C_17  and  O_18
REMARK    6  A    between atoms: O_18  and  C_19
REMARK    7  A    between atoms: C_30  and  O_31
REMARK    8  A    between atoms: O_31  and  C_32
REMARK    9  A    between atoms: C_39  and  C_47
REMARK   10  A    between atoms: C_43  and  O_44
REMARK   11  A    between atoms: C_45  and  O_46
REMARK                            x       y       z     vdW  Elec       q    Type
REMARK                         _______ _______ _______ _____ _____    ______ ____
ROOT
ATOM      1  C   UNL     1      -4.104   5.142 128.992  0.00  0.00    +0.000 C 
ATOM      2  C   UNL     1      -3.163   4.937 127.829  0.00  0.00    +0.000 C 
ATOM      3  O   UNL     1      -2.271   6.060 127.889  0.00  0.00    +0.000 OA
ATOM      4  C   UNL     1      -2.911   7.113 128.487  0.00  0.00    +0.000 C 
ATOM      5  O   UNL     1      -2.473   8.247 128.508  0.00  0.00    +0.000 OA
ATOM      6  C   UNL     1      -4.252   6.658 128.993  0.00  0.00    +0.000 C 
ATOM      7  C   UNL     1      -4.788   7.136 130.347  0.00  0.00    +0.000 C 
ATOM      8  C   UNL     1      -6.116   6.374 130.605  0.00  0.00    +0.000 A 
ATOM      9  C   UNL     1      -6.335   5.061 130.074  0.00  0.00    +0.000 A 
ATOM     10  C   UNL     1      -7.424   4.301 130.528  0.00  0.00    +0.000 A 
ATOM     11  C   UNL     1      -8.328   4.888 131.375  0.00  0.00    +0.000 A 
ATOM     12  O   UNL     1      -9.483   4.315 131.802  0.00  0.00    +0.000 OA
ATOM     13  C   UNL     1     -10.084   5.434 132.483  0.00  0.00    +0.000 C 
ATOM     14  O   UNL     1      -9.171   6.538 132.672  0.00  0.00    +0.000 OA
ATOM     15  C   UNL     1      -8.154   6.163 131.851  0.00  0.00    +0.000 A 
ATOM     16  C   UNL     1      -7.051   6.920 131.512  0.00  0.00    +0.000 A 
ATOM     17  C   UNL     1      -5.490   4.478 128.948  0.00  0.00    +0.000 C 
ENDROOT
BRANCH   7  18
ATOM     18  C   UNL     1      -3.799   6.980 131.515  0.00  0.00    +0.000 A 
ATOM     19  C   UNL     1      -3.012   8.052 131.951  0.00  0.00    +0.000 A 
ATOM     20  C   UNL     1      -2.071   7.907 132.974  0.00  0.00    +0.000 A 
ATOM     21  C   UNL     1      -1.958   6.665 133.617  0.00  0.00    +0.000 A 
ATOM     22  C   UNL     1      -2.765   5.586 133.250  0.00  0.00    +0.000 A 
ATOM     23  C   UNL     1      -3.662   5.764 132.198  0.00  0.00    +0.000 A 
BRANCH  20  24
ATOM     24  O   UNL     1      -1.238   8.911 133.408  0.00  0.00    +0.000 OA
ATOM     25  C   UNL     1      -1.863   9.998 134.098  0.00  0.00    +0.000 C 
ENDBRANCH  20  24
BRANCH  21  26
ATOM     26  O   UNL     1      -1.045   6.504 134.629  0.00  0.00    +0.000 OA
ATOM     27  H   UNL     1      -1.567   6.413 135.445  0.00  0.00    +0.000 HD
ENDBRANCH  21  26
BRANCH  22  28
ATOM     28  O   UNL     1      -2.635   4.404 133.931  0.00  0.00    +0.000 OA
ATOM     29  C   UNL     1      -2.778   3.207 133.166  0.00  0.00    +0.000 C 
ENDBRANCH  22  28
ENDBRANCH   7  18
BRANCH  17  30
ATOM     30  O   UNL     1      -6.130   4.792 127.705  0.00  0.00    +0.000 OA
BRANCH  30  31
ATOM     31  C   UNL     1      -6.752   3.753 126.921  0.00  0.00    +0.000 C 
ATOM     32  O   UNL     1      -6.013   2.524 126.852  0.00  0.00    +0.000 OA
ATOM     33  C   UNL     1      -6.741   1.447 126.245  0.00  0.00    +0.000 C 
ATOM     34  C   UNL     1      -5.907   0.167 126.142  0.00  0.00    +0.000 C 
ATOM     35  O   UNL     1      -6.633  -0.877 125.491  0.00  0.00    +0.000 OA
ATOM     36  C   UNL     1      -7.138  -0.510 124.204  0.00  0.00    +0.000 C 
ATOM     37  O   UNL     1      -7.933   0.682 124.277  0.00  0.00    +0.000 OA
ATOM     38  C   UNL     1      -7.187   1.780 124.821  0.00  0.00    +0.000 C 
ATOM     39  C   UNL     1      -8.016   3.076 124.864  0.00  0.00    +0.000 C 
ATOM     40  C   UNL     1      -7.191   4.211 125.515  0.00  0.00    +0.000 C 
BRANCH  36  41
ATOM     41  C   UNL     1      -8.062  -1.641 123.798  0.00  0.00    +0.000 A 
ATOM     42  C   UNL     1      -9.032  -1.618 122.811  0.00  0.00    +0.000 A 
ATOM     43  C   UNL     1      -9.788  -2.822 122.727  0.00  0.00    +0.000 A 
ATOM     44  C   UNL     1      -9.369  -3.755 123.649  0.00  0.00    +0.000 A 
ATOM     45  S   UNL     1      -8.066  -3.165 124.600  0.00  0.00    +0.000 S 
ENDBRANCH  36  41
BRANCH  39  46
ATOM     46  O   UNL     1      -8.441   3.457 123.552  0.00  0.00    +0.000 OA
ATOM     47  H   UNL     1      -9.293   3.032 123.362  0.00  0.00    +0.000 HD
ENDBRANCH  39  46
BRANCH  40  48
ATOM     48  O   UNL     1      -7.931   5.435 125.579  0.00  0.00    +0.000 OA
ATOM     49  H   UNL     1      -8.281   5.626 124.691  0.00  0.00    +0.000 HD
ENDBRANCH  40  48
ENDBRANCH  30  31
ENDBRANCH  17  30
TORSDOF 9
ENDMDL
MODEL 2
REMARK VINA RESULT:      -9.1      0.198      1.901
REMARK  Name = Teniposide
REMARK  11 active torsions:
REMARK  status: ('A' for Active; 'I' for Inactive)
REMARK    1  A    between atoms: C_9  and  C_10
REMARK    2  A    between atoms: C_12  and  O_13
REMARK    3  A    between atoms: O_13  and  C_14
REMARK    4  A    between atoms: C_15  and  O_16
REMARK    5  A    between atoms: C_17  and  O_18
REMARK    6  A    between atoms: O_18  and  C_19
REMARK    7  A    between atoms: C_30  and  O_31
REMARK    8  A    between atoms: O_31  and  C_32
REMARK    9  A    between atoms: C_39  and  C_47
REMARK   10  A    between atoms: C_43  and  O_44
REMARK   11  A    between atoms: C_45  and  O_46
REMARK                            x       y       z     vdW  Elec       q    Type
REMARK                         _______ _______ _______ _____ _____    ______ ____
ROOT
ATOM      1  C   UNL     1      -4.074   5.108 129.081  0.00  0.00    +0.000 C 
ATOM      2  C   UNL     1      -3.108   4.894 127.940  0.00  0.00    +0.000 C 
ATOM      3  O   UNL     1      -2.214   6.015 128.015  0.00  0.00    +0.000 OA
ATOM      4  C   UNL     1      -2.863   7.072 128.595  0.00  0.00    +0.000 C 
ATOM      5  O   UNL     1      -2.422   8.204 128.620  0.00  0.00    +0.000 OA
ATOM      6  C   UNL     1      -4.217   6.623 129.073  0.00  0.00    +0.000 C 
ATOM      7  C   UNL     1      -4.781   7.109 130.413  0.00  0.00    +0.000 C 
ATOM      8  C   UNL     1      -6.117   6.353 130.644  0.00  0.00    +0.000 A 
ATOM      9  C   UNL     1      -6.329   5.038 130.114  0.00  0.00    +0.000 A 
ATOM     10  C   UNL     1      -7.430   4.284 130.547  0.00  0.00    +0.000 A 
ATOM     11  C   UNL     1      -8.350   4.878 131.371  0.00  0.00    +0.000 A 
ATOM     12  O   UNL     1      -9.516   4.311 131.775  0.00  0.00    +0.000 OA
ATOM     13  C   UNL     1     -10.128   5.434 132.438  0.00  0.00    +0.000 C 
ATOM     14  O   UNL     1      -9.216   6.536 132.642  0.00  0.00    +0.000 OA
ATOM     15  C   UNL     1      -8.182   6.154 131.846  0.00  0.00    +0.000 A 
ATOM     16  C   UNL     1      -7.069   6.906 131.529  0.00  0.00    +0.000 A 
ATOM     17  C   UNL     1      -5.461   4.448 129.009  0.00  0.00    +0.000 C 
ENDROOT
BRANCH   7  18
ATOM     18  C   UNL     1      -3.819   6.955 131.602  0.00  0.00    +0.000 A 
ATOM     19  C   UNL     1      -3.768   5.772 132.351  0.00  0.00    +0.000 A 
ATOM     20  C   UNL     1      -2.937   5.643 133.467  0.00  0.00    +0.000 A 
ATOM     21  C   UNL     1      -2.089   6.708 133.807  0.00  0.00    +0.000 A 
ATOM     22  C   UNL     1      -2.069   7.883 133.052  0.00  0.00    +0.000 A 
ATOM     23  C   UNL     1      -2.943   7.985 131.971  0.00  0.00    +0.000 A 
BRANCH  20  24
ATOM     24  O   UNL     1      -2.883   4.525 134.266  0.00  0.00    +0.000 OA
ATOM     25  C   UNL     1      -3.185   3.278 133.632  0.00  0.00    +0.000 C 
ENDBRANCH  20  24
BRANCH  21  26
ATOM     26  O   UNL     1      -1.260   6.597 134.895  0.00  0.00    +0.000 OA
ATOM     27  H   UNL     1      -0.363   6.778 134.564  0.00  0.00    +0.000 HD
ENDBRANCH  21  26
BRANCH  22  28
ATOM     28  O   UNL     1      -1.200   8.881 133.409  0.00  0.00    +0.000 OA
ATOM     29  C   UNL     1      -1.711  10.213 133.376  0.00  0.00    +0.000 C 
ENDBRANCH  22  28
ENDBRANCH   7  18
BRANCH  17  30
ATOM     30  O   UNL     1      -6.072   4.759 127.751  0.00  0.00    +0.000 OA
BRANCH  30  31
ATOM     31  C   UNL     1      -6.701   3.723 126.968  0.00  0.00    +0.000 C 
ATOM     32  O   UNL     1      -5.971   2.487 126.906  0.00  0.00    +0.000 OA
ATOM     33  C   UNL     1      -6.707   1.415 126.300  0.00  0.00    +0.000 C 
ATOM     34  C   UNL     1      -5.883   0.127 126.204  0.00  0.00    +0.000 C 
ATOM     35  O   UNL     1      -6.616  -0.912 125.554  0.00  0.00    +0.000 OA
ATOM     36  C   UNL     1      -7.113  -0.546 124.264  0.00  0.00    +0.000 C 
ATOM     37  O   UNL     1      -7.899   0.653 124.331  0.00  0.00    +0.000 OA
ATOM     38  C   UNL     1      -7.145   1.746 124.873  0.00  0.00    +0.000 C 
ATOM     39  C   UNL     1      -7.963   3.050 124.909  0.00  0.00    +0.000 C 
ATOM     40  C   UNL     1      -7.131   4.180 125.559  0.00  0.00    +0.000 C 
BRANCH  36  41
ATOM     41  C   UNL     1      -8.045  -1.670 123.859  0.00  0.00    +0.000 A 
ATOM     42  C   UNL     1      -8.893  -1.704 122.765  0.00  0.00    +0.000 A 
ATOM     43  C   UNL     1      -9.700  -2.876 122.705  0.00  0.00    +0.000 A 
ATOM     44  C   UNL     1      -9.441  -3.730 123.753  0.00  0.00    +0.000 A 
ATOM     45  S   UNL     1      -8.225  -3.105 124.794  0.00  0.00    +0.000 S 
ENDBRANCH  36  41
BRANCH  39  46
ATOM     46  O   UNL     1      -8.381   3.430 123.595  0.00  0.00    +0.000 OA
ATOM     47  H   UNL     1      -8.870   4.267 123.649  0.00  0.00    +0.000 HD
ENDBRANCH  39  46
BRANCH  40  48
ATOM     48  O   UNL     1      -7.861   5.411 125.617  0.00  0.00    +0.000 OA
ATOM     49  H   UNL     1      -8.383   5.493 124.799  0.00  0.00    +0.000 HD
ENDBRANCH  40  48
ENDBRANCH  30  31
ENDBRANCH  17  30
TORSDOF 9
ENDMDL
MODEL 3
REMARK VINA RESULT:      -8.9      4.409      9.890
REMARK  Name = Teniposide
REMARK  11 active torsions:
REMARK  status: ('A' for Active; 'I' for Inactive)
REMARK    1  A    between atoms: C_9  and  C_10
REMARK    2  A    between atoms: C_12  and  O_13
REMARK    3  A    between atoms: O_13  and  C_14
REMARK    4  A    between atoms: C_15  and  O_16
REMARK    5  A    between atoms: C_17  and  O_18
REMARK    6  A    between atoms: O_18  and  C_19
REMARK    7  A    between atoms: C_30  and  O_31
REMARK    8  A    between atoms: O_31  and  C_32
REMARK    9  A    between atoms: C_39  and  C_47
REMARK   10  A    between atoms: C_43  and  O_44
REMARK   11  A    between atoms: C_45  and  O_46
REMARK                            x       y       z     vdW  Elec       q    Type
REMARK                         _______ _______ _______ _____ _____    ______ ____
ROOT
ATOM      1  C   UNL     1      -6.956  -0.318 123.814  0.00  0.00    +0.000 C 
ATOM      2  C   UNL     1      -7.345  -1.666 123.256  0.00  0.00    +0.000 C 
ATOM      3  O   UNL     1      -8.526  -1.405 122.483  0.00  0.00    +0.000 OA
ATOM      4  C   UNL     1      -9.167  -0.308 122.994  0.00  0.00    +0.000 C 
ATOM      5  O   UNL     1     -10.285   0.036 122.665  0.00  0.00    +0.000 OA
ATOM      6  C   UNL     1      -8.321   0.303 124.077  0.00  0.00    +0.000 C 
ATOM      7  C   UNL     1      -8.193   1.824 124.215  0.00  0.00    +0.000 C 
ATOM      8  C   UNL     1      -7.153   2.093 125.336  0.00  0.00    +0.000 A 
ATOM      9  C   UNL     1      -6.087   1.172 125.598  0.00  0.00    +0.000 A 
ATOM     10  C   UNL     1      -5.026   1.556 126.432  0.00  0.00    +0.000 A 
ATOM     11  C   UNL     1      -5.104   2.761 127.081  0.00  0.00    +0.000 A 
ATOM     12  O   UNL     1      -4.212   3.210 128.002  0.00  0.00    +0.000 OA
ATOM     13  C   UNL     1      -4.892   4.396 128.457  0.00  0.00    +0.000 C 
ATOM     14  O   UNL     1      -6.015   4.759 127.623  0.00  0.00    +0.000 OA
ATOM     15  C   UNL     1      -6.145   3.630 126.875  0.00  0.00    +0.000 A 
ATOM     16  C   UNL     1      -7.166   3.344 125.992  0.00  0.00    +0.000 A 
ATOM     17  C   UNL     1      -6.098  -0.264 125.089  0.00  0.00    +0.000 C 
ENDROOT
BRANCH   7  18
ATOM     18  C   UNL     1      -7.834   2.554 122.909  0.00  0.00    +0.000 A 
ATOM     19  C   UNL     1      -6.502   2.746 122.523  0.00  0.00    +0.000 A 
ATOM     20  C   UNL     1      -6.165   3.455 121.367  0.00  0.00    +0.000 A 
ATOM     21  C   UNL     1      -7.195   3.935 120.544  0.00  0.00    +0.000 A 
ATOM     22  C   UNL     1      -8.536   3.715 120.865  0.00  0.00    +0.000 A 
ATOM     23  C   UNL     1      -8.828   3.038 122.047  0.00  0.00    +0.000 A 
BRANCH  20  24
ATOM     24  O   UNL     1      -4.876   3.716 120.968  0.00  0.00    +0.000 OA
ATOM     25  C   UNL     1      -4.232   4.831 121.594  0.00  0.00    +0.000 C 
ENDBRANCH  20  24
BRANCH  21  26
ATOM     26  O   UNL     1      -6.885   4.627 119.400  0.00  0.00    +0.000 OA
ATOM     27  H   UNL     1      -6.260   4.064 118.911  0.00  0.00    +0.000 HD
ENDBRANCH  21  26
BRANCH  22  28
ATOM     28  O   UNL     1      -9.503   4.179 120.010  0.00  0.00    +0.000 OA
ATOM     29  C   UNL     1      -9.284   3.954 118.617  0.00  0.00    +0.000 C 
ENDBRANCH  22  28
ENDBRANCH   7  18
BRANCH  17  30
ATOM     30  O   UNL     1      -6.695  -1.088 126.099  0.00  0.00    +0.000 OA
BRANCH  30  31
ATOM     31  C   UNL     1      -6.165  -1.098 127.440  0.00  0.00    +0.000 C 
ATOM     32  O   UNL     1      -5.356  -2.241 127.762  0.00  0.00    +0.000 OA
ATOM     33  C   UNL     1      -4.676  -2.129 129.020  0.00  0.00    +0.000 C 
ATOM     34  C   UNL     1      -3.864  -3.384 129.355  0.00  0.00    +0.000 C 
ATOM     35  O   UNL     1      -3.236  -3.272 130.633  0.00  0.00    +0.000 OA
ATOM     36  C   UNL     1      -4.145  -2.973 131.697  0.00  0.00    +0.000 C 
ATOM     37  O   UNL     1      -4.909  -1.792 131.410  0.00  0.00    +0.000 OA
ATOM     38  C   UNL     1      -5.645  -1.926 130.186  0.00  0.00    +0.000 C 
ATOM     39  C   UNL     1      -6.504  -0.684 129.890  0.00  0.00    +0.000 C 
ATOM     40  C   UNL     1      -7.226  -0.850 128.532  0.00  0.00    +0.000 C 
BRANCH  36  41
ATOM     41  C   UNL     1      -3.271  -2.660 132.895  0.00  0.00    +0.000 A 
ATOM     42  C   UNL     1      -2.542  -1.506 133.123  0.00  0.00    +0.000 A 
ATOM     43  C   UNL     1      -1.757  -1.552 134.311  0.00  0.00    +0.000 A 
ATOM     44  C   UNL     1      -1.913  -2.744 134.981  0.00  0.00    +0.000 A 
ATOM     45  S   UNL     1      -3.009  -3.789 134.168  0.00  0.00    +0.000 S 
ENDBRANCH  36  41
BRANCH  39  46
ATOM     46  O   UNL     1      -7.453  -0.455 130.935  0.00  0.00    +0.000 OA
ATOM     47  H   UNL     1      -8.175  -1.099 130.852  0.00  0.00    +0.000 HD
ENDBRANCH  39  46
BRANCH  40  48
ATOM     48  O   UNL     1      -8.032   0.291 128.217  0.00  0.00    +0.000 OA
ATOM     49  H   UNL     1      -7.938   0.939 128.939  0.00  0.00    +0.000 HD
ENDBRANCH  40  48
ENDBRANCH  30  31
ENDBRANCH  17  30
TORSDOF 9
ENDMDL
MODEL 4
REMARK VINA RESULT:      -8.8      5.122      9.491
REMARK  Name = Teniposide
REMARK  11 active torsions:
REMARK  status: ('A' for Active; 'I' for Inactive)
REMARK    1  A    between atoms: C_9  and  C_10
REMARK    2  A    between atoms: C_12  and  O_13
REMARK    3  A    between atoms: O_13  and  C_14
REMARK    4  A    between atoms: C_15  and  O_16
REMARK    5  A    between atoms: C_17  and  O_18
REMARK    6  A    between atoms: O_18  and  C_19
REMARK    7  A    between atoms: C_30  and  O_31
REMARK    8  A    between atoms: O_31  and  C_32
REMARK    9  A    between atoms: C_39  and  C_47
REMARK   10  A    between atoms: C_43  and  O_44
REMARK   11  A    between atoms: C_45  and  O_46
REMARK                            x       y       z     vdW  Elec       q    Type
REMARK                         _______ _______ _______ _____ _____    ______ ____
ROOT
ATOM      1  C   UNL     1      -5.902  -0.864 125.835  0.00  0.00    +0.000 C 
ATOM      2  C   UNL     1      -5.287  -2.042 125.118  0.00  0.00    +0.000 C 
ATOM      3  O   UNL     1      -5.788  -1.945 123.776  0.00  0.00    +0.000 OA
ATOM      4  C   UNL     1      -6.995  -1.298 123.791  0.00  0.00    +0.000 C 
ATOM      5  O   UNL     1      -7.740  -1.235 122.832  0.00  0.00    +0.000 OA
ATOM      6  C   UNL     1      -7.276  -0.800 125.182  0.00  0.00    +0.000 C 
ATOM      7  C   UNL     1      -7.908   0.577 125.414  0.00  0.00    +0.000 C 
ATOM      8  C   UNL     1      -7.930   0.815 126.947  0.00  0.00    +0.000 A 
ATOM      9  C   UNL     1      -6.939   0.233 127.804  0.00  0.00    +0.000 A 
ATOM     10  C   UNL     1      -6.831   0.665 129.135  0.00  0.00    +0.000 A 
ATOM     11  C   UNL     1      -7.767   1.543 129.619  0.00  0.00    +0.000 A 
ATOM     12  O   UNL     1      -7.854   1.956 130.909  0.00  0.00    +0.000 OA
ATOM     13  C   UNL     1      -9.095   2.687 130.858  0.00  0.00    +0.000 C 
ATOM     14  O   UNL     1      -9.563   2.913 129.510  0.00  0.00    +0.000 OA
ATOM     15  C   UNL     1      -8.750   2.069 128.819  0.00  0.00    +0.000 A 
ATOM     16  C   UNL     1      -8.843   1.752 127.480  0.00  0.00    +0.000 A 
ATOM     17  C   UNL     1      -6.049  -0.923 127.364  0.00  0.00    +0.000 C 
ENDROOT
BRANCH   7  18
ATOM     18  C   UNL     1      -7.220   1.729 124.662  0.00  0.00    +0.000 A 
ATOM     19  C   UNL     1      -7.635   2.115 123.381  0.00  0.00    +0.000 A 
ATOM     20  C   UNL     1      -6.981   3.123 122.668  0.00  0.00    +0.000 A 
ATOM     21  C   UNL     1      -5.917   3.803 123.279  0.00  0.00    +0.000 A 
ATOM     22  C   UNL     1      -5.509   3.486 124.577  0.00  0.00    +0.000 A 
ATOM     23  C   UNL     1      -6.163   2.447 125.237  0.00  0.00    +0.000 A 
BRANCH  20  24
ATOM     24  O   UNL     1      -7.314   3.507 121.390  0.00  0.00    +0.000 OA
ATOM     25  C   UNL     1      -8.712   3.565 121.091  0.00  0.00    +0.000 C 
ENDBRANCH  20  24
BRANCH  21  26
ATOM     26  O   UNL     1      -5.267   4.801 122.598  0.00  0.00    +0.000 OA
ATOM     27  H   UNL     1      -4.368   4.467 122.431  0.00  0.00    +0.000 HD
ENDBRANCH  21  26
BRANCH  22  28
ATOM     28  O   UNL     1      -4.484   4.202 125.139  0.00  0.00    +0.000 OA
ATOM     29  C   UNL     1      -3.912   3.668 126.332  0.00  0.00    +0.000 C 
ENDBRANCH  22  28
ENDBRANCH   7  18
BRANCH  17  30
ATOM     30  O   UNL     1      -6.696  -2.147 127.734  0.00  0.00    +0.000 OA
BRANCH  30  31
ATOM     31  C   UNL     1      -6.335  -2.824 128.955  0.00  0.00    +0.000 C 
ATOM     32  O   UNL     1      -7.109  -2.449 130.106  0.00  0.00    +0.000 OA
ATOM     33  C   UNL     1      -6.874  -3.277 131.253  0.00  0.00    +0.000 C 
ATOM     34  C   UNL     1      -7.677  -2.819 132.475  0.00  0.00    +0.000 C 
ATOM     35  O   UNL     1      -7.390  -3.625 133.618  0.00  0.00    +0.000 OA
ATOM     36  C   UNL     1      -5.998  -3.694 133.940  0.00  0.00    +0.000 C 
ATOM     37  O   UNL     1      -5.225  -4.132 132.812  0.00  0.00    +0.000 OA
ATOM     38  C   UNL     1      -5.406  -3.267 131.682  0.00  0.00    +0.000 C 
ATOM     39  C   UNL     1      -4.548  -3.701 130.480  0.00  0.00    +0.000 C 
ATOM     40  C   UNL     1      -4.825  -2.779 129.270  0.00  0.00    +0.000 C 
BRANCH  36  41
ATOM     41  C   UNL     1      -5.884  -4.766 135.005  0.00  0.00    +0.000 A 
ATOM     42  C   UNL     1      -6.761  -5.811 135.239  0.00  0.00    +0.000 A 
ATOM     43  C   UNL     1      -6.412  -6.605 136.369  0.00  0.00    +0.000 A 
ATOM     44  C   UNL     1      -5.258  -6.158 136.972  0.00  0.00    +0.000 A 
ATOM     45  S   UNL     1      -4.611  -4.787 136.164  0.00  0.00    +0.000 S 
ENDBRANCH  36  41
BRANCH  39  46
ATOM     46  O   UNL     1      -3.157  -3.687 130.811  0.00  0.00    +0.000 OA
ATOM     47  H   UNL     1      -2.978  -2.927 131.388  0.00  0.00    +0.000 HD
ENDBRANCH  39  46
BRANCH  40  48
ATOM     48  O   UNL     1      -4.049  -3.155 128.127  0.00  0.00    +0.000 OA
ATOM     49  H   UNL     1      -3.119  -2.923 128.301  0.00  0.00    +0.000 HD
ENDBRANCH  40  48
ENDBRANCH  30  31
ENDBRANCH  17  30
TORSDOF 9
ENDMDL
MODEL 5
REMARK VINA RESULT:      -8.8      4.653      7.838
REMARK  Name = Teniposide
REMARK  11 active torsions:
REMARK  status: ('A' for Active; 'I' for Inactive)
REMARK    1  A    between atoms: C_9  and  C_10
REMARK    2  A    between atoms: C_12  and  O_13
REMARK    3  A    between atoms: O_13  and  C_14
REMARK    4  A    between atoms: C_15  and  O_16
REMARK    5  A    between atoms: C_17  and  O_18
REMARK    6  A    between atoms: O_18  and  C_19
REMARK    7  A    between atoms: C_30  and  O_31
REMARK    8  A    between atoms: O_31  and  C_32
REMARK    9  A    between atoms: C_39  and  C_47
REMARK   10  A    between atoms: C_43  and  O_44
REMARK   11  A    between atoms: C_45  and  O_46
REMARK                            x       y       z     vdW  Elec       q    Type
REMARK                         _______ _______ _______ _____ _____    ______ ____
ROOT
ATOM      1  C   UNL     1      -6.319   1.161 130.076  0.00  0.00    +0.000 C 
ATOM      2  C   UNL     1      -6.083   2.549 130.623  0.00  0.00    +0.000 C 
ATOM      3  O   UNL     1      -6.485   2.464 131.998  0.00  0.00    +0.000 OA
ATOM      4  C   UNL     1      -7.427   1.479 132.133  0.00  0.00    +0.000 C 
ATOM      5  O   UNL     1      -8.083   1.305 133.142  0.00  0.00    +0.000 OA
ATOM      6  C   UNL     1      -7.581   0.755 130.824  0.00  0.00    +0.000 C 
ATOM      7  C   UNL     1      -7.755  -0.768 130.780  0.00  0.00    +0.000 C 
ATOM      8  C   UNL     1      -7.750  -1.183 129.285  0.00  0.00    +0.000 A 
ATOM      9  C   UNL     1      -7.021  -0.431 128.307  0.00  0.00    +0.000 A 
ATOM     10  C   UNL     1      -6.825  -0.965 127.024  0.00  0.00    +0.000 A 
ATOM     11  C   UNL     1      -7.451  -2.141 126.699  0.00  0.00    +0.000 A 
ATOM     12  O   UNL     1      -7.445  -2.713 125.467  0.00  0.00    +0.000 OA
ATOM     13  C   UNL     1      -8.391  -3.779 125.679  0.00  0.00    +0.000 C 
ATOM     14  O   UNL     1      -8.721  -3.975 127.072  0.00  0.00    +0.000 OA
ATOM     15  C   UNL     1      -8.193  -2.844 127.614  0.00  0.00    +0.000 A 
ATOM     16  C   UNL     1      -8.338  -2.413 128.917  0.00  0.00    +0.000 A 
ATOM     17  C   UNL     1      -6.525   0.987 128.562  0.00  0.00    +0.000 C 
ENDROOT
BRANCH   7  18
ATOM     18  C   UNL     1      -6.716  -1.551 131.600  0.00  0.00    +0.000 A 
ATOM     19  C   UNL     1      -5.480  -1.917 131.051  0.00  0.00    +0.000 A 
ATOM     20  C   UNL     1      -4.552  -2.676 131.768  0.00  0.00    +0.000 A 
ATOM     21  C   UNL     1      -4.847  -3.029 133.094  0.00  0.00    +0.000 A 
ATOM     22  C   UNL     1      -6.043  -2.634 133.697  0.00  0.00    +0.000 A 
ATOM     23  C   UNL     1      -6.958  -1.912 132.932  0.00  0.00    +0.000 A 
BRANCH  20  24
ATOM     24  O   UNL     1      -3.348  -3.106 131.263  0.00  0.00    +0.000 OA
ATOM     25  C   UNL     1      -2.980  -2.590 129.980  0.00  0.00    +0.000 C 
ENDBRANCH  20  24
BRANCH  21  26
ATOM     26  O   UNL     1      -3.944  -3.767 133.818  0.00  0.00    +0.000 OA
ATOM     27  H   UNL     1      -3.564  -3.155 134.472  0.00  0.00    +0.000 HD
ENDBRANCH  21  26
BRANCH  22  28
ATOM     28  O   UNL     1      -6.267  -2.979 135.004  0.00  0.00    +0.000 OA
ATOM     29  C   UNL     1      -7.195  -4.039 135.235  0.00  0.00    +0.000 C 
ENDBRANCH  22  28
ENDBRANCH   7  18
BRANCH  17  30
ATOM     30  O   UNL     1      -7.537   1.898 128.112  0.00  0.00    +0.000 OA
BRANCH  30  31
ATOM     31  C   UNL     1      -7.387   2.593 126.857  0.00  0.00    +0.000 C 
ATOM     32  O   UNL     1      -7.015   1.761 125.747  0.00  0.00    +0.000 OA
ATOM     33  C   UNL     1      -7.073   2.432 124.480  0.00  0.00    +0.000 C 
ATOM     34  C   UNL     1      -6.624   1.532 123.325  0.00  0.00    +0.000 C 
ATOM     35  O   UNL     1      -6.642   2.234 122.081  0.00  0.00    +0.000 OA
ATOM     36  C   UNL     1      -5.878   3.444 122.091  0.00  0.00    +0.000 C 
ATOM     37  O   UNL     1      -6.289   4.309 123.160  0.00  0.00    +0.000 OA
ATOM     38  C   UNL     1      -6.169   3.664 124.436  0.00  0.00    +0.000 C 
ATOM     39  C   UNL     1      -6.565   4.597 125.594  0.00  0.00    +0.000 C 
ATOM     40  C   UNL     1      -6.480   3.839 126.939  0.00  0.00    +0.000 C 
BRANCH  36  41
ATOM     41  C   UNL     1      -6.217   4.144 120.791  0.00  0.00    +0.000 A 
ATOM     42  C   UNL     1      -7.348   3.964 120.012  0.00  0.00    +0.000 A 
ATOM     43  C   UNL     1      -7.333   4.719 118.804  0.00  0.00    +0.000 A 
ATOM     44  C   UNL     1      -6.191   5.478 118.689  0.00  0.00    +0.000 A 
ATOM     45  S   UNL     1      -5.154   5.272 120.043  0.00  0.00    +0.000 S 
ENDBRANCH  36  41
BRANCH  39  46
ATOM     46  O   UNL     1      -5.734   5.761 125.623  0.00  0.00    +0.000 OA
ATOM     47  H   UNL     1      -4.808   5.484 125.715  0.00  0.00    +0.000 HD
ENDBRANCH  39  46
BRANCH  40  48
ATOM     48  O   UNL     1      -6.849   4.673 128.043  0.00  0.00    +0.000 OA
ATOM     49  H   UNL     1      -7.785   4.921 127.937  0.00  0.00    +0.000 HD
ENDBRANCH  40  48
ENDBRANCH  30  31
ENDBRANCH  17  30
TORSDOF 9
ENDMDL
MODEL 6
REMARK VINA RESULT:      -8.2      3.422     10.246
REMARK  Name = Teniposide
REMARK  11 active torsions:
REMARK  status: ('A' for Active; 'I' for Inactive)
REMARK    1  A    between atoms: C_9  and  C_10
REMARK    2  A    between atoms: C_12  and  O_13
REMARK    3  A    between atoms: O_13  and  C_14
REMARK    4  A    between atoms: C_15  and  O_16
REMARK    5  A    between atoms: C_17  and  O_18
REMARK    6  A    between atoms: O_18  and  C_19
REMARK    7  A    between atoms: C_30  and  O_31
REMARK    8  A    between atoms: O_31  and  C_32
REMARK    9  A    between atoms: C_39  and  C_47
REMARK   10  A    between atoms: C_43  and  O_44
REMARK   11  A    between atoms: C_45  and  O_46
REMARK                            x       y       z     vdW  Elec       q    Type
REMARK                         _______ _______ _______ _____ _____    ______ ____
ROOT
ATOM      1  C   UNL     1      -5.710   2.897 129.328  0.00  0.00    +0.000 C 
ATOM      2  C   UNL     1      -4.337   2.272 129.385  0.00  0.00    +0.000 C 
ATOM      3  O   UNL     1      -4.526   0.946 128.870  0.00  0.00    +0.000 OA
ATOM      4  C   UNL     1      -5.817   0.552 129.099  0.00  0.00    +0.000 C 
ATOM      5  O   UNL     1      -6.215  -0.586 128.942  0.00  0.00    +0.000 OA
ATOM      6  C   UNL     1      -6.595   1.706 129.669  0.00  0.00    +0.000 C 
ATOM      7  C   UNL     1      -8.039   1.977 129.231  0.00  0.00    +0.000 C 
ATOM      8  C   UNL     1      -8.479   3.302 129.910  0.00  0.00    +0.000 A 
ATOM      9  C   UNL     1      -7.528   4.329 130.220  0.00  0.00    +0.000 A 
ATOM     10  C   UNL     1      -7.981   5.605 130.594  0.00  0.00    +0.000 A 
ATOM     11  C   UNL     1      -9.326   5.796 130.779  0.00  0.00    +0.000 A 
ATOM     12  O   UNL     1      -9.894   6.937 131.247  0.00  0.00    +0.000 OA
ATOM     13  C   UNL     1     -11.257   6.496 131.404  0.00  0.00    +0.000 C 
ATOM     14  O   UNL     1     -11.512   5.217 130.784  0.00  0.00    +0.000 OA
ATOM     15  C   UNL     1     -10.241   4.804 130.532  0.00  0.00    +0.000 A 
ATOM     16  C   UNL     1      -9.858   3.561 130.070  0.00  0.00    +0.000 A 
ATOM     17  C   UNL     1      -6.027   4.074 130.264  0.00  0.00    +0.000 C 
ENDROOT
BRANCH   7  18
ATOM     18  C   UNL     1      -8.246   2.014 127.708  0.00  0.00    +0.000 A 
ATOM     19  C   UNL     1      -7.815   3.102 126.939  0.00  0.00    +0.000 A 
ATOM     20  C   UNL     1      -8.047   3.169 125.563  0.00  0.00    +0.000 A 
ATOM     21  C   UNL     1      -8.678   2.088 124.929  0.00  0.00    +0.000 A 
ATOM     22  C   UNL     1      -9.072   0.959 125.652  0.00  0.00    +0.000 A 
ATOM     23  C   UNL     1      -8.857   0.951 127.028  0.00  0.00    +0.000 A 
BRANCH  20  24
ATOM     24  O   UNL     1      -7.691   4.234 124.769  0.00  0.00    +0.000 OA
ATOM     25  C   UNL     1      -6.288   4.425 124.558  0.00  0.00    +0.000 C 
ENDBRANCH  20  24
BRANCH  21  26
ATOM     26  O   UNL     1      -8.908   2.131 123.577  0.00  0.00    +0.000 OA
ATOM     27  H   UNL     1      -8.044   1.984 123.156  0.00  0.00    +0.000 HD
ENDBRANCH  21  26
BRANCH  22  28
ATOM     28  O   UNL     1      -9.657  -0.082 124.979  0.00  0.00    +0.000 OA
ATOM     29  C   UNL     1      -8.859  -1.252 124.796  0.00  0.00    +0.000 C 
ENDBRANCH  22  28
ENDBRANCH   7  18
BRANCH  17  30
ATOM     30  O   UNL     1      -5.677   3.721 131.609  0.00  0.00    +0.000 OA
BRANCH  30  31
ATOM     31  C   UNL     1      -4.768   4.546 132.367  0.00  0.00    +0.000 C 
ATOM     32  O   UNL     1      -3.627   5.018 131.634  0.00  0.00    +0.000 OA
ATOM     33  C   UNL     1      -2.852   5.997 132.342  0.00  0.00    +0.000 C 
ATOM     34  C   UNL     1      -1.617   6.441 131.554  0.00  0.00    +0.000 C 
ATOM     35  O   UNL     1      -0.834   7.377 132.297  0.00  0.00    +0.000 OA
ATOM     36  C   UNL     1      -0.451   6.907 133.592  0.00  0.00    +0.000 C 
ATOM     37  O   UNL     1      -1.595   6.495 134.355  0.00  0.00    +0.000 OA
ATOM     38  C   UNL     1      -2.335   5.467 133.680  0.00  0.00    +0.000 C 
ATOM     39  C   UNL     1      -3.540   4.985 134.508  0.00  0.00    +0.000 C 
ATOM     40  C   UNL     1      -4.340   3.927 133.714  0.00  0.00    +0.000 C 
BRANCH  36  41
ATOM     41  C   UNL     1       0.146   8.109 134.295  0.00  0.00    +0.000 A 
ATOM     42  C   UNL     1       0.756   8.137 135.538  0.00  0.00    +0.000 A 
ATOM     43  C   UNL     1       1.145   9.443 135.953  0.00  0.00    +0.000 A 
ATOM     44  C   UNL     1       0.837  10.394 135.006  0.00  0.00    +0.000 A 
ATOM     45  S   UNL     1       0.085   9.695 133.628  0.00  0.00    +0.000 S 
ENDBRANCH  36  41
BRANCH  39  46
ATOM     46  O   UNL     1      -3.117   4.452 135.766  0.00  0.00    +0.000 OA
ATOM     47  H   UNL     1      -3.740   4.736 136.455  0.00  0.00    +0.000 HD
ENDBRANCH  39  46
BRANCH  40  48
ATOM     48  O   UNL     1      -5.475   3.457 134.449  0.00  0.00    +0.000 OA
ATOM     49  H   UNL     1      -6.195   3.282 133.816  0.00  0.00    +0.000 HD
ENDBRANCH  40  48
ENDBRANCH  30  31
ENDBRANCH  17  30
TORSDOF 9
ENDMDL
MODEL 7
REMARK VINA RESULT:      -8.2      4.192     10.597
REMARK  Name = Teniposide
REMARK  11 active torsions:
REMARK  status: ('A' for Active; 'I' for Inactive)
REMARK    1  A    between atoms: C_9  and  C_10
REMARK    2  A    between atoms: C_12  and  O_13
REMARK    3  A    between atoms: O_13  and  C_14
REMARK    4  A    between atoms: C_15  and  O_16
REMARK    5  A    between atoms: C_17  and  O_18
REMARK    6  A    between atoms: O_18  and  C_19
REMARK    7  A    between atoms: C_30  and  O_31
REMARK    8  A    between atoms: O_31  and  C_32
REMARK    9  A    between atoms: C_39  and  C_47
REMARK   10  A    between atoms: C_43  and  O_44
REMARK   11  A    between atoms: C_45  and  O_46
REMARK                            x       y       z     vdW  Elec       q    Type
REMARK                         _______ _______ _______ _____ _____    ______ ____
ROOT
ATOM      1  C   UNL     1      -6.051   1.939 132.073  0.00  0.00    +0.000 C 
ATOM      2  C   UNL     1      -6.673   2.151 133.432  0.00  0.00    +0.000 C 
ATOM      3  O   UNL     1      -7.924   1.450 133.367  0.00  0.00    +0.000 OA
ATOM      4  C   UNL     1      -8.348   1.405 132.065  0.00  0.00    +0.000 C 
ATOM      5  O   UNL     1      -9.458   1.042 131.729  0.00  0.00    +0.000 OA
ATOM      6  C   UNL     1      -7.278   1.973 131.173  0.00  0.00    +0.000 C 
ATOM      7  C   UNL     1      -6.959   1.332 129.818  0.00  0.00    +0.000 C 
ATOM      8  C   UNL     1      -5.733   2.085 129.237  0.00  0.00    +0.000 A 
ATOM      9  C   UNL     1      -4.750   2.679 130.095  0.00  0.00    +0.000 A 
ATOM     10  C   UNL     1      -3.533   3.125 129.553  0.00  0.00    +0.000 A 
ATOM     11  C   UNL     1      -3.372   3.100 128.192  0.00  0.00    +0.000 A 
ATOM     12  O   UNL     1      -2.301   3.603 127.525  0.00  0.00    +0.000 OA
ATOM     13  C   UNL     1      -2.763   3.469 126.167  0.00  0.00    +0.000 C 
ATOM     14  O   UNL     1      -3.955   2.660 126.052  0.00  0.00    +0.000 OA
ATOM     15  C   UNL     1      -4.328   2.579 127.357  0.00  0.00    +0.000 A 
ATOM     16  C   UNL     1      -5.500   2.039 127.844  0.00  0.00    +0.000 A 
ATOM     17  C   UNL     1      -5.003   2.946 131.573  0.00  0.00    +0.000 C 
ENDROOT
BRANCH   7  18
ATOM     18  C   UNL     1      -6.730  -0.187 129.870  0.00  0.00    +0.000 A 
ATOM     19  C   UNL     1      -7.720  -1.089 129.459  0.00  0.00    +0.000 A 
ATOM     20  C   UNL     1      -7.543  -2.471 129.554  0.00  0.00    +0.000 A 
ATOM     21  C   UNL     1      -6.315  -2.965 130.022  0.00  0.00    +0.000 A 
ATOM     22  C   UNL     1      -5.283  -2.100 130.388  0.00  0.00    +0.000 A 
ATOM     23  C   UNL     1      -5.516  -0.728 130.315  0.00  0.00    +0.000 A 
BRANCH  20  24
ATOM     24  O   UNL     1      -8.498  -3.399 129.212  0.00  0.00    +0.000 OA
ATOM     25  C   UNL     1      -8.701  -3.612 127.811  0.00  0.00    +0.000 C 
ENDBRANCH  20  24
BRANCH  21  26
ATOM     26  O   UNL     1      -6.119  -4.320 130.115  0.00  0.00    +0.000 OA
ATOM     27  H   UNL     1      -6.836  -4.654 130.682  0.00  0.00    +0.000 HD
ENDBRANCH  21  26
BRANCH  22  28
ATOM     28  O   UNL     1      -4.093  -2.636 130.809  0.00  0.00    +0.000 OA
ATOM     29  C   UNL     1      -3.397  -1.920 131.830  0.00  0.00    +0.000 C 
ENDBRANCH  22  28
ENDBRANCH   7  18
BRANCH  17  30
ATOM     30  O   UNL     1      -5.522   4.276 131.701  0.00  0.00    +0.000 OA
BRANCH  30  31
ATOM     31  C   UNL     1      -4.638   5.414 131.635  0.00  0.00    +0.000 C 
ATOM     32  O   UNL     1      -4.263   5.962 132.909  0.00  0.00    +0.000 OA
ATOM     33  C   UNL     1      -3.230   6.954 132.828  0.00  0.00    +0.000 C 
ATOM     34  C   UNL     1      -2.890   7.552 134.196  0.00  0.00    +0.000 C 
ATOM     35  O   UNL     1      -1.896   8.571 134.086  0.00  0.00    +0.000 OA
ATOM     36  C   UNL     1      -2.236   9.610 133.163  0.00  0.00    +0.000 C 
ATOM     37  O   UNL     1      -2.548   9.074 131.869  0.00  0.00    +0.000 OA
ATOM     38  C   UNL     1      -3.627   8.131 131.936  0.00  0.00    +0.000 C 
ATOM     39  C   UNL     1      -4.001   7.582 130.547  0.00  0.00    +0.000 C 
ATOM     40  C   UNL     1      -5.122   6.525 130.680  0.00  0.00    +0.000 C 
BRANCH  36  41
ATOM     41  C   UNL     1      -0.977  10.441 133.013  0.00  0.00    +0.000 A 
ATOM     42  C   UNL     1       0.317  10.069 133.336  0.00  0.00    +0.000 A 
ATOM     43  C   UNL     1       1.272  11.109 133.148  0.00  0.00    +0.000 A 
ATOM     44  C   UNL     1       0.689  12.259 132.667  0.00  0.00    +0.000 A 
ATOM     45  S   UNL     1      -1.005  12.066 132.446  0.00  0.00    +0.000 S 
ENDBRANCH  36  41
BRANCH  39  46
ATOM     46  O   UNL     1      -4.409   8.636 129.672  0.00  0.00    +0.000 OA
ATOM     47  H   UNL     1      -5.030   9.215 130.143  0.00  0.00    +0.000 HD
ENDBRANCH  39  46
BRANCH  40  48
ATOM     48  O   UNL     1      -5.495   5.984 129.407  0.00  0.00    +0.000 OA
ATOM     49  H   UNL     1      -5.923   6.690 128.890  0.00  0.00    +0.000 HD
ENDBRANCH  40  48
ENDBRANCH  30  31
ENDBRANCH  17  30
TORSDOF 9
ENDMDL
MODEL 8
REMARK VINA RESULT:      -8.1      5.032      9.363
REMARK  Name = Teniposide
REMARK  11 active torsions:
REMARK  status: ('A' for Active; 'I' for Inactive)
REMARK    1  A    between atoms: C_9  and  C_10
REMARK    2  A    between atoms: C_12  and  O_13
REMARK    3  A    between atoms: O_13  and  C_14
REMARK    4  A    between atoms: C_15  and  O_16
REMARK    5  A    between atoms: C_17  and  O_18
REMARK    6  A    between atoms: O_18  and  C_19
REMARK    7  A    between atoms: C_30  and  O_31
REMARK    8  A    between atoms: O_31  and  C_32
REMARK    9  A    between atoms: C_39  and  C_47
REMARK   10  A    between atoms: C_43  and  O_44
REMARK   11  A    between atoms: C_45  and  O_46
REMARK                            x       y       z     vdW  Elec       q    Type
REMARK                         _______ _______ _______ _____ _____    ______ ____
ROOT
ATOM      1  C   UNL     1      -6.786  -0.419 127.473  0.00  0.00    +0.000 C 
ATOM      2  C   UNL     1      -6.645  -1.802 126.886  0.00  0.00    +0.000 C 
ATOM      3  O   UNL     1      -7.460  -1.775 125.705  0.00  0.00    +0.000 OA
ATOM      4  C   UNL     1      -8.459  -0.852 125.868  0.00  0.00    +0.000 C 
ATOM      5  O   UNL     1      -9.407  -0.741 125.114  0.00  0.00    +0.000 OA
ATOM      6  C   UNL     1      -8.242  -0.106 127.156  0.00  0.00    +0.000 C 
ATOM      7  C   UNL     1      -8.491   1.404 127.245  0.00  0.00    +0.000 C 
ATOM      8  C   UNL     1      -8.046   1.855 128.661  0.00  0.00    +0.000 A 
ATOM      9  C   UNL     1      -7.000   1.171 129.365  0.00  0.00    +0.000 A 
ATOM     10  C   UNL     1      -6.448   1.748 130.520  0.00  0.00    +0.000 A 
ATOM     11  C   UNL     1      -7.016   2.891 131.019  0.00  0.00    +0.000 A 
ATOM     12  O   UNL     1      -6.662   3.492 132.185  0.00  0.00    +0.000 OA
ATOM     13  C   UNL     1      -7.692   4.496 132.275  0.00  0.00    +0.000 C 
ATOM     14  O   UNL     1      -8.452   4.637 131.055  0.00  0.00    +0.000 OA
ATOM     15  C   UNL     1      -8.049   3.527 130.380  0.00  0.00    +0.000 A 
ATOM     16  C   UNL     1      -8.567   3.057 129.190  0.00  0.00    +0.000 A 
ATOM     17  C   UNL     1      -6.520  -0.221 128.974  0.00  0.00    +0.000 C 
ENDROOT
BRANCH   7  18
ATOM     18  C   UNL     1      -7.812   2.227 126.138  0.00  0.00    +0.000 A 
ATOM     19  C   UNL     1      -6.514   2.730 126.294  0.00  0.00    +0.000 A 
ATOM     20  C   UNL     1      -5.910   3.525 125.317  0.00  0.00    +0.000 A 
ATOM     21  C   UNL     1      -6.604   3.776 124.124  0.00  0.00    +0.000 A 
ATOM     22  C   UNL     1      -7.877   3.245 123.906  0.00  0.00    +0.000 A 
ATOM     23  C   UNL     1      -8.459   2.491 124.923  0.00  0.00    +0.000 A 
BRANCH  20  24
ATOM     24  O   UNL     1      -4.660   4.086 125.440  0.00  0.00    +0.000 OA
ATOM     25  C   UNL     1      -3.760   3.435 126.344  0.00  0.00    +0.000 C 
ENDBRANCH  20  24
BRANCH  21  26
ATOM     26  O   UNL     1      -6.024   4.548 123.149  0.00  0.00    +0.000 OA
ATOM     27  H   UNL     1      -5.823   3.942 122.415  0.00  0.00    +0.000 HD
ENDBRANCH  21  26
BRANCH  22  28
ATOM     28  O   UNL     1      -8.499   3.495 122.710  0.00  0.00    +0.000 OA
ATOM     29  C   UNL     1      -9.209   2.406 122.120  0.00  0.00    +0.000 C 
ENDBRANCH  22  28
ENDBRANCH   7  18
BRANCH  17  30
ATOM     30  O   UNL     1      -7.279  -1.178 129.723  0.00  0.00    +0.000 OA
BRANCH  30  31
ATOM     31  C   UNL     1      -6.620  -2.081 130.635  0.00  0.00    +0.000 C 
ATOM     32  O   UNL     1      -5.423  -1.563 131.236  0.00  0.00    +0.000 OA
ATOM     33  C   UNL     1      -4.902  -2.390 132.286  0.00  0.00    +0.000 C 
ATOM     34  C   UNL     1      -3.600  -1.835 132.872  0.00  0.00    +0.000 C 
ATOM     35  O   UNL     1      -3.073  -2.699 133.880  0.00  0.00    +0.000 OA
ATOM     36  C   UNL     1      -2.883  -4.047 133.442  0.00  0.00    +0.000 C 
ATOM     37  O   UNL     1      -4.095  -4.593 132.899  0.00  0.00    +0.000 OA
ATOM     38  C   UNL     1      -4.582  -3.806 131.804  0.00  0.00    +0.000 C 
ATOM     39  C   UNL     1      -5.857  -4.406 131.184  0.00  0.00    +0.000 C 
ATOM     40  C   UNL     1      -6.378  -3.489 130.053  0.00  0.00    +0.000 C 
BRANCH  36  41
ATOM     41  C   UNL     1      -2.559  -4.835 134.695  0.00  0.00    +0.000 A 
ATOM     42  C   UNL     1      -3.294  -5.868 135.250  0.00  0.00    +0.000 A 
ATOM     43  C   UNL     1      -2.761  -6.351 136.479  0.00  0.00    +0.000 A 
ATOM     44  C   UNL     1      -1.610  -5.684 136.835  0.00  0.00    +0.000 A 
ATOM     45  S   UNL     1      -1.189  -4.486 135.678  0.00  0.00    +0.000 S 
ENDBRANCH  36  41
BRANCH  39  46
ATOM     46  O   UNL     1      -5.615  -5.724 130.688  0.00  0.00    +0.000 OA
ATOM     47  H   UNL     1      -6.434  -6.070 130.297  0.00  0.00    +0.000 HD
ENDBRANCH  39  46
BRANCH  40  48
ATOM     48  O   UNL     1      -7.571  -4.010 129.454  0.00  0.00    +0.000 OA
ATOM     49  H   UNL     1      -8.336  -3.642 129.931  0.00  0.00    +0.000 HD
ENDBRANCH  40  48
ENDBRANCH  30  31
ENDBRANCH  17  30
TORSDOF 9
ENDMDL
MODEL 9
REMARK VINA RESULT:      -8.0      4.677     10.625
REMARK  Name = Teniposide
REMARK  11 active torsions:
REMARK  status: ('A' for Active; 'I' for Inactive)
REMARK    1  A    between atoms: C_9  and  C_10
REMARK    2  A    between atoms: C_12  and  O_13
REMARK    3  A    between atoms: O_13  and  C_14
REMARK    4  A    between atoms: C_15  and  O_16
REMARK    5  A    between atoms: C_17  and  O_18
REMARK    6  A    between atoms: O_18  and  C_19
REMARK    7  A    between atoms: C_30  and  O_31
REMARK    8  A    between atoms: O_31  and  C_32
REMARK    9  A    between atoms: C_39  and  C_47
REMARK   10  A    between atoms: C_43  and  O_44
REMARK   11  A    between atoms: C_45  and  O_46
REMARK                            x       y       z     vdW  Elec       q    Type
REMARK                         _______ _______ _______ _____ _____    ______ ____
ROOT
ATOM      1  C   UNL     1      -6.333   3.876 133.016  0.00  0.00    +0.000 C 
ATOM      2  C   UNL     1      -6.738   3.137 134.268  0.00  0.00    +0.000 C 
ATOM      3  O   UNL     1      -7.830   3.904 134.798  0.00  0.00    +0.000 OA
ATOM      4  C   UNL     1      -7.700   5.208 134.400  0.00  0.00    +0.000 C 
ATOM      5  O   UNL     1      -8.368   6.121 134.846  0.00  0.00    +0.000 OA
ATOM      6  C   UNL     1      -6.550   5.323 133.437  0.00  0.00    +0.000 C 
ATOM      7  C   UNL     1      -6.643   6.226 132.202  0.00  0.00    +0.000 C 
ATOM      8  C   UNL     1      -5.348   6.000 131.376  0.00  0.00    +0.000 A 
ATOM      9  C   UNL     1      -4.660   4.742 131.401  0.00  0.00    +0.000 A 
ATOM     10  C   UNL     1      -3.651   4.484 130.459  0.00  0.00    +0.000 A 
ATOM     11  C   UNL     1      -3.259   5.496 129.622  0.00  0.00    +0.000 A 
ATOM     12  O   UNL     1      -2.224   5.425 128.745  0.00  0.00    +0.000 OA
ATOM     13  C   UNL     1      -2.173   6.796 128.303  0.00  0.00    +0.000 C 
ATOM     14  O   UNL     1      -3.324   7.566 128.714  0.00  0.00    +0.000 OA
ATOM     15  C   UNL     1      -3.878   6.720 129.624  0.00  0.00    +0.000 A 
ATOM     16  C   UNL     1      -4.939   6.996 130.462  0.00  0.00    +0.000 A 
ATOM     17  C   UNL     1      -4.904   3.693 132.478  0.00  0.00    +0.000 C 
ENDROOT
BRANCH   7  18
ATOM     18  C   UNL     1      -7.910   6.019 131.355  0.00  0.00    +0.000 A 
ATOM     19  C   UNL     1      -8.662   7.105 130.891  0.00  0.00    +0.000 A 
ATOM     20  C   UNL     1      -9.844   6.926 130.169  0.00  0.00    +0.000 A 
ATOM     21  C   UNL     1     -10.254   5.622 129.852  0.00  0.00    +0.000 A 
ATOM     22  C   UNL     1      -9.501   4.514 130.247  0.00  0.00    +0.000 A 
ATOM     23  C   UNL     1      -8.349   4.736 131.001  0.00  0.00    +0.000 A 
BRANCH  20  24
ATOM     24  O   UNL     1     -10.647   7.954 129.732  0.00  0.00    +0.000 OA
ATOM     25  C   UNL     1     -10.398   8.433 128.407  0.00  0.00    +0.000 C 
ENDBRANCH  20  24
BRANCH  21  26
ATOM     26  O   UNL     1     -11.408   5.426 129.136  0.00  0.00    +0.000 OA
ATOM     27  H   UNL     1     -11.310   5.955 128.325  0.00  0.00    +0.000 HD
ENDBRANCH  21  26
BRANCH  22  28
ATOM     28  O   UNL     1      -9.929   3.263 129.885  0.00  0.00    +0.000 OA
ATOM     29  C   UNL     1      -8.963   2.412 129.268  0.00  0.00    +0.000 C 
ENDBRANCH  22  28
ENDBRANCH   7  18
BRANCH  17  30
ATOM     30  O   UNL     1      -3.965   3.919 133.537  0.00  0.00    +0.000 OA
BRANCH  30  31
ATOM     31  C   UNL     1      -3.434   5.240 133.773  0.00  0.00    +0.000 C 
ATOM     32  O   UNL     1      -2.161   5.497 133.159  0.00  0.00    +0.000 OA
ATOM     33  C   UNL     1      -1.753   6.871 133.233  0.00  0.00    +0.000 C 
ATOM     34  C   UNL     1      -0.371   7.101 132.614  0.00  0.00    +0.000 C 
ATOM     35  O   UNL     1       0.036   8.463 132.743  0.00  0.00    +0.000 OA
ATOM     36  C   UNL     1       0.011   8.947 134.089  0.00  0.00    +0.000 C 
ATOM     37  O   UNL     1      -1.280   8.753 134.686  0.00  0.00    +0.000 OA
ATOM     38  C   UNL     1      -1.661   7.370 134.675  0.00  0.00    +0.000 C 
ATOM     39  C   UNL     1      -3.024   7.143 135.354  0.00  0.00    +0.000 C 
ATOM     40  C   UNL     1      -3.420   5.651 135.260  0.00  0.00    +0.000 C 
BRANCH  36  41
ATOM     41  C   UNL     1       0.234  10.443 133.982  0.00  0.00    +0.000 A 
ATOM     42  C   UNL     1       1.309  11.167 134.468  0.00  0.00    +0.000 A 
ATOM     43  C   UNL     1       1.185  12.572 134.273  0.00  0.00    +0.000 A 
ATOM     44  C   UNL     1       0.015  12.897 133.623  0.00  0.00    +0.000 A 
ATOM     45  S   UNL     1      -0.914  11.500 133.255  0.00  0.00    +0.000 S 
ENDBRANCH  36  41
BRANCH  39  46
ATOM     46  O   UNL     1      -2.995   7.567 136.719  0.00  0.00    +0.000 OA
ATOM     47  H   UNL     1      -2.972   8.537 136.747  0.00  0.00    +0.000 HD
ENDBRANCH  39  46
BRANCH  40  48
ATOM     48  O   UNL     1      -4.689   5.398 135.875  0.00  0.00    +0.000 OA
ATOM     49  H   UNL     1      -5.155   4.727 135.345  0.00  0.00    +0.000 HD
ENDBRANCH  40  48
ENDBRANCH  30  31
ENDBRANCH  17  30
TORSDOF 9
ENDMDL
