MODEL 1
REMARK VINA RESULT:      -6.9      0.000      0.000
REMARK  Name = Tenofovir disoproxil
REMARK  23 active torsions:
REMARK  status: ('A' for Active; 'I' for Inactive)
REMARK    1  A    between atoms: C_2  and  C_3
REMARK    2  A    between atoms: C_2  and  C_4
REMARK    3  A    between atoms: C_2  and  O_15
REMARK    4  A    between atoms: C_4  and  N_5
REMARK    5  A    between atoms: C_9  and  N_10
REMARK    6  A    between atoms: O_15  and  C_16
REMARK    7  A    between atoms: C_16  and  P_17
REMARK    8  A    between atoms: P_17  and  O_19
REMARK    9  A    between atoms: P_17  and  O_28
REMARK   10  A    between atoms: O_19  and  C_20
REMARK   11  A    between atoms: C_20  and  O_21
REMARK   12  A    between atoms: O_21  and  C_22
REMARK   13  A    between atoms: C_22  and  O_24
REMARK   14  A    between atoms: O_24  and  C_25
REMARK   15  A    between atoms: C_25  and  C_26
REMARK   16  A    between atoms: C_25  and  C_27
REMARK   17  A    between atoms: O_28  and  C_29
REMARK   18  A    between atoms: C_29  and  O_30
REMARK   19  A    between atoms: O_30  and  C_31
REMARK   20  A    between atoms: C_31  and  O_33
REMARK   21  A    between atoms: O_33  and  C_34
REMARK   22  A    between atoms: C_34  and  C_35
REMARK   23  A    between atoms: C_34  and  C_36
REMARK                            x       y       z     vdW  Elec       q    Type
REMARK                         _______ _______ _______ _____ _____    ______ ____
ROOT
ATOM      1  P   UNL     1      -8.339   2.550 129.161  0.00  0.00    +0.000 P 
ATOM      2  O   UNL     1      -9.682   3.232 129.466  0.00  0.00    +0.000 OA
ENDROOT
BRANCH   1   3
ATOM      3  O   UNL     1      -8.844   2.249 127.534  0.00  0.00    +0.000 OA
BRANCH   3   4
ATOM      4  C   UNL     1      -8.439   0.955 127.066  0.00  0.00    +0.000 C 
BRANCH   4   5
ATOM      5  O   UNL     1      -8.173   0.934 125.648  0.00  0.00    +0.000 OA
BRANCH   5   6
ATOM      6  C   UNL     1      -9.160   0.350 124.909  0.00  0.00    +0.000 C 
ATOM      7  O   UNL     1     -10.353   0.369 125.210  0.00  0.00    +0.000 OA
BRANCH   6   8
ATOM      8  O   UNL     1      -8.637  -0.250 123.797  0.00  0.00    +0.000 OA
BRANCH   8   9
ATOM      9  C   UNL     1      -7.995  -1.544 123.968  0.00  0.00    +0.000 C 
ATOM     10  C   UNL     1      -9.006  -2.686 123.876  0.00  0.00    +0.000 C 
ATOM     11  C   UNL     1      -6.945  -1.758 122.867  0.00  0.00    +0.000 C 
ENDBRANCH   8   9
ENDBRANCH   6   8
ENDBRANCH   5   6
ENDBRANCH   4   5
ENDBRANCH   3   4
ENDBRANCH   1   3
BRANCH   1  12
ATOM     12  O   UNL     1      -7.261   3.762 128.564  0.00  0.00    +0.000 OA
BRANCH  12  13
ATOM     13  C   UNL     1      -6.127   4.197 129.349  0.00  0.00    +0.000 C 
BRANCH  13  14
ATOM     14  O   UNL     1      -5.411   5.395 129.048  0.00  0.00    +0.000 OA
BRANCH  14  15
ATOM     15  C   UNL     1      -4.687   5.203 127.886  0.00  0.00    +0.000 C 
ATOM     16  O   UNL     1      -4.658   5.986 126.939  0.00  0.00    +0.000 OA
BRANCH  15  17
ATOM     17  O   UNL     1      -3.990   4.042 127.967  0.00  0.00    +0.000 OA
BRANCH  17  18
ATOM     18  C   UNL     1      -3.411   3.505 126.752  0.00  0.00    +0.000 C 
ATOM     19  C   UNL     1      -1.936   3.137 126.917  0.00  0.00    +0.000 C 
ATOM     20  C   UNL     1      -4.189   2.236 126.400  0.00  0.00    +0.000 C 
ENDBRANCH  17  18
ENDBRANCH  15  17
ENDBRANCH  14  15
ENDBRANCH  13  14
ENDBRANCH  12  13
ENDBRANCH   1  12
BRANCH   1  21
ATOM     21  C   UNL     1      -7.805   2.870 130.883  0.00  0.00    +0.000 C 
BRANCH  21  22
ATOM     22  O   UNL     1      -8.935   3.219 131.699  0.00  0.00    +0.000 OA
BRANCH  22  23
ATOM     23  C   UNL     1      -8.560   4.217 132.682  0.00  0.00    +0.000 C 
ATOM     24  C   UNL     1      -8.281   3.528 134.021  0.00  0.00    +0.000 C 
BRANCH  23  25
ATOM     25  C   UNL     1      -9.617   5.340 132.819  0.00  0.00    +0.000 C 
BRANCH  25  26
ATOM     26  N   UNL     1      -9.690   6.204 131.674  0.00  0.00    +0.000 N 
ATOM     27  C   UNL     1      -8.621   6.588 130.911  0.00  0.00    +0.000 A 
ATOM     28  N   UNL     1      -8.999   7.314 129.885  0.00  0.00    +0.000 NA
ATOM     29  C   UNL     1     -10.374   7.392 130.002  0.00  0.00    +0.000 A 
ATOM     30  C   UNL     1     -11.351   8.018 129.220  0.00  0.00    +0.000 A 
ATOM     31  N   UNL     1     -12.647   7.905 129.593  0.00  0.00    +0.000 NA
ATOM     32  C   UNL     1     -12.938   7.185 130.701  0.00  0.00    +0.000 A 
ATOM     33  N   UNL     1     -12.088   6.543 131.529  0.00  0.00    +0.000 NA
ATOM     34  C   UNL     1     -10.823   6.702 131.113  0.00  0.00    +0.000 A 
BRANCH  30  35
ATOM     35  N   UNL     1     -11.032   8.741 128.096  0.00  0.00    +0.000 N 
ATOM     36  H   UNL     1     -10.097   9.117 128.017  0.00  0.00    +0.000 HD
ATOM     37  H   UNL     1     -11.742   8.903 127.403  0.00  0.00    +0.000 HD
ENDBRANCH  30  35
ENDBRANCH  25  26
ENDBRANCH  23  25
ENDBRANCH  22  23
ENDBRANCH  21  22
ENDBRANCH   1  21
TORSDOF 18
ENDMDL
MODEL 2
REMARK VINA RESULT:      -6.7      4.790      8.716
REMARK  Name = Tenofovir disoproxil
REMARK  23 active torsions:
REMARK  status: ('A' for Active; 'I' for Inactive)
REMARK    1  A    between atoms: C_2  and  C_3
REMARK    2  A    between atoms: C_2  and  C_4
REMARK    3  A    between atoms: C_2  and  O_15
REMARK    4  A    between atoms: C_4  and  N_5
REMARK    5  A    between atoms: C_9  and  N_10
REMARK    6  A    between atoms: O_15  and  C_16
REMARK    7  A    between atoms: C_16  and  P_17
REMARK    8  A    between atoms: P_17  and  O_19
REMARK    9  A    between atoms: P_17  and  O_28
REMARK   10  A    between atoms: O_19  and  C_20
REMARK   11  A    between atoms: C_20  and  O_21
REMARK   12  A    between atoms: O_21  and  C_22
REMARK   13  A    between atoms: C_22  and  O_24
REMARK   14  A    between atoms: O_24  and  C_25
REMARK   15  A    between atoms: C_25  and  C_26
REMARK   16  A    between atoms: C_25  and  C_27
REMARK   17  A    between atoms: O_28  and  C_29
REMARK   18  A    between atoms: C_29  and  O_30
REMARK   19  A    between atoms: O_30  and  C_31
REMARK   20  A    between atoms: C_31  and  O_33
REMARK   21  A    between atoms: O_33  and  C_34
REMARK   22  A    between atoms: C_34  and  C_35
REMARK   23  A    between atoms: C_34  and  C_36
REMARK                            x       y       z     vdW  Elec       q    Type
REMARK                         _______ _______ _______ _____ _____    ______ ____
ROOT
ATOM      1  P   UNL     1      -7.736   2.570 128.204  0.00  0.00    +0.000 P 
ATOM      2  O   UNL     1      -6.910   3.161 127.052  0.00  0.00    +0.000 OA
ENDROOT
BRANCH   1   3
ATOM      3  O   UNL     1      -8.671   4.022 128.299  0.00  0.00    +0.000 OA
BRANCH   3   4
ATOM      4  C   UNL     1      -8.968   4.396 129.653  0.00  0.00    +0.000 C 
BRANCH   4   5
ATOM      5  O   UNL     1     -10.260   5.024 129.786  0.00  0.00    +0.000 OA
BRANCH   5   6
ATOM      6  C   UNL     1     -10.338   6.256 129.203  0.00  0.00    +0.000 C 
ATOM      7  O   UNL     1      -9.506   7.148 129.358  0.00  0.00    +0.000 OA
BRANCH   6   8
ATOM      8  O   UNL     1     -11.461   6.349 128.427  0.00  0.00    +0.000 OA
BRANCH   8   9
ATOM      9  C   UNL     1     -12.464   7.331 128.810  0.00  0.00    +0.000 C 
ATOM     10  C   UNL     1     -13.759   7.143 128.021  0.00  0.00    +0.000 C 
ATOM     11  C   UNL     1     -12.799   7.181 130.302  0.00  0.00    +0.000 C 
ENDBRANCH   8   9
ENDBRANCH   6   8
ENDBRANCH   5   6
ENDBRANCH   4   5
ENDBRANCH   3   4
ENDBRANCH   1   3
BRANCH   1  12
ATOM     12  O   UNL     1      -9.106   1.775 127.512  0.00  0.00    +0.000 OA
BRANCH  12  13
ATOM     13  C   UNL     1      -8.979   1.001 126.298  0.00  0.00    +0.000 C 
BRANCH  13  14
ATOM     14  O   UNL     1     -10.116   0.577 125.546  0.00  0.00    +0.000 OA
BRANCH  14  15
ATOM     15  C   UNL     1      -9.957   0.977 124.232  0.00  0.00    +0.000 C 
ATOM     16  O   UNL     1     -10.558   0.497 123.274  0.00  0.00    +0.000 OA
BRANCH  15  17
ATOM     17  O   UNL     1      -9.068   2.000 124.169  0.00  0.00    +0.000 OA
BRANCH  17  18
ATOM     18  C   UNL     1      -8.174   2.061 123.030  0.00  0.00    +0.000 C 
ATOM     19  C   UNL     1      -8.595   3.119 122.010  0.00  0.00    +0.000 C 
ATOM     20  C   UNL     1      -6.786   2.426 123.560  0.00  0.00    +0.000 C 
ENDBRANCH  17  18
ENDBRANCH  15  17
ENDBRANCH  14  15
ENDBRANCH  13  14
ENDBRANCH  12  13
ENDBRANCH   1  12
BRANCH   1  21
ATOM     21  C   UNL     1      -6.747   1.033 128.104  0.00  0.00    +0.000 C 
BRANCH  21  22
ATOM     22  O   UNL     1      -6.817   0.311 129.344  0.00  0.00    +0.000 OA
BRANCH  22  23
ATOM     23  C   UNL     1      -7.297  -1.039 129.119  0.00  0.00    +0.000 C 
ATOM     24  C   UNL     1      -7.136  -1.853 130.406  0.00  0.00    +0.000 C 
BRANCH  23  25
ATOM     25  C   UNL     1      -6.605  -1.719 127.913  0.00  0.00    +0.000 C 
BRANCH  25  26
ATOM     26  N   UNL     1      -7.523  -2.312 126.982  0.00  0.00    +0.000 N 
ATOM     27  C   UNL     1      -8.584  -3.106 127.324  0.00  0.00    +0.000 A 
ATOM     28  N   UNL     1      -9.294  -3.439 126.271  0.00  0.00    +0.000 NA
ATOM     29  C   UNL     1      -8.653  -2.826 125.212  0.00  0.00    +0.000 A 
ATOM     30  C   UNL     1      -8.922  -2.796 123.839  0.00  0.00    +0.000 A 
ATOM     31  N   UNL     1      -8.100  -2.084 123.034  0.00  0.00    +0.000 NA
ATOM     32  C   UNL     1      -7.058  -1.427 123.597  0.00  0.00    +0.000 A 
ATOM     33  N   UNL     1      -6.701  -1.384 124.897  0.00  0.00    +0.000 NA
ATOM     34  C   UNL     1      -7.546  -2.116 125.638  0.00  0.00    +0.000 A 
BRANCH  30  35
ATOM     35  N   UNL     1      -9.988  -3.468 123.291  0.00  0.00    +0.000 N 
ATOM     36  H   UNL     1      -9.810  -4.336 122.803  0.00  0.00    +0.000 HD
ATOM     37  H   UNL     1     -10.906  -3.063 123.360  0.00  0.00    +0.000 HD
ENDBRANCH  30  35
ENDBRANCH  25  26
ENDBRANCH  23  25
ENDBRANCH  22  23
ENDBRANCH  21  22
ENDBRANCH   1  21
TORSDOF 18
ENDMDL
MODEL 3
REMARK VINA RESULT:      -6.6      2.000      2.836
REMARK  Name = Tenofovir disoproxil
REMARK  23 active torsions:
REMARK  status: ('A' for Active; 'I' for Inactive)
REMARK    1  A    between atoms: C_2  and  C_3
REMARK    2  A    between atoms: C_2  and  C_4
REMARK    3  A    between atoms: C_2  and  O_15
REMARK    4  A    between atoms: C_4  and  N_5
REMARK    5  A    between atoms: C_9  and  N_10
REMARK    6  A    between atoms: O_15  and  C_16
REMARK    7  A    between atoms: C_16  and  P_17
REMARK    8  A    between atoms: P_17  and  O_19
REMARK    9  A    between atoms: P_17  and  O_28
REMARK   10  A    between atoms: O_19  and  C_20
REMARK   11  A    between atoms: C_20  and  O_21
REMARK   12  A    between atoms: O_21  and  C_22
REMARK   13  A    between atoms: C_22  and  O_24
REMARK   14  A    between atoms: O_24  and  C_25
REMARK   15  A    between atoms: C_25  and  C_26
REMARK   16  A    between atoms: C_25  and  C_27
REMARK   17  A    between atoms: O_28  and  C_29
REMARK   18  A    between atoms: C_29  and  O_30
REMARK   19  A    between atoms: O_30  and  C_31
REMARK   20  A    between atoms: C_31  and  O_33
REMARK   21  A    between atoms: O_33  and  C_34
REMARK   22  A    between atoms: C_34  and  C_35
REMARK   23  A    between atoms: C_34  and  C_36
REMARK                            x       y       z     vdW  Elec       q    Type
REMARK                         _______ _______ _______ _____ _____    ______ ____
ROOT
ATOM      1  P   UNL     1      -7.350   3.029 128.476  0.00  0.00    +0.000 P 
ATOM      2  O   UNL     1      -8.538   3.532 127.642  0.00  0.00    +0.000 OA
ENDROOT
BRANCH   1   3
ATOM      3  O   UNL     1      -7.157   1.677 127.413  0.00  0.00    +0.000 OA
BRANCH   3   4
ATOM      4  C   UNL     1      -8.357   0.899 127.293  0.00  0.00    +0.000 C 
BRANCH   4   5
ATOM      5  O   UNL     1      -8.128  -0.384 126.673  0.00  0.00    +0.000 OA
BRANCH   5   6
ATOM      6  C   UNL     1      -9.136  -0.785 125.846  0.00  0.00    +0.000 C 
ATOM      7  O   UNL     1     -10.034  -0.048 125.441  0.00  0.00    +0.000 OA
BRANCH   6   8
ATOM      8  O   UNL     1      -9.002  -2.110 125.533  0.00  0.00    +0.000 OA
BRANCH   8   9
ATOM      9  C   UNL     1      -8.361  -2.443 124.270  0.00  0.00    +0.000 C 
ATOM     10  C   UNL     1      -7.333  -3.560 124.443  0.00  0.00    +0.000 C 
ATOM     11  C   UNL     1      -9.414  -2.926 123.261  0.00  0.00    +0.000 C 
ENDBRANCH   8   9
ENDBRANCH   6   8
ENDBRANCH   5   6
ENDBRANCH   4   5
ENDBRANCH   3   4
ENDBRANCH   1   3
BRANCH   1  12
ATOM     12  O   UNL     1      -5.913   3.716 127.806  0.00  0.00    +0.000 OA
BRANCH  12  13
ATOM     13  C   UNL     1      -5.278   3.126 126.648  0.00  0.00    +0.000 C 
BRANCH  13  14
ATOM     14  O   UNL     1      -5.060   3.862 125.445  0.00  0.00    +0.000 OA
BRANCH  14  15
ATOM     15  C   UNL     1      -6.243   4.476 125.077  0.00  0.00    +0.000 C 
ATOM     16  O   UNL     1      -6.494   5.669 125.239  0.00  0.00    +0.000 OA
BRANCH  15  17
ATOM     17  O   UNL     1      -7.062   3.574 124.482  0.00  0.00    +0.000 OA
BRANCH  17  18
ATOM     18  C   UNL     1      -6.508   2.723 123.449  0.00  0.00    +0.000 C 
ATOM     19  C   UNL     1      -7.129   1.327 123.442  0.00  0.00    +0.000 C 
ATOM     20  C   UNL     1      -6.804   3.390 122.104  0.00  0.00    +0.000 C 
ENDBRANCH  17  18
ENDBRANCH  15  17
ENDBRANCH  14  15
ENDBRANCH  13  14
ENDBRANCH  12  13
ENDBRANCH   1  12
BRANCH   1  21
ATOM     21  C   UNL     1      -7.555   4.459 129.600  0.00  0.00    +0.000 C 
BRANCH  21  22
ATOM     22  O   UNL     1      -7.955   4.014 130.907  0.00  0.00    +0.000 OA
BRANCH  22  23
ATOM     23  C   UNL     1      -8.974   4.891 131.451  0.00  0.00    +0.000 C 
ATOM     24  C   UNL     1      -8.989   4.762 132.977  0.00  0.00    +0.000 C 
BRANCH  23  25
ATOM     25  C   UNL     1     -10.370   4.631 130.835  0.00  0.00    +0.000 C 
BRANCH  25  26
ATOM     26  N   UNL     1     -11.116   5.830 130.574  0.00  0.00    +0.000 N 
ATOM     27  C   UNL     1     -11.944   6.450 131.470  0.00  0.00    +0.000 A 
ATOM     28  N   UNL     1     -12.430   7.568 130.982  0.00  0.00    +0.000 NA
ATOM     29  C   UNL     1     -11.882   7.661 129.717  0.00  0.00    +0.000 A 
ATOM     30  C   UNL     1     -12.009   8.620 128.705  0.00  0.00    +0.000 A 
ATOM     31  N   UNL     1     -11.324   8.437 127.552  0.00  0.00    +0.000 NA
ATOM     32  C   UNL     1     -10.544   7.338 127.435  0.00  0.00    +0.000 A 
ATOM     33  N   UNL     1     -10.345   6.351 128.334  0.00  0.00    +0.000 NA
ATOM     34  C   UNL     1     -11.057   6.585 129.446  0.00  0.00    +0.000 A 
BRANCH  30  35
ATOM     35  N   UNL     1     -12.805   9.730 128.849  0.00  0.00    +0.000 N 
ATOM     36  H   UNL     1     -12.374  10.642 128.785  0.00  0.00    +0.000 HD
ATOM     37  H   UNL     1     -13.783   9.605 129.048  0.00  0.00    +0.000 HD
ENDBRANCH  30  35
ENDBRANCH  25  26
ENDBRANCH  23  25
ENDBRANCH  22  23
ENDBRANCH  21  22
ENDBRANCH   1  21
TORSDOF 18
ENDMDL
MODEL 4
REMARK VINA RESULT:      -6.5      4.297      8.652
REMARK  Name = Tenofovir disoproxil
REMARK  23 active torsions:
REMARK  status: ('A' for Active; 'I' for Inactive)
REMARK    1  A    between atoms: C_2  and  C_3
REMARK    2  A    between atoms: C_2  and  C_4
REMARK    3  A    between atoms: C_2  and  O_15
REMARK    4  A    between atoms: C_4  and  N_5
REMARK    5  A    between atoms: C_9  and  N_10
REMARK    6  A    between atoms: O_15  and  C_16
REMARK    7  A    between atoms: C_16  and  P_17
REMARK    8  A    between atoms: P_17  and  O_19
REMARK    9  A    between atoms: P_17  and  O_28
REMARK   10  A    between atoms: O_19  and  C_20
REMARK   11  A    between atoms: C_20  and  O_21
REMARK   12  A    between atoms: O_21  and  C_22
REMARK   13  A    between atoms: C_22  and  O_24
REMARK   14  A    between atoms: O_24  and  C_25
REMARK   15  A    between atoms: C_25  and  C_26
REMARK   16  A    between atoms: C_25  and  C_27
REMARK   17  A    between atoms: O_28  and  C_29
REMARK   18  A    between atoms: C_29  and  O_30
REMARK   19  A    between atoms: O_30  and  C_31
REMARK   20  A    between atoms: C_31  and  O_33
REMARK   21  A    between atoms: O_33  and  C_34
REMARK   22  A    between atoms: C_34  and  C_35
REMARK   23  A    between atoms: C_34  and  C_36
REMARK                            x       y       z     vdW  Elec       q    Type
REMARK                         _______ _______ _______ _____ _____    ______ ____
ROOT
ATOM      1  P   UNL     1      -7.886   3.339 128.636  0.00  0.00    +0.000 P 
ATOM      2  O   UNL     1      -7.820   4.712 127.952  0.00  0.00    +0.000 OA
ENDROOT
BRANCH   1   3
ATOM      3  O   UNL     1      -9.427   3.734 129.315  0.00  0.00    +0.000 OA
BRANCH   3   4
ATOM      4  C   UNL     1      -9.495   5.096 129.765  0.00  0.00    +0.000 C 
BRANCH   4   5
ATOM      5  O   UNL     1     -10.641   5.799 129.241  0.00  0.00    +0.000 OA
BRANCH   5   6
ATOM      6  C   UNL     1     -11.369   6.454 130.192  0.00  0.00    +0.000 C 
ATOM      7  O   UNL     1     -11.771   5.936 131.233  0.00  0.00    +0.000 OA
BRANCH   6   8
ATOM      8  O   UNL     1     -11.580   7.754 129.824  0.00  0.00    +0.000 OA
BRANCH   8   9
ATOM      9  C   UNL     1     -12.948   8.159 129.535  0.00  0.00    +0.000 C 
ATOM     10  C   UNL     1     -13.013   9.611 129.065  0.00  0.00    +0.000 C 
ATOM     11  C   UNL     1     -13.530   7.278 128.419  0.00  0.00    +0.000 C 
ENDBRANCH   8   9
ENDBRANCH   6   8
ENDBRANCH   5   6
ENDBRANCH   4   5
ENDBRANCH   3   4
ENDBRANCH   1   3
BRANCH   1  12
ATOM     12  O   UNL     1      -8.682   2.252 127.553  0.00  0.00    +0.000 OA
BRANCH  12  13
ATOM     13  C   UNL     1      -8.011   1.068 127.064  0.00  0.00    +0.000 C 
BRANCH  13  14
ATOM     14  O   UNL     1      -8.699  -0.166 126.862  0.00  0.00    +0.000 OA
BRANCH  14  15
ATOM     15  C   UNL     1      -9.104  -0.241 125.543  0.00  0.00    +0.000 C 
ATOM     16  O   UNL     1     -10.083   0.337 125.075  0.00  0.00    +0.000 OA
BRANCH  15  17
ATOM     17  O   UNL     1      -8.240  -1.016 124.841  0.00  0.00    +0.000 OA
BRANCH  17  18
ATOM     18  C   UNL     1      -8.546  -2.425 124.699  0.00  0.00    +0.000 C 
ATOM     19  C   UNL     1      -9.503  -2.931 125.778  0.00  0.00    +0.000 C 
ATOM     20  C   UNL     1      -9.215  -2.609 123.336  0.00  0.00    +0.000 C 
ENDBRANCH  17  18
ENDBRANCH  15  17
ENDBRANCH  14  15
ENDBRANCH  13  14
ENDBRANCH  12  13
ENDBRANCH   1  12
BRANCH   1  21
ATOM     21  C   UNL     1      -6.256   2.920 127.918  0.00  0.00    +0.000 C 
BRANCH  21  22
ATOM     22  O   UNL     1      -5.933   3.826 126.850  0.00  0.00    +0.000 OA
BRANCH  22  23
ATOM     23  C   UNL     1      -5.185   3.142 125.813  0.00  0.00    +0.000 C 
ATOM     24  C   UNL     1      -3.781   2.818 126.333  0.00  0.00    +0.000 C 
BRANCH  23  25
ATOM     25  C   UNL     1      -5.141   3.940 124.488  0.00  0.00    +0.000 C 
BRANCH  25  26
ATOM     26  N   UNL     1      -6.276   3.708 123.638  0.00  0.00    +0.000 N 
ATOM     27  C   UNL     1      -7.507   3.295 124.069  0.00  0.00    +0.000 A 
ATOM     28  N   UNL     1      -8.370   3.243 123.081  0.00  0.00    +0.000 NA
ATOM     29  C   UNL     1      -7.651   3.646 121.971  0.00  0.00    +0.000 A 
ATOM     30  C   UNL     1      -8.005   3.802 120.627  0.00  0.00    +0.000 A 
ATOM     31  N   UNL     1      -7.063   4.232 119.756  0.00  0.00    +0.000 NA
ATOM     32  C   UNL     1      -5.822   4.495 120.228  0.00  0.00    +0.000 A 
ATOM     33  N   UNL     1      -5.366   4.380 121.492  0.00  0.00    +0.000 NA
ATOM     34  C   UNL     1      -6.341   3.942 122.302  0.00  0.00    +0.000 A 
BRANCH  30  35
ATOM     35  N   UNL     1      -9.274   3.533 120.172  0.00  0.00    +0.000 N 
ATOM     36  H   UNL     1      -9.752   4.242 119.634  0.00  0.00    +0.000 HD
ATOM     37  H   UNL     1      -9.701   2.655 120.413  0.00  0.00    +0.000 HD
ENDBRANCH  30  35
ENDBRANCH  25  26
ENDBRANCH  23  25
ENDBRANCH  22  23
ENDBRANCH  21  22
ENDBRANCH   1  21
TORSDOF 18
ENDMDL
MODEL 5
REMARK VINA RESULT:      -6.5      2.951      7.247
REMARK  Name = Tenofovir disoproxil
REMARK  23 active torsions:
REMARK  status: ('A' for Active; 'I' for Inactive)
REMARK    1  A    between atoms: C_2  and  C_3
REMARK    2  A    between atoms: C_2  and  C_4
REMARK    3  A    between atoms: C_2  and  O_15
REMARK    4  A    between atoms: C_4  and  N_5
REMARK    5  A    between atoms: C_9  and  N_10
REMARK    6  A    between atoms: O_15  and  C_16
REMARK    7  A    between atoms: C_16  and  P_17
REMARK    8  A    between atoms: P_17  and  O_19
REMARK    9  A    between atoms: P_17  and  O_28
REMARK   10  A    between atoms: O_19  and  C_20
REMARK   11  A    between atoms: C_20  and  O_21
REMARK   12  A    between atoms: O_21  and  C_22
REMARK   13  A    between atoms: C_22  and  O_24
REMARK   14  A    between atoms: O_24  and  C_25
REMARK   15  A    between atoms: C_25  and  C_26
REMARK   16  A    between atoms: C_25  and  C_27
REMARK   17  A    between atoms: O_28  and  C_29
REMARK   18  A    between atoms: C_29  and  O_30
REMARK   19  A    between atoms: O_30  and  C_31
REMARK   20  A    between atoms: C_31  and  O_33
REMARK   21  A    between atoms: O_33  and  C_34
REMARK   22  A    between atoms: C_34  and  C_35
REMARK   23  A    between atoms: C_34  and  C_36
REMARK                            x       y       z     vdW  Elec       q    Type
REMARK                         _______ _______ _______ _____ _____    ______ ____
ROOT
ATOM      1  P   UNL     1      -7.898   3.531 128.206  0.00  0.00    +0.000 P 
ATOM      2  O   UNL     1      -8.326   4.932 127.744  0.00  0.00    +0.000 OA
ENDROOT
BRANCH   1   3
ATOM      3  O   UNL     1      -9.277   3.435 129.245  0.00  0.00    +0.000 OA
BRANCH   3   4
ATOM      4  C   UNL     1      -9.274   4.453 130.257  0.00  0.00    +0.000 C 
BRANCH   4   5
ATOM      5  O   UNL     1     -10.481   5.243 130.256  0.00  0.00    +0.000 OA
BRANCH   5   6
ATOM      6  C   UNL     1     -10.350   6.453 130.873  0.00  0.00    +0.000 C 
ATOM      7  O   UNL     1      -9.905   6.604 132.010  0.00  0.00    +0.000 OA
BRANCH   6   8
ATOM      8  O   UNL     1     -10.778   7.460 130.052  0.00  0.00    +0.000 OA
BRANCH   8   9
ATOM      9  C   UNL     1     -12.213   7.607 129.859  0.00  0.00    +0.000 C 
ATOM     10  C   UNL     1     -12.969   7.497 131.182  0.00  0.00    +0.000 C 
ATOM     11  C   UNL     1     -12.520   8.987 129.257  0.00  0.00    +0.000 C 
ENDBRANCH   8   9
ENDBRANCH   6   8
ENDBRANCH   5   6
ENDBRANCH   4   5
ENDBRANCH   3   4
ENDBRANCH   1   3
BRANCH   1  12
ATOM     12  O   UNL     1      -8.651   2.381 127.159  0.00  0.00    +0.000 OA
BRANCH  12  13
ATOM     13  C   UNL     1      -8.345   2.353 125.746  0.00  0.00    +0.000 C 
BRANCH  13  14
ATOM     14  O   UNL     1      -9.079   3.123 124.795  0.00  0.00    +0.000 OA
BRANCH  14  15
ATOM     15  C   UNL     1      -8.925   2.554 123.544  0.00  0.00    +0.000 C 
ATOM     16  O   UNL     1      -9.265   1.411 123.246  0.00  0.00    +0.000 OA
BRANCH  15  17
ATOM     17  O   UNL     1      -8.379   3.459 122.694  0.00  0.00    +0.000 OA
BRANCH  17  18
ATOM     18  C   UNL     1      -7.044   3.205 122.191  0.00  0.00    +0.000 C 
ATOM     19  C   UNL     1      -6.814   3.807 120.804  0.00  0.00    +0.000 C 
ATOM     20  C   UNL     1      -6.060   3.853 123.167  0.00  0.00    +0.000 C 
ENDBRANCH  17  18
ENDBRANCH  15  17
ENDBRANCH  14  15
ENDBRANCH  13  14
ENDBRANCH  12  13
ENDBRANCH   1  12
BRANCH   1  21
ATOM     21  C   UNL     1      -6.438   3.633 127.107  0.00  0.00    +0.000 C 
BRANCH  21  22
ATOM     22  O   UNL     1      -5.990   4.994 126.995  0.00  0.00    +0.000 OA
BRANCH  22  23
ATOM     23  C   UNL     1      -4.560   5.040 126.762  0.00  0.00    +0.000 C 
ATOM     24  C   UNL     1      -4.077   3.658 126.312  0.00  0.00    +0.000 C 
BRANCH  23  25
ATOM     25  C   UNL     1      -3.775   5.554 127.993  0.00  0.00    +0.000 C 
BRANCH  25  26
ATOM     26  N   UNL     1      -4.202   4.970 129.234  0.00  0.00    +0.000 N 
ATOM     27  C   UNL     1      -3.741   3.787 129.743  0.00  0.00    +0.000 A 
ATOM     28  N   UNL     1      -4.251   3.543 130.929  0.00  0.00    +0.000 NA
ATOM     29  C   UNL     1      -5.073   4.625 131.182  0.00  0.00    +0.000 A 
ATOM     30  C   UNL     1      -5.885   4.954 132.273  0.00  0.00    +0.000 A 
ATOM     31  N   UNL     1      -6.579   6.115 132.235  0.00  0.00    +0.000 NA
ATOM     32  C   UNL     1      -6.451   6.906 131.144  0.00  0.00    +0.000 A 
ATOM     33  N   UNL     1      -5.705   6.695 130.040  0.00  0.00    +0.000 NA
ATOM     34  C   UNL     1      -5.052   5.527 130.135  0.00  0.00    +0.000 A 
BRANCH  30  35
ATOM     35  N   UNL     1      -5.996   4.136 133.372  0.00  0.00    +0.000 N 
ATOM     36  H   UNL     1      -5.198   3.574 133.635  0.00  0.00    +0.000 HD
ATOM     37  H   UNL     1      -6.875   4.093 133.860  0.00  0.00    +0.000 HD
ENDBRANCH  30  35
ENDBRANCH  25  26
ENDBRANCH  23  25
ENDBRANCH  22  23
ENDBRANCH  21  22
ENDBRANCH   1  21
TORSDOF 18
ENDMDL
MODEL 6
REMARK VINA RESULT:      -6.5      2.074      2.521
REMARK  Name = Tenofovir disoproxil
REMARK  23 active torsions:
REMARK  status: ('A' for Active; 'I' for Inactive)
REMARK    1  A    between atoms: C_2  and  C_3
REMARK    2  A    between atoms: C_2  and  C_4
REMARK    3  A    between atoms: C_2  and  O_15
REMARK    4  A    between atoms: C_4  and  N_5
REMARK    5  A    between atoms: C_9  and  N_10
REMARK    6  A    between atoms: O_15  and  C_16
REMARK    7  A    between atoms: C_16  and  P_17
REMARK    8  A    between atoms: P_17  and  O_19
REMARK    9  A    between atoms: P_17  and  O_28
REMARK   10  A    between atoms: O_19  and  C_20
REMARK   11  A    between atoms: C_20  and  O_21
REMARK   12  A    between atoms: O_21  and  C_22
REMARK   13  A    between atoms: C_22  and  O_24
REMARK   14  A    between atoms: O_24  and  C_25
REMARK   15  A    between atoms: C_25  and  C_26
REMARK   16  A    between atoms: C_25  and  C_27
REMARK   17  A    between atoms: O_28  and  C_29
REMARK   18  A    between atoms: C_29  and  O_30
REMARK   19  A    between atoms: O_30  and  C_31
REMARK   20  A    between atoms: C_31  and  O_33
REMARK   21  A    between atoms: O_33  and  C_34
REMARK   22  A    between atoms: C_34  and  C_35
REMARK   23  A    between atoms: C_34  and  C_36
REMARK                            x       y       z     vdW  Elec       q    Type
REMARK                         _______ _______ _______ _____ _____    ______ ____
ROOT
ATOM      1  P   UNL     1      -8.370   1.787 129.810  0.00  0.00    +0.000 P 
ATOM      2  O   UNL     1      -9.123   2.948 129.144  0.00  0.00    +0.000 OA
ENDROOT
BRANCH   1   3
ATOM      3  O   UNL     1      -7.538   1.457 128.330  0.00  0.00    +0.000 OA
BRANCH   3   4
ATOM      4  C   UNL     1      -8.346   1.727 127.175  0.00  0.00    +0.000 C 
BRANCH   4   5
ATOM      5  O   UNL     1      -7.710   2.632 126.249  0.00  0.00    +0.000 OA
BRANCH   5   6
ATOM      6  C   UNL     1      -8.581   3.272 125.415  0.00  0.00    +0.000 C 
ATOM      7  O   UNL     1      -8.651   4.494 125.294  0.00  0.00    +0.000 OA
BRANCH   6   8
ATOM      8  O   UNL     1      -9.352   2.367 124.740  0.00  0.00    +0.000 OA
BRANCH   8   9
ATOM      9  C   UNL     1      -9.094   2.189 123.319  0.00  0.00    +0.000 C 
ATOM     10  C   UNL     1      -7.632   1.828 123.058  0.00  0.00    +0.000 C 
ATOM     11  C   UNL     1      -9.964   1.049 122.768  0.00  0.00    +0.000 C 
ENDBRANCH   8   9
ENDBRANCH   6   8
ENDBRANCH   5   6
ENDBRANCH   4   5
ENDBRANCH   3   4
ENDBRANCH   1   3
BRANCH   1  12
ATOM     12  O   UNL     1      -6.897   2.419 130.456  0.00  0.00    +0.000 OA
BRANCH  12  13
ATOM     13  C   UNL     1      -6.309   3.627 129.919  0.00  0.00    +0.000 C 
BRANCH  13  14
ATOM     14  O   UNL     1      -4.987   3.654 129.383  0.00  0.00    +0.000 OA
BRANCH  14  15
ATOM     15  C   UNL     1      -4.129   4.166 130.339  0.00  0.00    +0.000 C 
ATOM     16  O   UNL     1      -4.336   4.148 131.550  0.00  0.00    +0.000 OA
BRANCH  15  17
ATOM     17  O   UNL     1      -3.014   4.654 129.739  0.00  0.00    +0.000 OA
BRANCH  17  18
ATOM     18  C   UNL     1      -2.755   6.076 129.831  0.00  0.00    +0.000 C 
ATOM     19  C   UNL     1      -1.718   6.416 130.902  0.00  0.00    +0.000 C 
ATOM     20  C   UNL     1      -2.213   6.529 128.474  0.00  0.00    +0.000 C 
ENDBRANCH  17  18
ENDBRANCH  15  17
ENDBRANCH  14  15
ENDBRANCH  13  14
ENDBRANCH  12  13
ENDBRANCH   1  12
BRANCH   1  21
ATOM     21  C   UNL     1      -9.250   2.135 131.377  0.00  0.00    +0.000 C 
BRANCH  21  22
ATOM     22  O   UNL     1      -9.680   3.506 131.414  0.00  0.00    +0.000 OA
BRANCH  22  23
ATOM     23  C   UNL     1      -8.988   4.226 132.466  0.00  0.00    +0.000 C 
ATOM     24  C   UNL     1      -8.932   3.351 133.722  0.00  0.00    +0.000 C 
BRANCH  23  25
ATOM     25  C   UNL     1      -9.620   5.610 132.752  0.00  0.00    +0.000 C 
BRANCH  25  26
ATOM     26  N   UNL     1      -9.769   6.427 131.581  0.00  0.00    +0.000 N 
ATOM     27  C   UNL     1      -8.739   6.860 130.790  0.00  0.00    +0.000 A 
ATOM     28  N   UNL     1      -9.181   7.524 129.747  0.00  0.00    +0.000 NA
ATOM     29  C   UNL     1     -10.556   7.509 129.883  0.00  0.00    +0.000 A 
ATOM     30  C   UNL     1     -11.585   8.040 129.097  0.00  0.00    +0.000 A 
ATOM     31  N   UNL     1     -12.865   7.849 129.492  0.00  0.00    +0.000 NA
ATOM     32  C   UNL     1     -13.089   7.148 130.628  0.00  0.00    +0.000 A 
ATOM     33  N   UNL     1     -12.186   6.594 131.462  0.00  0.00    +0.000 NA
ATOM     34  C   UNL     1     -10.941   6.827 131.022  0.00  0.00    +0.000 A 
BRANCH  30  35
ATOM     35  N   UNL     1     -11.331   8.746 127.945  0.00  0.00    +0.000 N 
ATOM     36  H   UNL     1     -10.991   9.694 128.028  0.00  0.00    +0.000 HD
ATOM     37  H   UNL     1     -11.522   8.314 127.057  0.00  0.00    +0.000 HD
ENDBRANCH  30  35
ENDBRANCH  25  26
ENDBRANCH  23  25
ENDBRANCH  22  23
ENDBRANCH  21  22
ENDBRANCH   1  21
TORSDOF 18
ENDMDL
MODEL 7
REMARK VINA RESULT:      -6.5      4.768      7.584
REMARK  Name = Tenofovir disoproxil
REMARK  23 active torsions:
REMARK  status: ('A' for Active; 'I' for Inactive)
REMARK    1  A    between atoms: C_2  and  C_3
REMARK    2  A    between atoms: C_2  and  C_4
REMARK    3  A    between atoms: C_2  and  O_15
REMARK    4  A    between atoms: C_4  and  N_5
REMARK    5  A    between atoms: C_9  and  N_10
REMARK    6  A    between atoms: O_15  and  C_16
REMARK    7  A    between atoms: C_16  and  P_17
REMARK    8  A    between atoms: P_17  and  O_19
REMARK    9  A    between atoms: P_17  and  O_28
REMARK   10  A    between atoms: O_19  and  C_20
REMARK   11  A    between atoms: C_20  and  O_21
REMARK   12  A    between atoms: O_21  and  C_22
REMARK   13  A    between atoms: C_22  and  O_24
REMARK   14  A    between atoms: O_24  and  C_25
REMARK   15  A    between atoms: C_25  and  C_26
REMARK   16  A    between atoms: C_25  and  C_27
REMARK   17  A    between atoms: O_28  and  C_29
REMARK   18  A    between atoms: C_29  and  O_30
REMARK   19  A    between atoms: O_30  and  C_31
REMARK   20  A    between atoms: C_31  and  O_33
REMARK   21  A    between atoms: O_33  and  C_34
REMARK   22  A    between atoms: C_34  and  C_35
REMARK   23  A    between atoms: C_34  and  C_36
REMARK                            x       y       z     vdW  Elec       q    Type
REMARK                         _______ _______ _______ _____ _____    ______ ____
ROOT
ATOM      1  P   UNL     1      -7.861   2.077 127.068  0.00  0.00    +0.000 P 
ATOM      2  O   UNL     1      -8.813   0.872 127.103  0.00  0.00    +0.000 OA
ENDROOT
BRANCH   1   3
ATOM      3  O   UNL     1      -8.713   2.729 125.711  0.00  0.00    +0.000 OA
BRANCH   3   4
ATOM      4  C   UNL     1      -9.114   1.716 124.777  0.00  0.00    +0.000 C 
BRANCH   4   5
ATOM      5  O   UNL     1      -8.115   1.463 123.768  0.00  0.00    +0.000 OA
BRANCH   5   6
ATOM      6  C   UNL     1      -8.034   2.435 122.814  0.00  0.00    +0.000 C 
ATOM      7  O   UNL     1      -8.970   3.164 122.488  0.00  0.00    +0.000 OA
BRANCH   6   8
ATOM      8  O   UNL     1      -6.774   2.483 122.282  0.00  0.00    +0.000 OA
BRANCH   8   9
ATOM      9  C   UNL     1      -6.172   3.794 122.095  0.00  0.00    +0.000 C 
ATOM     10  C   UNL     1      -5.501   4.289 123.376  0.00  0.00    +0.000 C 
ATOM     11  C   UNL     1      -5.096   3.724 121.000  0.00  0.00    +0.000 C 
ENDBRANCH   8   9
ENDBRANCH   6   8
ENDBRANCH   5   6
ENDBRANCH   4   5
ENDBRANCH   3   4
ENDBRANCH   1   3
BRANCH   1  12
ATOM     12  O   UNL     1      -8.550   3.318 128.053  0.00  0.00    +0.000 OA
BRANCH  12  13
ATOM     13  C   UNL     1      -7.765   3.979 129.072  0.00  0.00    +0.000 C 
BRANCH  13  14
ATOM     14  O   UNL     1      -7.901   5.372 129.350  0.00  0.00    +0.000 OA
BRANCH  14  15
ATOM     15  C   UNL     1      -9.244   5.701 129.338  0.00  0.00    +0.000 C 
ATOM     16  O   UNL     1      -9.829   6.233 128.397  0.00  0.00    +0.000 OA
BRANCH  15  17
ATOM     17  O   UNL     1      -9.821   5.314 130.504  0.00  0.00    +0.000 OA
BRANCH  17  18
ATOM     18  C   UNL     1     -10.159   6.338 131.472  0.00  0.00    +0.000 C 
ATOM     19  C   UNL     1     -11.669   6.516 131.634  0.00  0.00    +0.000 C 
ATOM     20  C   UNL     1      -9.577   5.901 132.818  0.00  0.00    +0.000 C 
ENDBRANCH  17  18
ENDBRANCH  15  17
ENDBRANCH  14  15
ENDBRANCH  13  14
ENDBRANCH  12  13
ENDBRANCH   1  12
BRANCH   1  21
ATOM     21  C   UNL     1      -6.959   1.386 128.503  0.00  0.00    +0.000 C 
BRANCH  21  22
ATOM     22  O   UNL     1      -7.336   0.016 128.717  0.00  0.00    +0.000 OA
BRANCH  22  23
ATOM     23  C   UNL     1      -6.186  -0.768 129.125  0.00  0.00    +0.000 C 
ATOM     24  C   UNL     1      -4.975   0.156 129.282  0.00  0.00    +0.000 C 
BRANCH  23  25
ATOM     25  C   UNL     1      -5.897  -1.942 128.158  0.00  0.00    +0.000 C 
BRANCH  25  26
ATOM     26  N   UNL     1      -6.311  -1.690 126.806  0.00  0.00    +0.000 N 
ATOM     27  C   UNL     1      -5.544  -1.077 125.852  0.00  0.00    +0.000 A 
ATOM     28  N   UNL     1      -6.152  -1.054 124.689  0.00  0.00    +0.000 NA
ATOM     29  C   UNL     1      -7.361  -1.685 124.917  0.00  0.00    +0.000 A 
ATOM     30  C   UNL     1      -8.443  -1.976 124.078  0.00  0.00    +0.000 A 
ATOM     31  N   UNL     1      -9.508  -2.628 124.600  0.00  0.00    +0.000 NA
ATOM     32  C   UNL     1      -9.473  -2.974 125.908  0.00  0.00    +0.000 A 
ATOM     33  N   UNL     1      -8.494  -2.747 126.808  0.00  0.00    +0.000 NA
ATOM     34  C   UNL     1      -7.475  -2.090 126.233  0.00  0.00    +0.000 A 
BRANCH  30  35
ATOM     35  N   UNL     1      -8.453  -1.618 122.751  0.00  0.00    +0.000 N 
ATOM     36  H   UNL     1      -9.344  -1.548 122.279  0.00  0.00    +0.000 HD
ATOM     37  H   UNL     1      -7.577  -1.469 122.281  0.00  0.00    +0.000 HD
ENDBRANCH  30  35
ENDBRANCH  25  26
ENDBRANCH  23  25
ENDBRANCH  22  23
ENDBRANCH  21  22
ENDBRANCH   1  21
TORSDOF 18
ENDMDL
MODEL 8
REMARK VINA RESULT:      -6.4      2.547      4.413
REMARK  Name = Tenofovir disoproxil
REMARK  23 active torsions:
REMARK  status: ('A' for Active; 'I' for Inactive)
REMARK    1  A    between atoms: C_2  and  C_3
REMARK    2  A    between atoms: C_2  and  C_4
REMARK    3  A    between atoms: C_2  and  O_15
REMARK    4  A    between atoms: C_4  and  N_5
REMARK    5  A    between atoms: C_9  and  N_10
REMARK    6  A    between atoms: O_15  and  C_16
REMARK    7  A    between atoms: C_16  and  P_17
REMARK    8  A    between atoms: P_17  and  O_19
REMARK    9  A    between atoms: P_17  and  O_28
REMARK   10  A    between atoms: O_19  and  C_20
REMARK   11  A    between atoms: C_20  and  O_21
REMARK   12  A    between atoms: O_21  and  C_22
REMARK   13  A    between atoms: C_22  and  O_24
REMARK   14  A    between atoms: O_24  and  C_25
REMARK   15  A    between atoms: C_25  and  C_26
REMARK   16  A    between atoms: C_25  and  C_27
REMARK   17  A    between atoms: O_28  and  C_29
REMARK   18  A    between atoms: C_29  and  O_30
REMARK   19  A    between atoms: O_30  and  C_31
REMARK   20  A    between atoms: C_31  and  O_33
REMARK   21  A    between atoms: O_33  and  C_34
REMARK   22  A    between atoms: C_34  and  C_35
REMARK   23  A    between atoms: C_34  and  C_36
REMARK                            x       y       z     vdW  Elec       q    Type
REMARK                         _______ _______ _______ _____ _____    ______ ____
ROOT
ATOM      1  P   UNL     1      -7.974   1.890 127.160  0.00  0.00    +0.000 P 
ATOM      2  O   UNL     1      -6.550   2.348 126.814  0.00  0.00    +0.000 OA
ENDROOT
BRANCH   1   3
ATOM      3  O   UNL     1      -8.143   1.179 125.593  0.00  0.00    +0.000 OA
BRANCH   3   4
ATOM      4  C   UNL     1      -9.487   0.752 125.326  0.00  0.00    +0.000 C 
BRANCH   4   5
ATOM      5  O   UNL     1     -10.148   1.575 124.343  0.00  0.00    +0.000 OA
BRANCH   5   6
ATOM      6  C   UNL     1     -10.049   1.100 123.068  0.00  0.00    +0.000 C 
ATOM      7  O   UNL     1     -10.907   0.411 122.518  0.00  0.00    +0.000 OA
BRANCH   6   8
ATOM      8  O   UNL     1      -8.873   1.502 122.496  0.00  0.00    +0.000 OA
BRANCH   8   9
ATOM      9  C   UNL     1      -8.578   2.926 122.491  0.00  0.00    +0.000 C 
ATOM     10  C   UNL     1      -7.133   3.200 122.905  0.00  0.00    +0.000 C 
ATOM     11  C   UNL     1      -8.776   3.496 121.077  0.00  0.00    +0.000 C 
ENDBRANCH   8   9
ENDBRANCH   6   8
ENDBRANCH   5   6
ENDBRANCH   4   5
ENDBRANCH   3   4
ENDBRANCH   1   3
BRANCH   1  12
ATOM     12  O   UNL     1      -7.864   0.300 127.830  0.00  0.00    +0.000 OA
BRANCH  12  13
ATOM     13  C   UNL     1      -6.579  -0.326 128.047  0.00  0.00    +0.000 C 
BRANCH  13  14
ATOM     14  O   UNL     1      -5.997  -1.213 127.093  0.00  0.00    +0.000 OA
BRANCH  14  15
ATOM     15  C   UNL     1      -6.964  -2.100 126.659  0.00  0.00    +0.000 C 
ATOM     16  O   UNL     1      -7.546  -2.911 127.376  0.00  0.00    +0.000 OA
BRANCH  15  17
ATOM     17  O   UNL     1      -7.198  -1.913 125.336  0.00  0.00    +0.000 OA
BRANCH  17  18
ATOM     18  C   UNL     1      -6.057  -1.783 124.452  0.00  0.00    +0.000 C 
ATOM     19  C   UNL     1      -5.367  -3.120 124.183  0.00  0.00    +0.000 C 
ATOM     20  C   UNL     1      -6.574  -1.230 123.122  0.00  0.00    +0.000 C 
ENDBRANCH  17  18
ENDBRANCH  15  17
ENDBRANCH  14  15
ENDBRANCH  13  14
ENDBRANCH  12  13
ENDBRANCH   1  12
BRANCH   1  21
ATOM     21  C   UNL     1      -7.795   2.642 128.819  0.00  0.00    +0.000 C 
BRANCH  21  22
ATOM     22  O   UNL     1      -8.474   3.908 128.870  0.00  0.00    +0.000 OA
BRANCH  22  23
ATOM     23  C   UNL     1      -7.832   4.790 129.825  0.00  0.00    +0.000 C 
ATOM     24  C   UNL     1      -6.799   3.996 130.630  0.00  0.00    +0.000 C 
BRANCH  23  25
ATOM     25  C   UNL     1      -8.849   5.512 130.742  0.00  0.00    +0.000 C 
BRANCH  25  26
ATOM     26  N   UNL     1     -10.142   5.686 130.142  0.00  0.00    +0.000 N 
ATOM     27  C   UNL     1     -11.224   4.876 130.361  0.00  0.00    +0.000 A 
ATOM     28  N   UNL     1     -12.291   5.323 129.742  0.00  0.00    +0.000 NA
ATOM     29  C   UNL     1     -11.866   6.473 129.102  0.00  0.00    +0.000 A 
ATOM     30  C   UNL     1     -12.531   7.398 128.289  0.00  0.00    +0.000 A 
ATOM     31  N   UNL     1     -11.834   8.452 127.807  0.00  0.00    +0.000 NA
ATOM     32  C   UNL     1     -10.527   8.566 128.139  0.00  0.00    +0.000 A 
ATOM     33  N   UNL     1      -9.783   7.742 128.907  0.00  0.00    +0.000 NA
ATOM     34  C   UNL     1     -10.527   6.715 129.344  0.00  0.00    +0.000 A 
BRANCH  30  35
ATOM     35  N   UNL     1     -13.861   7.263 127.969  0.00  0.00    +0.000 N 
ATOM     36  H   UNL     1     -14.107   6.701 127.166  0.00  0.00    +0.000 HD
ATOM     37  H   UNL     1     -14.546   7.751 128.520  0.00  0.00    +0.000 HD
ENDBRANCH  30  35
ENDBRANCH  25  26
ENDBRANCH  23  25
ENDBRANCH  22  23
ENDBRANCH  21  22
ENDBRANCH   1  21
TORSDOF 18
ENDMDL
MODEL 9
REMARK VINA RESULT:      -6.4      4.542      8.315
REMARK  Name = Tenofovir disoproxil
REMARK  23 active torsions:
REMARK  status: ('A' for Active; 'I' for Inactive)
REMARK    1  A    between atoms: C_2  and  C_3
REMARK    2  A    between atoms: C_2  and  C_4
REMARK    3  A    between atoms: C_2  and  O_15
REMARK    4  A    between atoms: C_4  and  N_5
REMARK    5  A    between atoms: C_9  and  N_10
REMARK    6  A    between atoms: O_15  and  C_16
REMARK    7  A    between atoms: C_16  and  P_17
REMARK    8  A    between atoms: P_17  and  O_19
REMARK    9  A    between atoms: P_17  and  O_28
REMARK   10  A    between atoms: O_19  and  C_20
REMARK   11  A    between atoms: C_20  and  O_21
REMARK   12  A    between atoms: O_21  and  C_22
REMARK   13  A    between atoms: C_22  and  O_24
REMARK   14  A    between atoms: O_24  and  C_25
REMARK   15  A    between atoms: C_25  and  C_26
REMARK   16  A    between atoms: C_25  and  C_27
REMARK   17  A    between atoms: O_28  and  C_29
REMARK   18  A    between atoms: C_29  and  O_30
REMARK   19  A    between atoms: O_30  and  C_31
REMARK   20  A    between atoms: C_31  and  O_33
REMARK   21  A    between atoms: O_33  and  C_34
REMARK   22  A    between atoms: C_34  and  C_35
REMARK   23  A    between atoms: C_34  and  C_36
REMARK                            x       y       z     vdW  Elec       q    Type
REMARK                         _______ _______ _______ _____ _____    ______ ____
ROOT
ATOM      1  P   UNL     1      -8.120   4.370 129.329  0.00  0.00    +0.000 P 
ATOM      2  O   UNL     1      -8.538   3.574 130.574  0.00  0.00    +0.000 OA
ENDROOT
BRANCH   1   3
ATOM      3  O   UNL     1      -9.350   5.544 129.648  0.00  0.00    +0.000 OA
BRANCH   3   4
ATOM      4  C   UNL     1     -10.467   4.988 130.359  0.00  0.00    +0.000 C 
BRANCH   4   5
ATOM      5  O   UNL     1     -11.735   5.362 129.782  0.00  0.00    +0.000 OA
BRANCH   5   6
ATOM      6  C   UNL     1     -12.328   6.428 130.394  0.00  0.00    +0.000 C 
ATOM      7  O   UNL     1     -12.362   6.595 131.613  0.00  0.00    +0.000 OA
BRANCH   6   8
ATOM      8  O   UNL     1     -12.869   7.274 129.466  0.00  0.00    +0.000 OA
BRANCH   8   9
ATOM      9  C   UNL     1     -12.253   8.583 129.308  0.00  0.00    +0.000 C 
ATOM     10  C   UNL     1     -11.070   8.530 128.343  0.00  0.00    +0.000 C 
ATOM     11  C   UNL     1     -13.277   9.578 128.740  0.00  0.00    +0.000 C 
ENDBRANCH   8   9
ENDBRANCH   6   8
ENDBRANCH   5   6
ENDBRANCH   4   5
ENDBRANCH   3   4
ENDBRANCH   1   3
BRANCH   1  12
ATOM     12  O   UNL     1      -6.937   5.529 129.822  0.00  0.00    +0.000 OA
BRANCH  12  13
ATOM     13  C   UNL     1      -5.524   5.237 129.717  0.00  0.00    +0.000 C 
BRANCH  13  14
ATOM     14  O   UNL     1      -4.698   5.834 128.718  0.00  0.00    +0.000 OA
BRANCH  14  15
ATOM     15  C   UNL     1      -3.395   5.413 128.907  0.00  0.00    +0.000 C 
ATOM     16  O   UNL     1      -2.836   5.323 129.998  0.00  0.00    +0.000 OA
BRANCH  15  17
ATOM     17  O   UNL     1      -2.843   5.082 127.712  0.00  0.00    +0.000 OA
BRANCH  17  18
ATOM     18  C   UNL     1      -3.126   3.770 127.167  0.00  0.00    +0.000 C 
ATOM     19  C   UNL     1      -3.983   3.832 125.903  0.00  0.00    +0.000 C 
ATOM     20  C   UNL     1      -1.785   3.126 126.812  0.00  0.00    +0.000 C 
ENDBRANCH  17  18
ENDBRANCH  15  17
ENDBRANCH  14  15
ENDBRANCH  13  14
ENDBRANCH  12  13
ENDBRANCH   1  12
BRANCH   1  21
ATOM     21  C   UNL     1      -6.819   3.128 128.992  0.00  0.00    +0.000 C 
BRANCH  21  22
ATOM     22  O   UNL     1      -6.837   2.749 127.605  0.00  0.00    +0.000 OA
BRANCH  22  23
ATOM     23  C   UNL     1      -6.552   1.335 127.462  0.00  0.00    +0.000 C 
ATOM     24  C   UNL     1      -5.319   0.981 128.299  0.00  0.00    +0.000 C 
BRANCH  23  25
ATOM     25  C   UNL     1      -6.389   0.909 125.983  0.00  0.00    +0.000 C 
BRANCH  25  26
ATOM     26  N   UNL     1      -7.420   0.021 125.523  0.00  0.00    +0.000 N 
ATOM     27  C   UNL     1      -8.742   0.352 125.395  0.00  0.00    +0.000 A 
ATOM     28  N   UNL     1      -9.436  -0.634 124.878  0.00  0.00    +0.000 NA
ATOM     29  C   UNL     1      -8.509  -1.638 124.666  0.00  0.00    +0.000 A 
ATOM     30  C   UNL     1      -8.625  -2.929 124.139  0.00  0.00    +0.000 A 
ATOM     31  N   UNL     1      -7.510  -3.691 124.046  0.00  0.00    +0.000 NA
ATOM     32  C   UNL     1      -6.335  -3.166 124.463  0.00  0.00    +0.000 A 
ATOM     33  N   UNL     1      -6.103  -1.944 124.987  0.00  0.00    +0.000 NA
ATOM     34  C   UNL     1      -7.245  -1.245 125.062  0.00  0.00    +0.000 A 
BRANCH  30  35
ATOM     35  N   UNL     1      -9.829  -3.439 123.718  0.00  0.00    +0.000 N 
ATOM     36  H   UNL     1      -9.868  -4.409 123.437  0.00  0.00    +0.000 HD
ATOM     37  H   UNL     1     -10.626  -2.828 123.669  0.00  0.00    +0.000 HD
ENDBRANCH  30  35
ENDBRANCH  25  26
ENDBRANCH  23  25
ENDBRANCH  22  23
ENDBRANCH  21  22
ENDBRANCH   1  21
TORSDOF 18
ENDMDL
