MODEL 1
REMARK VINA RESULT:      -7.1      0.000      0.000
REMARK  Name = Tenoxicam
REMARK  4 active torsions:
REMARK  status: ('A' for Active; 'I' for Inactive)
REMARK    1  A    between atoms: C_1  and  N_2
REMARK    2  A    between atoms: C_3  and  C_4
REMARK    3  A    between atoms: N_6  and  C_7
REMARK    4  A    between atoms: C_13  and  O_14
REMARK                            x       y       z     vdW  Elec       q    Type
REMARK                         _______ _______ _______ _____ _____    ______ ____
ROOT
ATOM      1  C   UNL     1      -8.891   2.287 130.117  0.00  0.00    +0.000 C 
ATOM      2  N   UNL     1      -8.736   3.186 131.240  0.00  0.00    +0.000 N 
ATOM      3  C   UNL     1      -9.464   4.401 131.558  0.00  0.00    +0.000 C 
ATOM      4  C   UNL     1      -9.158   5.125 132.681  0.00  0.00    +0.000 C 
ATOM      5  C   UNL     1      -8.147   4.722 133.618  0.00  0.00    +0.000 A 
ATOM      6  C   UNL     1      -7.374   3.596 133.552  0.00  0.00    +0.000 A 
ATOM      7  C   UNL     1      -6.438   3.395 134.583  0.00  0.00    +0.000 A 
ATOM      8  C   UNL     1      -6.515   4.422 135.487  0.00  0.00    +0.000 A 
ATOM      9  S   UNL     1      -7.705   5.584 135.047  0.00  0.00    +0.000 S 
ATOM     10  S   UNL     1      -7.587   2.536 132.268  0.00  0.00    +0.000 S 
ATOM     11  O   UNL     1      -8.153   1.342 132.877  0.00  0.00    +0.000 OA
ATOM     12  O   UNL     1      -6.322   2.523 131.586  0.00  0.00    +0.000 OA
ENDROOT
BRANCH   3  13
ATOM     13  C   UNL     1     -10.536   4.992 130.639  0.00  0.00    +0.000 C 
ATOM     14  O   UNL     1     -11.468   4.266 130.275  0.00  0.00    +0.000 OA
ATOM     15  N   UNL     1     -10.426   6.282 130.192  0.00  0.00    +0.000 N 
ATOM     16  H   UNL     1      -9.580   6.794 130.070  0.00  0.00    +0.000 HD
BRANCH  15  17
ATOM     17  C   UNL     1     -11.350   6.955 129.427  0.00  0.00    +0.000 A 
ATOM     18  C   UNL     1     -12.163   7.915 129.975  0.00  0.00    +0.000 A 
ATOM     19  C   UNL     1     -13.080   8.509 129.135  0.00  0.00    +0.000 A 
ATOM     20  C   UNL     1     -13.135   8.119 127.798  0.00  0.00    +0.000 A 
ATOM     21  C   UNL     1     -12.221   7.192 127.329  0.00  0.00    +0.000 A 
ATOM     22  N   UNL     1     -11.295   6.626 128.119  0.00  0.00    +0.000 NA
ENDBRANCH  15  17
ENDBRANCH   3  13
BRANCH   4  23
ATOM     23  O   UNL     1      -9.770   6.318 133.044  0.00  0.00    +0.000 OA
ATOM     24  H   UNL     1     -10.290   6.185 133.869  0.00  0.00    +0.000 HD
ENDBRANCH   4  23
TORSDOF 3
ENDMDL
MODEL 2
REMARK VINA RESULT:      -6.9      2.136      2.913
REMARK  Name = Tenoxicam
REMARK  4 active torsions:
REMARK  status: ('A' for Active; 'I' for Inactive)
REMARK    1  A    between atoms: C_1  and  N_2
REMARK    2  A    between atoms: C_3  and  C_4
REMARK    3  A    between atoms: N_6  and  C_7
REMARK    4  A    between atoms: C_13  and  O_14
REMARK                            x       y       z     vdW  Elec       q    Type
REMARK                         _______ _______ _______ _____ _____    ______ ____
ROOT
ATOM      1  C   UNL     1      -7.117   6.845 131.105  0.00  0.00    +0.000 C 
ATOM      2  N   UNL     1      -7.709   5.526 131.113  0.00  0.00    +0.000 N 
ATOM      3  C   UNL     1      -8.882   5.035 130.410  0.00  0.00    +0.000 C 
ATOM      4  C   UNL     1      -9.290   3.735 130.556  0.00  0.00    +0.000 C 
ATOM      5  C   UNL     1      -8.583   2.780 131.363  0.00  0.00    +0.000 A 
ATOM      6  C   UNL     1      -7.433   3.001 132.071  0.00  0.00    +0.000 A 
ATOM      7  C   UNL     1      -6.907   1.918 132.798  0.00  0.00    +0.000 A 
ATOM      8  C   UNL     1      -7.696   0.812 132.624  0.00  0.00    +0.000 A 
ATOM      9  S   UNL     1      -9.039   1.132 131.597  0.00  0.00    +0.000 S 
ATOM     10  S   UNL     1      -6.729   4.523 132.025  0.00  0.00    +0.000 S 
ATOM     11  O   UNL     1      -5.486   4.323 131.294  0.00  0.00    +0.000 OA
ATOM     12  O   UNL     1      -6.751   4.982 133.388  0.00  0.00    +0.000 OA
ENDROOT
BRANCH   3  13
ATOM     13  C   UNL     1      -9.773   5.936 129.551  0.00  0.00    +0.000 C 
ATOM     14  O   UNL     1      -9.350   6.306 128.450  0.00  0.00    +0.000 OA
ATOM     15  N   UNL     1     -10.986   6.359 130.024  0.00  0.00    +0.000 N 
ATOM     16  H   UNL     1     -11.236   6.478 130.982  0.00  0.00    +0.000 HD
BRANCH  15  17
ATOM     17  C   UNL     1     -11.910   7.106 129.331  0.00  0.00    +0.000 A 
ATOM     18  C   UNL     1     -12.003   8.464 129.508  0.00  0.00    +0.000 A 
ATOM     19  C   UNL     1     -12.983   9.120 128.795  0.00  0.00    +0.000 A 
ATOM     20  C   UNL     1     -13.812   8.391 127.944  0.00  0.00    +0.000 A 
ATOM     21  C   UNL     1     -13.588   7.034 127.784  0.00  0.00    +0.000 A 
ATOM     22  N   UNL     1     -12.617   6.380 128.440  0.00  0.00    +0.000 NA
ENDBRANCH  15  17
ENDBRANCH   3  13
BRANCH   4  23
ATOM     23  O   UNL     1     -10.419   3.188 129.959  0.00  0.00    +0.000 OA
ATOM     24  H   UNL     1     -10.722   3.773 129.228  0.00  0.00    +0.000 HD
ENDBRANCH   4  23
TORSDOF 3
ENDMDL
MODEL 3
REMARK VINA RESULT:      -6.9      2.465      2.691
REMARK  Name = Tenoxicam
REMARK  4 active torsions:
REMARK  status: ('A' for Active; 'I' for Inactive)
REMARK    1  A    between atoms: C_1  and  N_2
REMARK    2  A    between atoms: C_3  and  C_4
REMARK    3  A    between atoms: N_6  and  C_7
REMARK    4  A    between atoms: C_13  and  O_14
REMARK                            x       y       z     vdW  Elec       q    Type
REMARK                         _______ _______ _______ _____ _____    ______ ____
ROOT
ATOM      1  C   UNL     1      -9.367   3.902 133.494  0.00  0.00    +0.000 C 
ATOM      2  N   UNL     1      -8.301   4.685 132.908  0.00  0.00    +0.000 N 
ATOM      3  C   UNL     1      -8.377   5.823 132.009  0.00  0.00    +0.000 C 
ATOM      4  C   UNL     1      -7.236   6.431 131.555  0.00  0.00    +0.000 C 
ATOM      5  C   UNL     1      -5.919   6.022 131.957  0.00  0.00    +0.000 A 
ATOM      6  C   UNL     1      -5.607   5.015 132.829  0.00  0.00    +0.000 A 
ATOM      7  C   UNL     1      -4.244   4.781 133.083  0.00  0.00    +0.000 A 
ATOM      8  C   UNL     1      -3.479   5.668 132.371  0.00  0.00    +0.000 A 
ATOM      9  S   UNL     1      -4.440   6.736 131.424  0.00  0.00    +0.000 S 
ATOM     10  S   UNL     1      -6.850   4.137 133.536  0.00  0.00    +0.000 S 
ATOM     11  O   UNL     1      -6.800   4.509 134.942  0.00  0.00    +0.000 OA
ATOM     12  O   UNL     1      -6.646   2.784 133.093  0.00  0.00    +0.000 OA
ENDROOT
BRANCH   3  13
ATOM     13  C   UNL     1      -9.699   6.352 131.448  0.00  0.00    +0.000 C 
ATOM     14  O   UNL     1     -10.594   6.663 132.241  0.00  0.00    +0.000 OA
ATOM     15  N   UNL     1      -9.894   6.423 130.094  0.00  0.00    +0.000 N 
ATOM     16  H   UNL     1      -9.458   5.851 129.404  0.00  0.00    +0.000 HD
BRANCH  15  17
ATOM     17  C   UNL     1     -10.999   6.943 129.462  0.00  0.00    +0.000 A 
ATOM     18  C   UNL     1     -11.028   8.250 129.042  0.00  0.00    +0.000 A 
ATOM     19  C   UNL     1     -12.193   8.689 128.449  0.00  0.00    +0.000 A 
ATOM     20  C   UNL     1     -13.261   7.805 128.305  0.00  0.00    +0.000 A 
ATOM     21  C   UNL     1     -13.102   6.487 128.699  0.00  0.00    +0.000 A 
ATOM     22  N   UNL     1     -11.966   6.028 129.245  0.00  0.00    +0.000 NA
ENDBRANCH  15  17
ENDBRANCH   3  13
BRANCH   4  23
ATOM     23  O   UNL     1      -7.208   7.496 130.662  0.00  0.00    +0.000 OA
ATOM     24  H   UNL     1      -6.694   8.239 131.051  0.00  0.00    +0.000 HD
ENDBRANCH   4  23
TORSDOF 3
ENDMDL
MODEL 4
REMARK VINA RESULT:      -6.8      2.798      3.006
REMARK  Name = Tenoxicam
REMARK  4 active torsions:
REMARK  status: ('A' for Active; 'I' for Inactive)
REMARK    1  A    between atoms: C_1  and  N_2
REMARK    2  A    between atoms: C_3  and  C_4
REMARK    3  A    between atoms: N_6  and  C_7
REMARK    4  A    between atoms: C_13  and  O_14
REMARK                            x       y       z     vdW  Elec       q    Type
REMARK                         _______ _______ _______ _____ _____    ______ ____
ROOT
ATOM      1  C   UNL     1      -8.666   3.026 131.290  0.00  0.00    +0.000 C 
ATOM      2  N   UNL     1      -7.574   3.963 131.144  0.00  0.00    +0.000 N 
ATOM      3  C   UNL     1      -7.610   5.394 130.900  0.00  0.00    +0.000 C 
ATOM      4  C   UNL     1      -6.448   6.112 130.785  0.00  0.00    +0.000 C 
ATOM      5  C   UNL     1      -5.147   5.522 130.932  0.00  0.00    +0.000 A 
ATOM      6  C   UNL     1      -4.871   4.212 131.212  0.00  0.00    +0.000 A 
ATOM      7  C   UNL     1      -3.517   3.846 131.312  0.00  0.00    +0.000 A 
ATOM      8  C   UNL     1      -2.722   4.942 131.107  0.00  0.00    +0.000 A 
ATOM      9  S   UNL     1      -3.644   6.361 130.795  0.00  0.00    +0.000 S 
ATOM     10  S   UNL     1      -6.144   3.138 131.421  0.00  0.00    +0.000 S 
ATOM     11  O   UNL     1      -6.093   2.790 132.833  0.00  0.00    +0.000 OA
ATOM     12  O   UNL     1      -5.976   2.158 130.383  0.00  0.00    +0.000 OA
ENDROOT
BRANCH   3  13
ATOM     13  C   UNL     1      -8.912   6.165 130.671  0.00  0.00    +0.000 C 
ATOM     14  O   UNL     1      -9.374   6.833 131.603  0.00  0.00    +0.000 OA
ATOM     15  N   UNL     1      -9.570   6.067 129.474  0.00  0.00    +0.000 N 
ATOM     16  H   UNL     1      -9.540   5.293 128.846  0.00  0.00    +0.000 HD
BRANCH  15  17
ATOM     17  C   UNL     1     -10.703   6.759 129.113  0.00  0.00    +0.000 A 
ATOM     18  C   UNL     1     -10.635   8.064 128.695  0.00  0.00    +0.000 A 
ATOM     19  C   UNL     1     -11.827   8.684 128.389  0.00  0.00    +0.000 A 
ATOM     20  C   UNL     1     -13.019   7.971 128.511  0.00  0.00    +0.000 A 
ATOM     21  C   UNL     1     -12.970   6.636 128.874  0.00  0.00    +0.000 A 
ATOM     22  N   UNL     1     -11.819   6.001 129.142  0.00  0.00    +0.000 NA
ENDBRANCH  15  17
ENDBRANCH   3  13
BRANCH   4  23
ATOM     23  O   UNL     1      -6.383   7.473 130.511  0.00  0.00    +0.000 OA
ATOM     24  H   UNL     1      -7.293   7.832 130.404  0.00  0.00    +0.000 HD
ENDBRANCH   4  23
TORSDOF 3
ENDMDL
MODEL 5
REMARK VINA RESULT:      -6.6      2.212      2.989
REMARK  Name = Tenoxicam
REMARK  4 active torsions:
REMARK  status: ('A' for Active; 'I' for Inactive)
REMARK    1  A    between atoms: C_1  and  N_2
REMARK    2  A    between atoms: C_3  and  C_4
REMARK    3  A    between atoms: N_6  and  C_7
REMARK    4  A    between atoms: C_13  and  O_14
REMARK                            x       y       z     vdW  Elec       q    Type
REMARK                         _______ _______ _______ _____ _____    ______ ____
ROOT
ATOM      1  C   UNL     1      -9.399   3.836 133.795  0.00  0.00    +0.000 C 
ATOM      2  N   UNL     1      -8.353   3.818 132.796  0.00  0.00    +0.000 N 
ATOM      3  C   UNL     1      -8.194   4.641 131.610  0.00  0.00    +0.000 C 
ATOM      4  C   UNL     1      -7.121   4.462 130.775  0.00  0.00    +0.000 C 
ATOM      5  C   UNL     1      -6.085   3.500 131.030  0.00  0.00    +0.000 A 
ATOM      6  C   UNL     1      -5.999   2.657 132.103  0.00  0.00    +0.000 A 
ATOM      7  C   UNL     1      -4.893   1.790 132.154  0.00  0.00    +0.000 A 
ATOM      8  C   UNL     1      -4.090   1.994 131.062  0.00  0.00    +0.000 A 
ATOM      9  S   UNL     1      -4.711   3.217 130.023  0.00  0.00    +0.000 S 
ATOM     10  S   UNL     1      -7.195   2.711 133.279  0.00  0.00    +0.000 S 
ATOM     11  O   UNL     1      -6.522   3.246 134.453  0.00  0.00    +0.000 OA
ATOM     12  O   UNL     1      -7.786   1.400 133.265  0.00  0.00    +0.000 OA
ENDROOT
BRANCH   3  13
ATOM     13  C   UNL     1      -9.232   5.676 131.171  0.00  0.00    +0.000 C 
ATOM     14  O   UNL     1      -9.527   6.585 131.955  0.00  0.00    +0.000 OA
ATOM     15  N   UNL     1      -9.852   5.558 129.956  0.00  0.00    +0.000 N 
ATOM     16  H   UNL     1     -10.011   4.711 129.455  0.00  0.00    +0.000 HD
BRANCH  15  17
ATOM     17  C   UNL     1     -10.745   6.452 129.412  0.00  0.00    +0.000 A 
ATOM     18  C   UNL     1     -10.325   7.658 128.908  0.00  0.00    +0.000 A 
ATOM     19  C   UNL     1     -11.297   8.501 128.417  0.00  0.00    +0.000 A 
ATOM     20  C   UNL     1     -12.631   8.099 128.449  0.00  0.00    +0.000 A 
ATOM     21  C   UNL     1     -12.941   6.832 128.914  0.00  0.00    +0.000 A 
ATOM     22  N   UNL     1     -12.008   5.979 129.364  0.00  0.00    +0.000 NA
ENDBRANCH  15  17
ENDBRANCH   3  13
BRANCH   4  23
ATOM     23  O   UNL     1      -6.907   5.171 129.599  0.00  0.00    +0.000 OA
ATOM     24  H   UNL     1      -6.528   4.572 128.917  0.00  0.00    +0.000 HD
ENDBRANCH   4  23
TORSDOF 3
ENDMDL
MODEL 6
REMARK VINA RESULT:      -6.6      6.232      7.203
REMARK  Name = Tenoxicam
REMARK  4 active torsions:
REMARK  status: ('A' for Active; 'I' for Inactive)
REMARK    1  A    between atoms: C_1  and  N_2
REMARK    2  A    between atoms: C_3  and  C_4
REMARK    3  A    between atoms: N_6  and  C_7
REMARK    4  A    between atoms: C_13  and  O_14
REMARK                            x       y       z     vdW  Elec       q    Type
REMARK                         _______ _______ _______ _____ _____    ______ ____
ROOT
ATOM      1  C   UNL     1      -3.245   3.791 126.592  0.00  0.00    +0.000 C 
ATOM      2  N   UNL     1      -4.528   3.914 127.251  0.00  0.00    +0.000 N 
ATOM      3  C   UNL     1      -5.826   4.244 126.691  0.00  0.00    +0.000 C 
ATOM      4  C   UNL     1      -6.934   4.318 127.494  0.00  0.00    +0.000 C 
ATOM      5  C   UNL     1      -6.898   4.042 128.903  0.00  0.00    +0.000 A 
ATOM      6  C   UNL     1      -5.804   3.665 129.633  0.00  0.00    +0.000 A 
ATOM      7  C   UNL     1      -5.993   3.445 131.010  0.00  0.00    +0.000 A 
ATOM      8  C   UNL     1      -7.306   3.658 131.339  0.00  0.00    +0.000 A 
ATOM      9  S   UNL     1      -8.248   4.120 129.975  0.00  0.00    +0.000 S 
ATOM     10  S   UNL     1      -4.328   3.485 128.856  0.00  0.00    +0.000 S 
ATOM     11  O   UNL     1      -4.065   2.054 128.909  0.00  0.00    +0.000 OA
ATOM     12  O   UNL     1      -3.462   4.448 129.479  0.00  0.00    +0.000 OA
ENDROOT
BRANCH   3  13
ATOM     13  C   UNL     1      -6.027   4.613 125.219  0.00  0.00    +0.000 C 
ATOM     14  O   UNL     1      -6.332   5.777 124.938  0.00  0.00    +0.000 OA
ATOM     15  N   UNL     1      -5.922   3.653 124.247  0.00  0.00    +0.000 N 
ATOM     16  H   UNL     1      -6.093   2.677 124.361  0.00  0.00    +0.000 HD
BRANCH  15  17
ATOM     17  C   UNL     1      -6.006   3.862 122.891  0.00  0.00    +0.000 A 
ATOM     18  C   UNL     1      -4.968   4.424 122.192  0.00  0.00    +0.000 A 
ATOM     19  C   UNL     1      -5.160   4.625 120.842  0.00  0.00    +0.000 A 
ATOM     20  C   UNL     1      -6.372   4.254 120.262  0.00  0.00    +0.000 A 
ATOM     21  C   UNL     1      -7.329   3.629 121.043  0.00  0.00    +0.000 A 
ATOM     22  N   UNL     1      -7.150   3.390 122.352  0.00  0.00    +0.000 NA
ENDBRANCH  15  17
ENDBRANCH   3  13
BRANCH   4  23
ATOM     23  O   UNL     1      -8.206   4.666 127.057  0.00  0.00    +0.000 OA
ATOM     24  H   UNL     1      -8.830   4.661 127.818  0.00  0.00    +0.000 HD
ENDBRANCH   4  23
TORSDOF 3
ENDMDL
MODEL 7
REMARK VINA RESULT:      -6.5      7.279      8.648
REMARK  Name = Tenoxicam
REMARK  4 active torsions:
REMARK  status: ('A' for Active; 'I' for Inactive)
REMARK    1  A    between atoms: C_1  and  N_2
REMARK    2  A    between atoms: C_3  and  C_4
REMARK    3  A    between atoms: N_6  and  C_7
REMARK    4  A    between atoms: C_13  and  O_14
REMARK                            x       y       z     vdW  Elec       q    Type
REMARK                         _______ _______ _______ _____ _____    ______ ____
ROOT
ATOM      1  C   UNL     1      -7.655  -0.260 123.220  0.00  0.00    +0.000 C 
ATOM      2  N   UNL     1      -7.719   0.667 124.329  0.00  0.00    +0.000 N 
ATOM      3  C   UNL     1      -7.786   2.118 124.317  0.00  0.00    +0.000 C 
ATOM      4  C   UNL     1      -7.835   2.823 125.491  0.00  0.00    +0.000 C 
ATOM      5  C   UNL     1      -7.861   2.193 126.782  0.00  0.00    +0.000 A 
ATOM      6  C   UNL     1      -7.857   0.849 127.034  0.00  0.00    +0.000 A 
ATOM      7  C   UNL     1      -7.886   0.446 128.381  0.00  0.00    +0.000 A 
ATOM      8  C   UNL     1      -7.925   1.547 129.195  0.00  0.00    +0.000 A 
ATOM      9  S   UNL     1      -7.917   3.015 128.298  0.00  0.00    +0.000 S 
ATOM     10  S   UNL     1      -7.823  -0.222 125.742  0.00  0.00    +0.000 S 
ATOM     11  O   UNL     1      -9.128  -0.866 125.773  0.00  0.00    +0.000 OA
ATOM     12  O   UNL     1      -6.601  -0.961 125.906  0.00  0.00    +0.000 OA
ENDROOT
BRANCH   3  13
ATOM     13  C   UNL     1      -7.719   2.942 123.030  0.00  0.00    +0.000 C 
ATOM     14  O   UNL     1      -8.768   3.409 122.572  0.00  0.00    +0.000 OA
ATOM     15  N   UNL     1      -6.525   3.108 122.379  0.00  0.00    +0.000 N 
ATOM     16  H   UNL     1      -5.749   2.482 122.401  0.00  0.00    +0.000 HD
BRANCH  15  17
ATOM     17  C   UNL     1      -6.313   3.880 121.261  0.00  0.00    +0.000 A 
ATOM     18  C   UNL     1      -7.165   3.823 120.186  0.00  0.00    +0.000 A 
ATOM     19  C   UNL     1      -6.849   4.608 119.098  0.00  0.00    +0.000 A 
ATOM     20  C   UNL     1      -5.708   5.407 119.140  0.00  0.00    +0.000 A 
ATOM     21  C   UNL     1      -4.955   5.445 120.301  0.00  0.00    +0.000 A 
ATOM     22  N   UNL     1      -5.263   4.718 121.386  0.00  0.00    +0.000 NA
ENDBRANCH  15  17
ENDBRANCH   3  13
BRANCH   4  23
ATOM     23  O   UNL     1      -7.859   4.210 125.580  0.00  0.00    +0.000 OA
ATOM     24  H   UNL     1      -8.533   4.486 126.242  0.00  0.00    +0.000 HD
ENDBRANCH   4  23
TORSDOF 3
ENDMDL
MODEL 8
REMARK VINA RESULT:      -6.4      7.984     10.861
REMARK  Name = Tenoxicam
REMARK  4 active torsions:
REMARK  status: ('A' for Active; 'I' for Inactive)
REMARK    1  A    between atoms: C_1  and  N_2
REMARK    2  A    between atoms: C_3  and  C_4
REMARK    3  A    between atoms: N_6  and  C_7
REMARK    4  A    between atoms: C_13  and  O_14
REMARK                            x       y       z     vdW  Elec       q    Type
REMARK                         _______ _______ _______ _____ _____    ______ ____
ROOT
ATOM      1  C   UNL     1      -7.424  -3.962 124.812  0.00  0.00    +0.000 C 
ATOM      2  N   UNL     1      -7.898  -2.596 124.878  0.00  0.00    +0.000 N 
ATOM      3  C   UNL     1      -7.738  -1.612 125.933  0.00  0.00    +0.000 C 
ATOM      4  C   UNL     1      -8.275  -0.358 125.806  0.00  0.00    +0.000 C 
ATOM      5  C   UNL     1      -8.984   0.073 124.632  0.00  0.00    +0.000 A 
ATOM      6  C   UNL     1      -9.213  -0.661 123.501  0.00  0.00    +0.000 A 
ATOM      7  C   UNL     1      -9.934  -0.040 122.465  0.00  0.00    +0.000 A 
ATOM      8  C   UNL     1     -10.261   1.240 122.829  0.00  0.00    +0.000 A 
ATOM      9  S   UNL     1      -9.691   1.631 124.404  0.00  0.00    +0.000 S 
ATOM     10  S   UNL     1      -8.624  -2.230 123.415  0.00  0.00    +0.000 S 
ATOM     11  O   UNL     1      -7.583  -2.170 122.400  0.00  0.00    +0.000 OA
ATOM     12  O   UNL     1      -9.792  -3.055 123.268  0.00  0.00    +0.000 OA
ENDROOT
BRANCH   3  13
ATOM     13  C   UNL     1      -7.053  -1.926 127.265  0.00  0.00    +0.000 C 
ATOM     14  O   UNL     1      -5.914  -1.487 127.462  0.00  0.00    +0.000 OA
ATOM     15  N   UNL     1      -7.675  -2.722 128.190  0.00  0.00    +0.000 N 
ATOM     16  H   UNL     1      -8.348  -3.432 127.999  0.00  0.00    +0.000 HD
BRANCH  15  17
ATOM     17  C   UNL     1      -7.205  -3.021 129.447  0.00  0.00    +0.000 A 
ATOM     18  C   UNL     1      -6.266  -4.003 129.640  0.00  0.00    +0.000 A 
ATOM     19  C   UNL     1      -5.883  -4.254 130.940  0.00  0.00    +0.000 A 
ATOM     20  C   UNL     1      -6.453  -3.514 131.975  0.00  0.00    +0.000 A 
ATOM     21  C   UNL     1      -7.340  -2.497 131.666  0.00  0.00    +0.000 A 
ATOM     22  N   UNL     1      -7.700  -2.210 130.405  0.00  0.00    +0.000 NA
ENDBRANCH  15  17
ENDBRANCH   3  13
BRANCH   4  23
ATOM     23  O   UNL     1      -8.209   0.634 126.777  0.00  0.00    +0.000 OA
ATOM     24  H   UNL     1      -8.268   1.518 126.350  0.00  0.00    +0.000 HD
ENDBRANCH   4  23
TORSDOF 3
ENDMDL
MODEL 9
REMARK VINA RESULT:      -6.4      7.212      9.138
REMARK  Name = Tenoxicam
REMARK  4 active torsions:
REMARK  status: ('A' for Active; 'I' for Inactive)
REMARK    1  A    between atoms: C_1  and  N_2
REMARK    2  A    between atoms: C_3  and  C_4
REMARK    3  A    between atoms: N_6  and  C_7
REMARK    4  A    between atoms: C_13  and  O_14
REMARK                            x       y       z     vdW  Elec       q    Type
REMARK                         _______ _______ _______ _____ _____    ______ ____
ROOT
ATOM      1  C   UNL     1      -7.943   3.124 123.856  0.00  0.00    +0.000 C 
ATOM      2  N   UNL     1      -6.876   3.001 124.825  0.00  0.00    +0.000 N 
ATOM      3  C   UNL     1      -6.225   1.808 125.335  0.00  0.00    +0.000 C 
ATOM      4  C   UNL     1      -5.225   1.903 126.268  0.00  0.00    +0.000 C 
ATOM      5  C   UNL     1      -4.737   3.160 126.765  0.00  0.00    +0.000 A 
ATOM      6  C   UNL     1      -5.163   4.405 126.394  0.00  0.00    +0.000 A 
ATOM      7  C   UNL     1      -4.545   5.508 127.011  0.00  0.00    +0.000 A 
ATOM      8  C   UNL     1      -3.590   5.073 127.893  0.00  0.00    +0.000 A 
ATOM      9  S   UNL     1      -3.488   3.356 127.941  0.00  0.00    +0.000 S 
ATOM     10  S   UNL     1      -6.372   4.542 125.239  0.00  0.00    +0.000 S 
ATOM     11  O   UNL     1      -5.704   5.122 124.084  0.00  0.00    +0.000 OA
ATOM     12  O   UNL     1      -7.454   5.208 125.913  0.00  0.00    +0.000 OA
ENDROOT
BRANCH   3  13
ATOM     13  C   UNL     1      -6.658   0.393 124.945  0.00  0.00    +0.000 C 
ATOM     14  O   UNL     1      -5.784  -0.445 124.695  0.00  0.00    +0.000 OA
ATOM     15  N   UNL     1      -7.988   0.087 124.825  0.00  0.00    +0.000 N 
ATOM     16  H   UNL     1      -8.721   0.723 124.596  0.00  0.00    +0.000 HD
BRANCH  15  17
ATOM     17  C   UNL     1      -8.512  -1.155 124.554  0.00  0.00    +0.000 A 
ATOM     18  C   UNL     1      -8.718  -1.573 123.263  0.00  0.00    +0.000 A 
ATOM     19  C   UNL     1      -9.280  -2.820 123.093  0.00  0.00    +0.000 A 
ATOM     20  C   UNL     1      -9.602  -3.582 124.215  0.00  0.00    +0.000 A 
ATOM     21  C   UNL     1      -9.288  -3.096 125.472  0.00  0.00    +0.000 A 
ATOM     22  N   UNL     1      -8.708  -1.901 125.661  0.00  0.00    +0.000 NA
ENDBRANCH  15  17
ENDBRANCH   3  13
BRANCH   4  23
ATOM     23  O   UNL     1      -4.573   0.819 126.843  0.00  0.00    +0.000 OA
ATOM     24  H   UNL     1      -3.699   0.692 126.411  0.00  0.00    +0.000 HD
ENDBRANCH   4  23
TORSDOF 3
ENDMDL
