MODEL 1
REMARK VINA RESULT:      -7.7      0.000      0.000
REMARK  Name = Tenofovir alafenamide
REMARK  17 active torsions:
REMARK  status: ('A' for Active; 'I' for Inactive)
REMARK    1  A    between atoms: C_1  and  C_2
REMARK    2  A    between atoms: C_2  and  C_3
REMARK    3  A    between atoms: C_2  and  O_4
REMARK    4  A    between atoms: O_4  and  C_5
REMARK    5  A    between atoms: C_5  and  C_7
REMARK    6  A    between atoms: C_7  and  C_8
REMARK    7  A    between atoms: C_7  and  N_9
REMARK    8  A    between atoms: N_9  and  P_10
REMARK    9  A    between atoms: P_10  and  C_12
REMARK   10  A    between atoms: P_10  and  O_27
REMARK   11  A    between atoms: C_12  and  O_13
REMARK   12  A    between atoms: O_13  and  C_14
REMARK   13  A    between atoms: C_14  and  C_15
REMARK   14  A    between atoms: C_14  and  C_16
REMARK   15  A    between atoms: C_16  and  N_17
REMARK   16  A    between atoms: C_21  and  N_22
REMARK   17  A    between atoms: O_27  and  C_28
REMARK                            x       y       z     vdW  Elec       q    Type
REMARK                         _______ _______ _______ _____ _____    ______ ____
ROOT
ATOM      1  P   UNL     1      -7.699   2.902 127.000  0.00  0.00    +0.000 P 
ATOM      2  O   UNL     1      -6.247   2.518 127.104  0.00  0.00    +0.000 OA
ENDROOT
BRANCH   1   3
ATOM      3  N   UNL     1      -8.689   1.610 127.045  0.00  0.00    +0.000 NA
ATOM      4  H   UNL     1      -9.116   1.586 127.963  0.00  0.00    +0.000 HD
BRANCH   3   5
ATOM      5  C   UNL     1      -8.346   0.281 126.514  0.00  0.00    +0.000 C 
ATOM      6  C   UNL     1      -7.933  -0.934 127.388  0.00  0.00    +0.000 C 
BRANCH   5   7
ATOM      7  C   UNL     1      -9.314  -0.196 125.418  0.00  0.00    +0.000 C 
ATOM      8  O   UNL     1     -10.026   0.556 124.795  0.00  0.00    +0.000 OA
BRANCH   7   9
ATOM      9  O   UNL     1      -9.251  -1.551 125.223  0.00  0.00    +0.000 OA
BRANCH   9  11
ATOM     10  C   UNL     1      -7.353  -2.294 123.946  0.00  0.00    +0.000 C 
ATOM     11  C   UNL     1      -8.844  -1.967 123.901  0.00  0.00    +0.000 C 
ATOM     12  C   UNL     1      -9.604  -3.209 123.432  0.00  0.00    +0.000 C 
ENDBRANCH   9  11
ENDBRANCH   7   9
ENDBRANCH   5   7
ENDBRANCH   3   5
ENDBRANCH   1   3
BRANCH   1  13
ATOM     13  C   UNL     1      -8.178   4.057 128.353  0.00  0.00    +0.000 C 
BRANCH  13  14
ATOM     14  O   UNL     1      -9.035   3.349 129.279  0.00  0.00    +0.000 OA
BRANCH  14  15
ATOM     15  C   UNL     1      -9.433   4.118 130.425  0.00  0.00    +0.000 C 
ATOM     16  C   UNL     1      -8.976   3.412 131.693  0.00  0.00    +0.000 C 
BRANCH  15  17
ATOM     17  C   UNL     1     -10.966   4.284 130.399  0.00  0.00    +0.000 C 
BRANCH  17  18
ATOM     18  N   UNL     1     -11.423   5.666 130.386  0.00  0.00    +0.000 N 
ATOM     19  C   UNL     1     -11.945   6.335 131.463  0.00  0.00    +0.000 A 
ATOM     20  N   UNL     1     -12.357   7.546 131.143  0.00  0.00    +0.000 NA
ATOM     21  C   UNL     1     -12.046   7.680 129.806  0.00  0.00    +0.000 A 
ATOM     22  C   UNL     1     -12.208   8.730 128.886  0.00  0.00    +0.000 A 
ATOM     23  N   UNL     1     -11.711   8.591 127.637  0.00  0.00    +0.000 NA
ATOM     24  C   UNL     1     -11.026   7.468 127.362  0.00  0.00    +0.000 A 
ATOM     25  N   UNL     1     -10.851   6.387 128.130  0.00  0.00    +0.000 NA
ATOM     26  C   UNL     1     -11.401   6.549 129.341  0.00  0.00    +0.000 A 
BRANCH  22  27
ATOM     27  N   UNL     1     -12.795   9.928 129.209  0.00  0.00    +0.000 N 
ATOM     28  H   UNL     1     -12.807  10.212 130.176  0.00  0.00    +0.000 HD
ATOM     29  H   UNL     1     -13.158  10.498 128.463  0.00  0.00    +0.000 HD
ENDBRANCH  22  27
ENDBRANCH  17  18
ENDBRANCH  15  17
ENDBRANCH  14  15
ENDBRANCH  13  14
ENDBRANCH   1  13
BRANCH   1  30
ATOM     30  O   UNL     1      -8.026   3.658 125.599  0.00  0.00    +0.000 OA
BRANCH  30  31
ATOM     31  C   UNL     1      -7.403   3.512 124.367  0.00  0.00    +0.000 A 
ATOM     32  C   UNL     1      -6.173   4.154 124.244  0.00  0.00    +0.000 A 
ATOM     33  C   UNL     1      -5.534   4.232 122.993  0.00  0.00    +0.000 A 
ATOM     34  C   UNL     1      -6.165   3.805 121.824  0.00  0.00    +0.000 A 
ATOM     35  C   UNL     1      -7.421   3.257 121.916  0.00  0.00    +0.000 A 
ATOM     36  C   UNL     1      -7.970   3.014 123.179  0.00  0.00    +0.000 A 
ENDBRANCH  30  31
ENDBRANCH   1  30
TORSDOF 13
ENDMDL
MODEL 2
REMARK VINA RESULT:      -7.6      4.661      6.822
REMARK  Name = Tenofovir alafenamide
REMARK  17 active torsions:
REMARK  status: ('A' for Active; 'I' for Inactive)
REMARK    1  A    between atoms: C_1  and  C_2
REMARK    2  A    between atoms: C_2  and  C_3
REMARK    3  A    between atoms: C_2  and  O_4
REMARK    4  A    between atoms: O_4  and  C_5
REMARK    5  A    between atoms: C_5  and  C_7
REMARK    6  A    between atoms: C_7  and  C_8
REMARK    7  A    between atoms: C_7  and  N_9
REMARK    8  A    between atoms: N_9  and  P_10
REMARK    9  A    between atoms: P_10  and  C_12
REMARK   10  A    between atoms: P_10  and  O_27
REMARK   11  A    between atoms: C_12  and  O_13
REMARK   12  A    between atoms: O_13  and  C_14
REMARK   13  A    between atoms: C_14  and  C_15
REMARK   14  A    between atoms: C_14  and  C_16
REMARK   15  A    between atoms: C_16  and  N_17
REMARK   16  A    between atoms: C_21  and  N_22
REMARK   17  A    between atoms: O_27  and  C_28
REMARK                            x       y       z     vdW  Elec       q    Type
REMARK                         _______ _______ _______ _____ _____    ______ ____
ROOT
ATOM      1  P   UNL     1      -5.278   5.949 130.855  0.00  0.00    +0.000 P 
ATOM      2  O   UNL     1      -4.839   4.514 130.728  0.00  0.00    +0.000 OA
ENDROOT
BRANCH   1   3
ATOM      3  N   UNL     1      -4.782   6.864 129.603  0.00  0.00    +0.000 NA
ATOM      4  H   UNL     1      -5.609   7.218 129.139  0.00  0.00    +0.000 HD
BRANCH   3   5
ATOM      5  C   UNL     1      -3.696   6.494 128.681  0.00  0.00    +0.000 C 
ATOM      6  C   UNL     1      -2.223   6.255 129.109  0.00  0.00    +0.000 C 
BRANCH   5   7
ATOM      7  C   UNL     1      -4.108   5.404 127.676  0.00  0.00    +0.000 C 
ATOM      8  O   UNL     1      -4.981   5.562 126.855  0.00  0.00    +0.000 OA
BRANCH   7   9
ATOM      9  O   UNL     1      -3.359   4.265 127.808  0.00  0.00    +0.000 OA
BRANCH   9  11
ATOM     10  C   UNL     1      -1.658   3.088 126.582  0.00  0.00    +0.000 C 
ATOM     11  C   UNL     1      -3.118   3.536 126.585  0.00  0.00    +0.000 C 
ATOM     12  C   UNL     1      -4.010   2.300 126.468  0.00  0.00    +0.000 C 
ENDBRANCH   9  11
ENDBRANCH   7   9
ENDBRANCH   5   7
ENDBRANCH   3   5
ENDBRANCH   1   3
BRANCH   1  13
ATOM     13  C   UNL     1      -7.111   6.073 130.984  0.00  0.00    +0.000 C 
BRANCH  13  14
ATOM     14  O   UNL     1      -7.576   5.061 131.908  0.00  0.00    +0.000 OA
BRANCH  14  15
ATOM     15  C   UNL     1      -8.920   5.256 132.374  0.00  0.00    +0.000 C 
ATOM     16  C   UNL     1      -9.193   4.318 133.541  0.00  0.00    +0.000 C 
BRANCH  15  17
ATOM     17  C   UNL     1      -9.891   4.990 131.205  0.00  0.00    +0.000 C 
BRANCH  17  18
ATOM     18  N   UNL     1     -10.806   6.085 130.921  0.00  0.00    +0.000 N 
ATOM     19  C   UNL     1     -11.765   6.557 131.781  0.00  0.00    +0.000 A 
ATOM     20  N   UNL     1     -12.508   7.496 131.230  0.00  0.00    +0.000 NA
ATOM     21  C   UNL     1     -11.975   7.669 129.969  0.00  0.00    +0.000 A 
ATOM     22  C   UNL     1     -12.299   8.525 128.902  0.00  0.00    +0.000 A 
ATOM     23  N   UNL     1     -11.519   8.524 127.800  0.00  0.00    +0.000 NA
ATOM     24  C   UNL     1     -10.427   7.739 127.811  0.00  0.00    +0.000 A 
ATOM     25  N   UNL     1     -10.046   6.852 128.737  0.00  0.00    +0.000 NA
ATOM     26  C   UNL     1     -10.875   6.853 129.790  0.00  0.00    +0.000 A 
BRANCH  22  27
ATOM     27  N   UNL     1     -13.341   9.419 128.945  0.00  0.00    +0.000 N 
ATOM     28  H   UNL     1     -14.277   9.071 128.805  0.00  0.00    +0.000 HD
ATOM     29  H   UNL     1     -13.135  10.381 129.153  0.00  0.00    +0.000 HD
ENDBRANCH  22  27
ENDBRANCH  17  18
ENDBRANCH  15  17
ENDBRANCH  14  15
ENDBRANCH  13  14
ENDBRANCH   1  13
BRANCH   1  30
ATOM     30  O   UNL     1      -4.665   6.654 132.185  0.00  0.00    +0.000 OA
BRANCH  30  31
ATOM     31  C   UNL     1      -3.338   6.758 132.580  0.00  0.00    +0.000 A 
ATOM     32  C   UNL     1      -2.806   8.044 132.539  0.00  0.00    +0.000 A 
ATOM     33  C   UNL     1      -1.428   8.250 132.740  0.00  0.00    +0.000 A 
ATOM     34  C   UNL     1      -0.539   7.180 132.843  0.00  0.00    +0.000 A 
ATOM     35  C   UNL     1      -1.036   5.902 132.788  0.00  0.00    +0.000 A 
ATOM     36  C   UNL     1      -2.422   5.708 132.775  0.00  0.00    +0.000 A 
ENDBRANCH  30  31
ENDBRANCH   1  30
TORSDOF 13
ENDMDL
MODEL 3
REMARK VINA RESULT:      -7.4      4.180      8.356
REMARK  Name = Tenofovir alafenamide
REMARK  17 active torsions:
REMARK  status: ('A' for Active; 'I' for Inactive)
REMARK    1  A    between atoms: C_1  and  C_2
REMARK    2  A    between atoms: C_2  and  C_3
REMARK    3  A    between atoms: C_2  and  O_4
REMARK    4  A    between atoms: O_4  and  C_5
REMARK    5  A    between atoms: C_5  and  C_7
REMARK    6  A    between atoms: C_7  and  C_8
REMARK    7  A    between atoms: C_7  and  N_9
REMARK    8  A    between atoms: N_9  and  P_10
REMARK    9  A    between atoms: P_10  and  C_12
REMARK   10  A    between atoms: P_10  and  O_27
REMARK   11  A    between atoms: C_12  and  O_13
REMARK   12  A    between atoms: O_13  and  C_14
REMARK   13  A    between atoms: C_14  and  C_15
REMARK   14  A    between atoms: C_14  and  C_16
REMARK   15  A    between atoms: C_16  and  N_17
REMARK   16  A    between atoms: C_21  and  N_22
REMARK   17  A    between atoms: O_27  and  C_28
REMARK                            x       y       z     vdW  Elec       q    Type
REMARK                         _______ _______ _______ _____ _____    ______ ____
ROOT
ATOM      1  P   UNL     1     -10.085   4.717 130.993  0.00  0.00    +0.000 P 
ATOM      2  O   UNL     1     -11.255   4.087 130.284  0.00  0.00    +0.000 OA
ENDROOT
BRANCH   1   3
ATOM      3  N   UNL     1      -9.868   4.116 132.490  0.00  0.00    +0.000 NA
ATOM      4  H   UNL     1      -9.408   4.831 133.040  0.00  0.00    +0.000 HD
BRANCH   3   5
ATOM      5  C   UNL     1      -9.399   2.751 132.778  0.00  0.00    +0.000 C 
ATOM      6  C   UNL     1      -9.657   1.523 131.865  0.00  0.00    +0.000 C 
BRANCH   5   7
ATOM      7  C   UNL     1      -7.943   2.709 133.275  0.00  0.00    +0.000 C 
ATOM      8  O   UNL     1      -7.432   1.713 133.729  0.00  0.00    +0.000 OA
BRANCH   7   9
ATOM      9  O   UNL     1      -7.305   3.910 133.115  0.00  0.00    +0.000 OA
BRANCH   9  11
ATOM     10  C   UNL     1      -5.728   5.555 133.886  0.00  0.00    +0.000 C 
ATOM     11  C   UNL     1      -6.697   4.452 134.308  0.00  0.00    +0.000 C 
ATOM     12  C   UNL     1      -7.734   5.049 135.261  0.00  0.00    +0.000 C 
ENDBRANCH   9  11
ENDBRANCH   7   9
ENDBRANCH   5   7
ENDBRANCH   3   5
ENDBRANCH   1   3
BRANCH   1  13
ATOM     13  C   UNL     1      -8.529   4.489 130.036  0.00  0.00    +0.000 C 
BRANCH  13  14
ATOM     14  O   UNL     1      -8.868   4.001 128.717  0.00  0.00    +0.000 OA
BRANCH  14  15
ATOM     15  C   UNL     1      -7.940   3.045 128.181  0.00  0.00    +0.000 C 
ATOM     16  C   UNL     1      -8.565   1.657 128.215  0.00  0.00    +0.000 C 
BRANCH  15  17
ATOM     17  C   UNL     1      -6.644   3.095 129.015  0.00  0.00    +0.000 C 
BRANCH  17  18
ATOM     18  N   UNL     1      -5.659   4.055 128.541  0.00  0.00    +0.000 N 
ATOM     19  C   UNL     1      -5.593   4.556 127.265  0.00  0.00    +0.000 A 
ATOM     20  N   UNL     1      -4.548   5.340 127.093  0.00  0.00    +0.000 NA
ATOM     21  C   UNL     1      -3.934   5.383 128.327  0.00  0.00    +0.000 A 
ATOM     22  C   UNL     1      -2.794   6.051 128.807  0.00  0.00    +0.000 A 
ATOM     23  N   UNL     1      -2.487   5.964 130.120  0.00  0.00    +0.000 NA
ATOM     24  C   UNL     1      -3.335   5.288 130.914  0.00  0.00    +0.000 A 
ATOM     25  N   UNL     1      -4.413   4.575 130.569  0.00  0.00    +0.000 NA
ATOM     26  C   UNL     1      -4.652   4.649 129.252  0.00  0.00    +0.000 A 
BRANCH  22  27
ATOM     27  N   UNL     1      -2.002   6.847 128.018  0.00  0.00    +0.000 N 
ATOM     28  H   UNL     1      -1.063   7.046 128.327  0.00  0.00    +0.000 HD
ATOM     29  H   UNL     1      -2.373   7.170 127.141  0.00  0.00    +0.000 HD
ENDBRANCH  22  27
ENDBRANCH  17  18
ENDBRANCH  15  17
ENDBRANCH  14  15
ENDBRANCH  13  14
ENDBRANCH   1  13
BRANCH   1  30
ATOM     30  O   UNL     1     -10.287   6.318 131.187  0.00  0.00    +0.000 OA
BRANCH  30  31
ATOM     31  C   UNL     1     -10.797   7.246 130.289  0.00  0.00    +0.000 A 
ATOM     32  C   UNL     1     -12.166   7.483 130.394  0.00  0.00    +0.000 A 
ATOM     33  C   UNL     1     -12.829   8.260 129.426  0.00  0.00    +0.000 A 
ATOM     34  C   UNL     1     -12.180   8.693 128.270  0.00  0.00    +0.000 A 
ATOM     35  C   UNL     1     -10.852   8.385 128.104  0.00  0.00    +0.000 A 
ATOM     36  C   UNL     1     -10.156   7.774 129.153  0.00  0.00    +0.000 A 
ENDBRANCH  30  31
ENDBRANCH   1  30
TORSDOF 13
ENDMDL
MODEL 4
REMARK VINA RESULT:      -7.4      3.698      8.557
REMARK  Name = Tenofovir alafenamide
REMARK  17 active torsions:
REMARK  status: ('A' for Active; 'I' for Inactive)
REMARK    1  A    between atoms: C_1  and  C_2
REMARK    2  A    between atoms: C_2  and  C_3
REMARK    3  A    between atoms: C_2  and  O_4
REMARK    4  A    between atoms: O_4  and  C_5
REMARK    5  A    between atoms: C_5  and  C_7
REMARK    6  A    between atoms: C_7  and  C_8
REMARK    7  A    between atoms: C_7  and  N_9
REMARK    8  A    between atoms: N_9  and  P_10
REMARK    9  A    between atoms: P_10  and  C_12
REMARK   10  A    between atoms: P_10  and  O_27
REMARK   11  A    between atoms: C_12  and  O_13
REMARK   12  A    between atoms: O_13  and  C_14
REMARK   13  A    between atoms: C_14  and  C_15
REMARK   14  A    between atoms: C_14  and  C_16
REMARK   15  A    between atoms: C_16  and  N_17
REMARK   16  A    between atoms: C_21  and  N_22
REMARK   17  A    between atoms: O_27  and  C_28
REMARK                            x       y       z     vdW  Elec       q    Type
REMARK                         _______ _______ _______ _____ _____    ______ ____
ROOT
ATOM      1  P   UNL     1      -9.011   6.587 130.687  0.00  0.00    +0.000 P 
ATOM      2  O   UNL     1      -9.404   6.550 132.141  0.00  0.00    +0.000 OA
ENDROOT
BRANCH   1   3
ATOM      3  N   UNL     1      -7.494   7.135 130.466  0.00  0.00    +0.000 NA
ATOM      4  H   UNL     1      -7.267   7.010 129.487  0.00  0.00    +0.000 HD
BRANCH   3   5
ATOM      5  C   UNL     1      -6.371   6.862 131.377  0.00  0.00    +0.000 C 
ATOM      6  C   UNL     1      -6.218   5.569 132.222  0.00  0.00    +0.000 C 
BRANCH   5   7
ATOM      7  C   UNL     1      -5.005   7.229 130.772  0.00  0.00    +0.000 C 
ATOM      8  O   UNL     1      -4.882   7.969 129.825  0.00  0.00    +0.000 OA
BRANCH   7   9
ATOM      9  O   UNL     1      -3.965   6.644 131.445  0.00  0.00    +0.000 OA
BRANCH   9  11
ATOM     10  C   UNL     1      -1.579   6.337 131.443  0.00  0.00    +0.000 C 
ATOM     11  C   UNL     1      -2.861   6.209 130.622  0.00  0.00    +0.000 C 
ATOM     12  C   UNL     1      -3.014   4.754 130.176  0.00  0.00    +0.000 C 
ENDBRANCH   9  11
ENDBRANCH   7   9
ENDBRANCH   5   7
ENDBRANCH   3   5
ENDBRANCH   1   3
BRANCH   1  13
ATOM     13  C   UNL     1      -9.153   4.919 129.919  0.00  0.00    +0.000 C 
BRANCH  13  14
ATOM     14  O   UNL     1      -8.572   4.973 128.595  0.00  0.00    +0.000 OA
BRANCH  14  15
ATOM     15  C   UNL     1      -7.825   3.803 128.227  0.00  0.00    +0.000 C 
ATOM     16  C   UNL     1      -6.656   3.625 129.186  0.00  0.00    +0.000 C 
BRANCH  15  17
ATOM     17  C   UNL     1      -7.335   3.967 126.774  0.00  0.00    +0.000 C 
BRANCH  17  18
ATOM     18  N   UNL     1      -7.168   2.716 126.049  0.00  0.00    +0.000 N 
ATOM     19  C   UNL     1      -6.051   1.921 126.093  0.00  0.00    +0.000 A 
ATOM     20  N   UNL     1      -6.139   0.895 125.271  0.00  0.00    +0.000 NA
ATOM     21  C   UNL     1      -7.391   1.009 124.701  0.00  0.00    +0.000 A 
ATOM     22  C   UNL     1      -8.092   0.228 123.766  0.00  0.00    +0.000 A 
ATOM     23  N   UNL     1      -9.367   0.554 123.463  0.00  0.00    +0.000 NA
ATOM     24  C   UNL     1      -9.921   1.583 124.129  0.00  0.00    +0.000 A 
ATOM     25  N   UNL     1      -9.344   2.425 124.994  0.00  0.00    +0.000 NA
ATOM     26  C   UNL     1      -8.067   2.092 125.228  0.00  0.00    +0.000 A 
BRANCH  22  27
ATOM     27  N   UNL     1      -7.567  -0.899 123.184  0.00  0.00    +0.000 N 
ATOM     28  H   UNL     1      -8.200  -1.624 122.883  0.00  0.00    +0.000 HD
ATOM     29  H   UNL     1      -6.572  -0.943 123.042  0.00  0.00    +0.000 HD
ENDBRANCH  22  27
ENDBRANCH  17  18
ENDBRANCH  15  17
ENDBRANCH  14  15
ENDBRANCH  13  14
ENDBRANCH   1  13
BRANCH   1  30
ATOM     30  O   UNL     1      -9.967   7.582 129.828  0.00  0.00    +0.000 OA
BRANCH  30  31
ATOM     31  C   UNL     1     -11.028   7.262 128.992  0.00  0.00    +0.000 A 
ATOM     32  C   UNL     1     -10.799   7.474 127.635  0.00  0.00    +0.000 A 
ATOM     33  C   UNL     1     -11.854   7.361 126.710  0.00  0.00    +0.000 A 
ATOM     34  C   UNL     1     -13.172   7.176 127.127  0.00  0.00    +0.000 A 
ATOM     35  C   UNL     1     -13.429   7.060 128.472  0.00  0.00    +0.000 A 
ATOM     36  C   UNL     1     -12.357   6.989 129.368  0.00  0.00    +0.000 A 
ENDBRANCH  30  31
ENDBRANCH   1  30
TORSDOF 13
ENDMDL
MODEL 5
REMARK VINA RESULT:      -7.3      2.775      9.046
REMARK  Name = Tenofovir alafenamide
REMARK  17 active torsions:
REMARK  status: ('A' for Active; 'I' for Inactive)
REMARK    1  A    between atoms: C_1  and  C_2
REMARK    2  A    between atoms: C_2  and  C_3
REMARK    3  A    between atoms: C_2  and  O_4
REMARK    4  A    between atoms: O_4  and  C_5
REMARK    5  A    between atoms: C_5  and  C_7
REMARK    6  A    between atoms: C_7  and  C_8
REMARK    7  A    between atoms: C_7  and  N_9
REMARK    8  A    between atoms: N_9  and  P_10
REMARK    9  A    between atoms: P_10  and  C_12
REMARK   10  A    between atoms: P_10  and  O_27
REMARK   11  A    between atoms: C_12  and  O_13
REMARK   12  A    between atoms: O_13  and  C_14
REMARK   13  A    between atoms: C_14  and  C_15
REMARK   14  A    between atoms: C_14  and  C_16
REMARK   15  A    between atoms: C_16  and  N_17
REMARK   16  A    between atoms: C_21  and  N_22
REMARK   17  A    between atoms: O_27  and  C_28
REMARK                            x       y       z     vdW  Elec       q    Type
REMARK                         _______ _______ _______ _____ _____    ______ ____
ROOT
ATOM      1  P   UNL     1      -7.817   4.175 129.106  0.00  0.00    +0.000 P 
ATOM      2  O   UNL     1      -6.704   5.176 129.270  0.00  0.00    +0.000 OA
ENDROOT
BRANCH   1   3
ATOM      3  N   UNL     1      -9.287   4.872 129.119  0.00  0.00    +0.000 NA
ATOM      4  H   UNL     1      -9.459   5.238 128.191  0.00  0.00    +0.000 HD
BRANCH   3   5
ATOM      5  C   UNL     1      -9.787   5.737 130.200  0.00  0.00    +0.000 C 
ATOM      6  C   UNL     1      -9.063   7.011 130.712  0.00  0.00    +0.000 C 
BRANCH   5   7
ATOM      7  C   UNL     1     -11.294   6.030 130.087  0.00  0.00    +0.000 C 
ATOM      8  O   UNL     1     -12.016   6.144 131.048  0.00  0.00    +0.000 OA
BRANCH   7   9
ATOM      9  O   UNL     1     -11.700   6.167 128.785  0.00  0.00    +0.000 OA
BRANCH   9  11
ATOM     10  C   UNL     1     -11.054   8.152 127.590  0.00  0.00    +0.000 C 
ATOM     11  C   UNL     1     -12.154   7.487 128.414  0.00  0.00    +0.000 C 
ATOM     12  C   UNL     1     -13.433   7.440 127.576  0.00  0.00    +0.000 C 
ENDBRANCH   9  11
ENDBRANCH   7   9
ENDBRANCH   5   7
ENDBRANCH   3   5
ENDBRANCH   1   3
BRANCH   1  13
ATOM     13  C   UNL     1      -7.630   3.226 127.539  0.00  0.00    +0.000 C 
BRANCH  13  14
ATOM     14  O   UNL     1      -6.752   3.964 126.657  0.00  0.00    +0.000 OA
BRANCH  14  15
ATOM     15  C   UNL     1      -5.972   3.143 125.773  0.00  0.00    +0.000 C 
ATOM     16  C   UNL     1      -4.689   3.875 125.403  0.00  0.00    +0.000 C 
BRANCH  15  17
ATOM     17  C   UNL     1      -6.815   2.825 124.522  0.00  0.00    +0.000 C 
BRANCH  17  18
ATOM     18  N   UNL     1      -7.187   1.425 124.386  0.00  0.00    +0.000 N 
ATOM     19  C   UNL     1      -6.501   0.368 124.930  0.00  0.00    +0.000 A 
ATOM     20  N   UNL     1      -7.014  -0.793 124.574  0.00  0.00    +0.000 NA
ATOM     21  C   UNL     1      -8.109  -0.470 123.798  0.00  0.00    +0.000 A 
ATOM     22  C   UNL     1      -9.077  -1.246 123.139  0.00  0.00    +0.000 A 
ATOM     23  N   UNL     1     -10.104  -0.625 122.518  0.00  0.00    +0.000 NA
ATOM     24  C   UNL     1     -10.176   0.713 122.621  0.00  0.00    +0.000 A 
ATOM     25  N   UNL     1      -9.296   1.557 123.173  0.00  0.00    +0.000 NA
ATOM     26  C   UNL     1      -8.270   0.901 123.734  0.00  0.00    +0.000 A 
BRANCH  22  27
ATOM     27  N   UNL     1      -9.072  -2.619 123.145  0.00  0.00    +0.000 N 
ATOM     28  H   UNL     1      -8.965  -3.102 122.266  0.00  0.00    +0.000 HD
ATOM     29  H   UNL     1      -9.134  -3.092 124.030  0.00  0.00    +0.000 HD
ENDBRANCH  22  27
ENDBRANCH  17  18
ENDBRANCH  15  17
ENDBRANCH  14  15
ENDBRANCH  13  14
ENDBRANCH   1  13
BRANCH   1  30
ATOM     30  O   UNL     1      -7.835   3.088 130.314  0.00  0.00    +0.000 OA
BRANCH  30  31
ATOM     31  C   UNL     1      -7.847   3.311 131.684  0.00  0.00    +0.000 A 
ATOM     32  C   UNL     1      -9.046   3.005 132.324  0.00  0.00    +0.000 A 
ATOM     33  C   UNL     1      -9.242   3.357 133.673  0.00  0.00    +0.000 A 
ATOM     34  C   UNL     1      -8.316   4.140 134.363  0.00  0.00    +0.000 A 
ATOM     35  C   UNL     1      -7.170   4.532 133.715  0.00  0.00    +0.000 A 
ATOM     36  C   UNL     1      -6.899   4.024 132.440  0.00  0.00    +0.000 A 
ENDBRANCH  30  31
ENDBRANCH   1  30
TORSDOF 13
ENDMDL
MODEL 6
REMARK VINA RESULT:      -7.3      1.645      2.151
REMARK  Name = Tenofovir alafenamide
REMARK  17 active torsions:
REMARK  status: ('A' for Active; 'I' for Inactive)
REMARK    1  A    between atoms: C_1  and  C_2
REMARK    2  A    between atoms: C_2  and  C_3
REMARK    3  A    between atoms: C_2  and  O_4
REMARK    4  A    between atoms: O_4  and  C_5
REMARK    5  A    between atoms: C_5  and  C_7
REMARK    6  A    between atoms: C_7  and  C_8
REMARK    7  A    between atoms: C_7  and  N_9
REMARK    8  A    between atoms: N_9  and  P_10
REMARK    9  A    between atoms: P_10  and  C_12
REMARK   10  A    between atoms: P_10  and  O_27
REMARK   11  A    between atoms: C_12  and  O_13
REMARK   12  A    between atoms: O_13  and  C_14
REMARK   13  A    between atoms: C_14  and  C_15
REMARK   14  A    between atoms: C_14  and  C_16
REMARK   15  A    between atoms: C_16  and  N_17
REMARK   16  A    between atoms: C_21  and  N_22
REMARK   17  A    between atoms: O_27  and  C_28
REMARK                            x       y       z     vdW  Elec       q    Type
REMARK                         _______ _______ _______ _____ _____    ______ ____
ROOT
ATOM      1  P   UNL     1      -6.431   2.722 125.584  0.00  0.00    +0.000 P 
ATOM      2  O   UNL     1      -4.975   2.789 125.962  0.00  0.00    +0.000 OA
ENDROOT
BRANCH   1   3
ATOM      3  N   UNL     1      -6.861   1.256 125.023  0.00  0.00    +0.000 NA
ATOM      4  H   UNL     1      -6.336   1.090 124.174  0.00  0.00    +0.000 HD
BRANCH   3   5
ATOM      5  C   UNL     1      -8.246   0.759 124.972  0.00  0.00    +0.000 C 
ATOM      6  C   UNL     1      -9.436   1.537 124.348  0.00  0.00    +0.000 C 
BRANCH   5   7
ATOM      7  C   UNL     1      -8.338  -0.718 124.553  0.00  0.00    +0.000 C 
ATOM      8  O   UNL     1      -9.381  -1.327 124.512  0.00  0.00    +0.000 OA
BRANCH   7   9
ATOM      9  O   UNL     1      -7.118  -1.239 124.212  0.00  0.00    +0.000 OA
BRANCH   9  11
ATOM     10  C   UNL     1      -5.723  -3.194 124.074  0.00  0.00    +0.000 C 
ATOM     11  C   UNL     1      -6.729  -2.429 124.932  0.00  0.00    +0.000 C 
ATOM     12  C   UNL     1      -6.077  -2.100 126.276  0.00  0.00    +0.000 C 
ENDBRANCH   9  11
ENDBRANCH   7   9
ENDBRANCH   5   7
ENDBRANCH   3   5
ENDBRANCH   1   3
BRANCH   1  13
ATOM     13  C   UNL     1      -7.508   3.143 127.018  0.00  0.00    +0.000 C 
BRANCH  13  14
ATOM     14  O   UNL     1      -6.664   3.503 128.136  0.00  0.00    +0.000 OA
BRANCH  14  15
ATOM     15  C   UNL     1      -7.188   4.557 128.960  0.00  0.00    +0.000 C 
ATOM     16  C   UNL     1      -6.318   4.713 130.199  0.00  0.00    +0.000 C 
BRANCH  15  17
ATOM     17  C   UNL     1      -8.642   4.210 129.338  0.00  0.00    +0.000 C 
BRANCH  17  18
ATOM     18  N   UNL     1      -9.470   5.360 129.666  0.00  0.00    +0.000 N 
ATOM     19  C   UNL     1      -9.811   5.753 130.935  0.00  0.00    +0.000 A 
ATOM     20  N   UNL     1     -10.642   6.776 130.933  0.00  0.00    +0.000 NA
ATOM     21  C   UNL     1     -10.812   7.086 129.599  0.00  0.00    +0.000 A 
ATOM     22  C   UNL     1     -11.554   8.077 128.934  0.00  0.00    +0.000 A 
ATOM     23  N   UNL     1     -11.448   8.186 127.592  0.00  0.00    +0.000 NA
ATOM     24  C   UNL     1     -10.579   7.372 126.968  0.00  0.00    +0.000 A 
ATOM     25  N   UNL     1      -9.862   6.366 127.481  0.00  0.00    +0.000 NA
ATOM     26  C   UNL     1     -10.035   6.263 128.806  0.00  0.00    +0.000 A 
BRANCH  22  27
ATOM     27  N   UNL     1     -12.343   8.991 129.587  0.00  0.00    +0.000 N 
ATOM     28  H   UNL     1     -12.251   9.965 129.344  0.00  0.00    +0.000 HD
ATOM     29  H   UNL     1     -13.012   8.651 130.257  0.00  0.00    +0.000 HD
ENDBRANCH  22  27
ENDBRANCH  17  18
ENDBRANCH  15  17
ENDBRANCH  14  15
ENDBRANCH  13  14
ENDBRANCH   1  13
BRANCH   1  30
ATOM     30  O   UNL     1      -6.797   3.771 124.398  0.00  0.00    +0.000 OA
BRANCH  30  31
ATOM     31  C   UNL     1      -6.370   3.773 123.077  0.00  0.00    +0.000 A 
ATOM     32  C   UNL     1      -5.165   4.431 122.843  0.00  0.00    +0.000 A 
ATOM     33  C   UNL     1      -4.723   4.658 121.526  0.00  0.00    +0.000 A 
ATOM     34  C   UNL     1      -5.529   4.365 120.426  0.00  0.00    +0.000 A 
ATOM     35  C   UNL     1      -6.763   3.804 120.644  0.00  0.00    +0.000 A 
ATOM     36  C   UNL     1      -7.117   3.413 121.940  0.00  0.00    +0.000 A 
ENDBRANCH  30  31
ENDBRANCH   1  30
TORSDOF 13
ENDMDL
MODEL 7
REMARK VINA RESULT:      -7.2      2.063      4.792
REMARK  Name = Tenofovir alafenamide
REMARK  17 active torsions:
REMARK  status: ('A' for Active; 'I' for Inactive)
REMARK    1  A    between atoms: C_1  and  C_2
REMARK    2  A    between atoms: C_2  and  C_3
REMARK    3  A    between atoms: C_2  and  O_4
REMARK    4  A    between atoms: O_4  and  C_5
REMARK    5  A    between atoms: C_5  and  C_7
REMARK    6  A    between atoms: C_7  and  C_8
REMARK    7  A    between atoms: C_7  and  N_9
REMARK    8  A    between atoms: N_9  and  P_10
REMARK    9  A    between atoms: P_10  and  C_12
REMARK   10  A    between atoms: P_10  and  O_27
REMARK   11  A    between atoms: C_12  and  O_13
REMARK   12  A    between atoms: O_13  and  C_14
REMARK   13  A    between atoms: C_14  and  C_15
REMARK   14  A    between atoms: C_14  and  C_16
REMARK   15  A    between atoms: C_16  and  N_17
REMARK   16  A    between atoms: C_21  and  N_22
REMARK   17  A    between atoms: O_27  and  C_28
REMARK                            x       y       z     vdW  Elec       q    Type
REMARK                         _______ _______ _______ _____ _____    ______ ____
ROOT
ATOM      1  P   UNL     1      -7.880   1.218 126.720  0.00  0.00    +0.000 P 
ATOM      2  O   UNL     1      -8.800   1.979 125.802  0.00  0.00    +0.000 OA
ENDROOT
BRANCH   1   3
ATOM      3  N   UNL     1      -6.315   1.606 126.493  0.00  0.00    +0.000 NA
ATOM      4  H   UNL     1      -5.880   1.659 127.406  0.00  0.00    +0.000 HD
BRANCH   3   5
ATOM      5  C   UNL     1      -5.841   2.631 125.549  0.00  0.00    +0.000 C 
ATOM      6  C   UNL     1      -6.432   2.860 124.132  0.00  0.00    +0.000 C 
BRANCH   5   7
ATOM      7  C   UNL     1      -5.598   3.996 126.216  0.00  0.00    +0.000 C 
ATOM      8  O   UNL     1      -6.467   4.617 126.781  0.00  0.00    +0.000 OA
BRANCH   7   9
ATOM      9  O   UNL     1      -4.292   4.398 126.115  0.00  0.00    +0.000 OA
BRANCH   9  11
ATOM     10  C   UNL     1      -2.280   3.179 126.612  0.00  0.00    +0.000 C 
ATOM     11  C   UNL     1      -3.432   3.990 127.200  0.00  0.00    +0.000 C 
ATOM     12  C   UNL     1      -2.853   5.188 127.955  0.00  0.00    +0.000 C 
ENDBRANCH   9  11
ENDBRANCH   7   9
ENDBRANCH   5   7
ENDBRANCH   3   5
ENDBRANCH   1   3
BRANCH   1  13
ATOM     13  C   UNL     1      -8.310   1.515 128.486  0.00  0.00    +0.000 C 
BRANCH  13  14
ATOM     14  O   UNL     1      -8.985   2.790 128.586  0.00  0.00    +0.000 OA
BRANCH  14  15
ATOM     15  C   UNL     1      -9.020   3.341 129.912  0.00  0.00    +0.000 C 
ATOM     16  C   UNL     1     -10.457   3.361 130.415  0.00  0.00    +0.000 C 
BRANCH  15  17
ATOM     17  C   UNL     1      -8.422   4.761 129.873  0.00  0.00    +0.000 C 
BRANCH  17  18
ATOM     18  N   UNL     1      -9.391   5.829 130.067  0.00  0.00    +0.000 N 
ATOM     19  C   UNL     1      -9.801   6.312 131.284  0.00  0.00    +0.000 A 
ATOM     20  N   UNL     1     -10.751   7.218 131.165  0.00  0.00    +0.000 NA
ATOM     21  C   UNL     1     -10.932   7.358 129.804  0.00  0.00    +0.000 A 
ATOM     22  C   UNL     1     -11.777   8.172 129.030  0.00  0.00    +0.000 A 
ATOM     23  N   UNL     1     -11.659   8.148 127.684  0.00  0.00    +0.000 NA
ATOM     24  C   UNL     1     -10.684   7.385 127.159  0.00  0.00    +0.000 A 
ATOM     25  N   UNL     1      -9.860   6.536 127.783  0.00  0.00    +0.000 NA
ATOM     26  C   UNL     1     -10.045   6.557 129.111  0.00  0.00    +0.000 A 
BRANCH  22  27
ATOM     27  N   UNL     1     -12.684   9.047 129.574  0.00  0.00    +0.000 N 
ATOM     28  H   UNL     1     -12.384   9.990 129.768  0.00  0.00    +0.000 HD
ATOM     29  H   UNL     1     -13.626   8.726 129.724  0.00  0.00    +0.000 HD
ENDBRANCH  22  27
ENDBRANCH  17  18
ENDBRANCH  15  17
ENDBRANCH  14  15
ENDBRANCH  13  14
ENDBRANCH   1  13
BRANCH   1  30
ATOM     30  O   UNL     1      -7.974  -0.386 126.476  0.00  0.00    +0.000 OA
BRANCH  30  31
ATOM     31  C   UNL     1      -8.452  -1.070 125.367  0.00  0.00    +0.000 A 
ATOM     32  C   UNL     1      -9.097  -2.273 125.644  0.00  0.00    +0.000 A 
ATOM     33  C   UNL     1      -9.461  -3.142 124.598  0.00  0.00    +0.000 A 
ATOM     34  C   UNL     1      -9.069  -2.902 123.282  0.00  0.00    +0.000 A 
ATOM     35  C   UNL     1      -8.348  -1.766 123.005  0.00  0.00    +0.000 A 
ATOM     36  C   UNL     1      -8.150  -0.819 124.016  0.00  0.00    +0.000 A 
ENDBRANCH  30  31
ENDBRANCH   1  30
TORSDOF 13
ENDMDL
MODEL 8
REMARK VINA RESULT:      -7.2      1.688      4.503
REMARK  Name = Tenofovir alafenamide
REMARK  17 active torsions:
REMARK  status: ('A' for Active; 'I' for Inactive)
REMARK    1  A    between atoms: C_1  and  C_2
REMARK    2  A    between atoms: C_2  and  C_3
REMARK    3  A    between atoms: C_2  and  O_4
REMARK    4  A    between atoms: O_4  and  C_5
REMARK    5  A    between atoms: C_5  and  C_7
REMARK    6  A    between atoms: C_7  and  C_8
REMARK    7  A    between atoms: C_7  and  N_9
REMARK    8  A    between atoms: N_9  and  P_10
REMARK    9  A    between atoms: P_10  and  C_12
REMARK   10  A    between atoms: P_10  and  O_27
REMARK   11  A    between atoms: C_12  and  O_13
REMARK   12  A    between atoms: O_13  and  C_14
REMARK   13  A    between atoms: C_14  and  C_15
REMARK   14  A    between atoms: C_14  and  C_16
REMARK   15  A    between atoms: C_16  and  N_17
REMARK   16  A    between atoms: C_21  and  N_22
REMARK   17  A    between atoms: O_27  and  C_28
REMARK                            x       y       z     vdW  Elec       q    Type
REMARK                         _______ _______ _______ _____ _____    ______ ____
ROOT
ATOM      1  P   UNL     1      -7.907   1.608 126.485  0.00  0.00    +0.000 P 
ATOM      2  O   UNL     1      -9.255   2.010 125.949  0.00  0.00    +0.000 OA
ENDROOT
BRANCH   1   3
ATOM      3  N   UNL     1      -6.682   2.158 125.565  0.00  0.00    +0.000 NA
ATOM      4  H   UNL     1      -5.860   2.210 126.154  0.00  0.00    +0.000 HD
BRANCH   3   5
ATOM      5  C   UNL     1      -6.797   3.268 124.606  0.00  0.00    +0.000 C 
ATOM      6  C   UNL     1      -5.978   4.585 124.682  0.00  0.00    +0.000 C 
BRANCH   5   7
ATOM      7  C   UNL     1      -6.846   2.794 123.142  0.00  0.00    +0.000 C 
ATOM      8  O   UNL     1      -6.873   1.627 122.829  0.00  0.00    +0.000 OA
BRANCH   7   9
ATOM      9  O   UNL     1      -6.881   3.840 122.258  0.00  0.00    +0.000 OA
BRANCH   9  11
ATOM     10  C   UNL     1      -6.932   4.052 119.863  0.00  0.00    +0.000 C 
ATOM     11  C   UNL     1      -6.076   3.674 121.071  0.00  0.00    +0.000 C 
ATOM     12  C   UNL     1      -4.834   4.566 121.090  0.00  0.00    +0.000 C 
ENDBRANCH   9  11
ENDBRANCH   7   9
ENDBRANCH   5   7
ENDBRANCH   3   5
ENDBRANCH   1   3
BRANCH   1  13
ATOM     13  C   UNL     1      -7.669   2.217 128.207  0.00  0.00    +0.000 C 
BRANCH  13  14
ATOM     14  O   UNL     1      -7.196   3.583 128.150  0.00  0.00    +0.000 OA
BRANCH  14  15
ATOM     15  C   UNL     1      -7.634   4.408 129.240  0.00  0.00    +0.000 C 
ATOM     16  C   UNL     1      -6.769   4.134 130.463  0.00  0.00    +0.000 C 
BRANCH  15  17
ATOM     17  C   UNL     1      -9.118   4.102 129.526  0.00  0.00    +0.000 C 
BRANCH  17  18
ATOM     18  N   UNL     1      -9.915   5.265 129.887  0.00  0.00    +0.000 N 
ATOM     19  C   UNL     1     -10.372   5.550 131.148  0.00  0.00    +0.000 A 
ATOM     20  N   UNL     1     -11.142   6.620 131.169  0.00  0.00    +0.000 NA
ATOM     21  C   UNL     1     -11.147   7.072 129.865  0.00  0.00    +0.000 A 
ATOM     22  C   UNL     1     -11.757   8.171 129.236  0.00  0.00    +0.000 A 
ATOM     23  N   UNL     1     -11.498   8.407 127.931  0.00  0.00    +0.000 NA
ATOM     24  C   UNL     1     -10.610   7.605 127.318  0.00  0.00    +0.000 A 
ATOM     25  N   UNL     1     -10.009   6.508 127.793  0.00  0.00    +0.000 NA
ATOM     26  C   UNL     1     -10.333   6.284 129.074  0.00  0.00    +0.000 A 
BRANCH  22  27
ATOM     27  N   UNL     1     -12.563   9.064 129.897  0.00  0.00    +0.000 N 
ATOM     28  H   UNL     1     -12.699   9.978 129.494  0.00  0.00    +0.000 HD
ATOM     29  H   UNL     1     -13.020   8.760 130.740  0.00  0.00    +0.000 HD
ENDBRANCH  22  27
ENDBRANCH  17  18
ENDBRANCH  15  17
ENDBRANCH  14  15
ENDBRANCH  13  14
ENDBRANCH   1  13
BRANCH   1  30
ATOM     30  O   UNL     1      -7.731  -0.007 126.530  0.00  0.00    +0.000 OA
BRANCH  30  31
ATOM     31  C   UNL     1      -8.373  -0.973 125.766  0.00  0.00    +0.000 A 
ATOM     32  C   UNL     1      -8.696  -2.147 126.443  0.00  0.00    +0.000 A 
ATOM     33  C   UNL     1      -9.181  -3.264 125.737  0.00  0.00    +0.000 A 
ATOM     34  C   UNL     1      -9.219  -3.285 124.343  0.00  0.00    +0.000 A 
ATOM     35  C   UNL     1      -8.812  -2.167 123.655  0.00  0.00    +0.000 A 
ATOM     36  C   UNL     1      -8.508  -1.001 124.366  0.00  0.00    +0.000 A 
ENDBRANCH  30  31
ENDBRANCH   1  30
TORSDOF 13
ENDMDL
MODEL 9
REMARK VINA RESULT:      -7.2      3.449      8.709
REMARK  Name = Tenofovir alafenamide
REMARK  17 active torsions:
REMARK  status: ('A' for Active; 'I' for Inactive)
REMARK    1  A    between atoms: C_1  and  C_2
REMARK    2  A    between atoms: C_2  and  C_3
REMARK    3  A    between atoms: C_2  and  O_4
REMARK    4  A    between atoms: O_4  and  C_5
REMARK    5  A    between atoms: C_5  and  C_7
REMARK    6  A    between atoms: C_7  and  C_8
REMARK    7  A    between atoms: C_7  and  N_9
REMARK    8  A    between atoms: N_9  and  P_10
REMARK    9  A    between atoms: P_10  and  C_12
REMARK   10  A    between atoms: P_10  and  O_27
REMARK   11  A    between atoms: C_12  and  O_13
REMARK   12  A    between atoms: O_13  and  C_14
REMARK   13  A    between atoms: C_14  and  C_15
REMARK   14  A    between atoms: C_14  and  C_16
REMARK   15  A    between atoms: C_16  and  N_17
REMARK   16  A    between atoms: C_21  and  N_22
REMARK   17  A    between atoms: O_27  and  C_28
REMARK                            x       y       z     vdW  Elec       q    Type
REMARK                         _______ _______ _______ _____ _____    ______ ____
ROOT
ATOM      1  P   UNL     1     -10.103   4.420 130.855  0.00  0.00    +0.000 P 
ATOM      2  O   UNL     1     -11.304   3.785 130.206  0.00  0.00    +0.000 OA
ENDROOT
BRANCH   1   3
ATOM      3  N   UNL     1      -9.870   3.898 132.379  0.00  0.00    +0.000 NA
ATOM      4  H   UNL     1      -9.370   4.624 132.876  0.00  0.00    +0.000 HD
BRANCH   3   5
ATOM      5  C   UNL     1      -9.447   2.534 132.735  0.00  0.00    +0.000 C 
ATOM      6  C   UNL     1      -9.727   1.274 131.873  0.00  0.00    +0.000 C 
BRANCH   5   7
ATOM      7  C   UNL     1      -8.000   2.472 133.256  0.00  0.00    +0.000 C 
ATOM      8  O   UNL     1      -7.429   1.433 133.491  0.00  0.00    +0.000 OA
BRANCH   7   9
ATOM      9  O   UNL     1      -7.443   3.716 133.393  0.00  0.00    +0.000 OA
BRANCH   9  11
ATOM     10  C   UNL     1      -5.618   4.147 134.898  0.00  0.00    +0.000 C 
ATOM     11  C   UNL     1      -7.137   4.113 134.747  0.00  0.00    +0.000 C 
ATOM     12  C   UNL     1      -7.694   5.498 135.079  0.00  0.00    +0.000 C 
ENDBRANCH   9  11
ENDBRANCH   7   9
ENDBRANCH   5   7
ENDBRANCH   3   5
ENDBRANCH   1   3
BRANCH   1  13
ATOM     13  C   UNL     1      -8.573   4.096 129.882  0.00  0.00    +0.000 C 
BRANCH  13  14
ATOM     14  O   UNL     1      -8.942   3.419 128.658  0.00  0.00    +0.000 OA
BRANCH  14  15
ATOM     15  C   UNL     1      -8.198   2.219 128.396  0.00  0.00    +0.000 C 
ATOM     16  C   UNL     1      -7.067   2.093 129.407  0.00  0.00    +0.000 C 
BRANCH  15  17
ATOM     17  C   UNL     1      -7.655   2.280 126.954  0.00  0.00    +0.000 C 
BRANCH  17  18
ATOM     18  N   UNL     1      -7.862   1.066 126.180  0.00  0.00    +0.000 N 
ATOM     19  C   UNL     1      -7.282  -0.149 126.445  0.00  0.00    +0.000 A 
ATOM     20  N   UNL     1      -7.578  -1.051 125.531  0.00  0.00    +0.000 NA
ATOM     21  C   UNL     1      -8.423  -0.399 124.656  0.00  0.00    +0.000 A 
ATOM     22  C   UNL     1      -9.095  -0.808 123.491  0.00  0.00    +0.000 A 
ATOM     23  N   UNL     1      -9.942   0.053 122.887  0.00  0.00    +0.000 NA
ATOM     24  C   UNL     1     -10.145   1.244 123.477  0.00  0.00    +0.000 A 
ATOM     25  N   UNL     1      -9.531   1.761 124.547  0.00  0.00    +0.000 NA
ATOM     26  C   UNL     1      -8.665   0.892 125.085  0.00  0.00    +0.000 A 
BRANCH  22  27
ATOM     27  N   UNL     1      -8.984  -2.070 122.963  0.00  0.00    +0.000 N 
ATOM     28  H   UNL     1      -8.071  -2.495 122.921  0.00  0.00    +0.000 HD
ATOM     29  H   UNL     1      -9.825  -2.541 122.673  0.00  0.00    +0.000 HD
ENDBRANCH  22  27
ENDBRANCH  17  18
ENDBRANCH  15  17
ENDBRANCH  14  15
ENDBRANCH  13  14
ENDBRANCH   1  13
BRANCH   1  30
ATOM     30  O   UNL     1     -10.257   6.035 130.963  0.00  0.00    +0.000 OA
BRANCH  30  31
ATOM     31  C   UNL     1     -11.028   6.888 130.185  0.00  0.00    +0.000 A 
ATOM     32  C   UNL     1     -10.384   7.418 129.070  0.00  0.00    +0.000 A 
ATOM     33  C   UNL     1     -10.998   8.432 128.310  0.00  0.00    +0.000 A 
ATOM     34  C   UNL     1     -12.187   9.033 128.722  0.00  0.00    +0.000 A 
ATOM     35  C   UNL     1     -12.787   8.587 129.874  0.00  0.00    +0.000 A 
ATOM     36  C   UNL     1     -12.270   7.459 130.521  0.00  0.00    +0.000 A 
ENDBRANCH  30  31
ENDBRANCH   1  30
TORSDOF 13
ENDMDL
