MODEL 1
REMARK VINA RESULT:      -9.4      0.000      0.000
REMARK  Name = Tepotinib
REMARK  9 active torsions:
REMARK  status: ('A' for Active; 'I' for Inactive)
REMARK    1  A    between atoms: C_1  and  N_2
REMARK    2  A    between atoms: C_5  and  C_6
REMARK    3  A    between atoms: C_6  and  O_7
REMARK    4  A    between atoms: O_7  and  C_8
REMARK    5  A    between atoms: C_11  and  C_14
REMARK    6  A    between atoms: C_16  and  C_17
REMARK    7  A    between atoms: C_17  and  N_18
REMARK    8  A    between atoms: C_20  and  C_25
REMARK    9  A    between atoms: C_27  and  C_31
REMARK                            x       y       z     vdW  Elec       q    Type
REMARK                         _______ _______ _______ _____ _____    ______ ____
ROOT
ATOM      1  C   UNL     1      -4.165   5.227 128.123  0.00  0.00    +0.000 A 
ATOM      2  C   UNL     1      -4.945   5.672 129.203  0.00  0.00    +0.000 A 
ATOM      3  C   UNL     1      -4.378   6.483 130.193  0.00  0.00    +0.000 A 
ATOM      4  C   UNL     1      -2.988   6.661 130.195  0.00  0.00    +0.000 A 
ATOM      5  C   UNL     1      -2.205   6.246 129.134  0.00  0.00    +0.000 A 
ATOM      6  C   UNL     1      -2.795   5.538 128.099  0.00  0.00    +0.000 A 
ENDROOT
BRANCH   1  10
ATOM      7  C   UNL     1      -5.842   3.265 124.864  0.00  0.00    +0.000 A 
ATOM      8  C   UNL     1      -6.084   4.593 125.131  0.00  0.00    +0.000 A 
ATOM      9  N   UNL     1      -5.573   5.249 126.188  0.00  0.00    +0.000 NA
ATOM     10  C   UNL     1      -4.770   4.530 126.997  0.00  0.00    +0.000 A 
ATOM     11  N   UNL     1      -4.441   3.238 126.820  0.00  0.00    +0.000 NA
ATOM     12  C   UNL     1      -5.012   2.630 125.763  0.00  0.00    +0.000 A 
BRANCH   7  13
ATOM     13  O   UNL     1      -6.418   2.540 123.873  0.00  0.00    +0.000 OA
BRANCH  13  14
ATOM     14  C   UNL     1      -6.962   1.289 124.296  0.00  0.00    +0.000 C 
BRANCH  14  19
ATOM     15  C   UNL     1      -9.112  -2.695 125.209  0.00  0.00    +0.000 C 
ATOM     16  N   UNL     1      -9.393  -1.271 125.031  0.00  0.00    +0.000 NA
ATOM     17  C   UNL     1      -9.028  -0.862 123.667  0.00  0.00    +0.000 C 
ATOM     18  C   UNL     1      -9.258   0.636 123.454  0.00  0.00    +0.000 C 
ATOM     19  C   UNL     1      -8.482   1.454 124.491  0.00  0.00    +0.000 C 
ATOM     20  C   UNL     1      -8.912   1.000 125.891  0.00  0.00    +0.000 C 
ATOM     21  C   UNL     1      -8.677  -0.500 126.062  0.00  0.00    +0.000 C 
ENDBRANCH  14  19
ENDBRANCH  13  14
ENDBRANCH   7  13
ENDBRANCH   1  10
BRANCH   3  22
ATOM     22  C   UNL     1      -5.275   7.251 131.144  0.00  0.00    +0.000 C 
BRANCH  22  23
ATOM     23  N   UNL     1      -6.544   6.575 131.435  0.00  0.00    +0.000 N 
ATOM     24  N   UNL     1      -7.638   6.835 130.597  0.00  0.00    +0.000 NA
ATOM     25  C   UNL     1      -8.820   6.646 131.101  0.00  0.00    +0.000 A 
ATOM     26  C   UNL     1      -9.061   6.065 132.443  0.00  0.00    +0.000 A 
ATOM     27  C   UNL     1      -8.009   5.462 133.003  0.00  0.00    +0.000 A 
ATOM     28  C   UNL     1      -6.648   5.880 132.624  0.00  0.00    +0.000 A 
ATOM     29  O   UNL     1      -5.728   5.658 133.405  0.00  0.00    +0.000 OA
BRANCH  25  30
ATOM     30  C   UNL     1     -10.043   6.907 130.285  0.00  0.00    +0.000 A 
ATOM     31  C   UNL     1     -10.011   6.971 128.884  0.00  0.00    +0.000 A 
ATOM     32  C   UNL     1     -11.154   7.386 128.176  0.00  0.00    +0.000 A 
ATOM     33  C   UNL     1     -12.355   7.612 128.859  0.00  0.00    +0.000 A 
ATOM     34  C   UNL     1     -12.391   7.525 130.250  0.00  0.00    +0.000 A 
ATOM     35  C   UNL     1     -11.236   7.185 130.961  0.00  0.00    +0.000 A 
BRANCH  32  36
ATOM     36  C   UNL     1     -11.080   7.691 126.781  0.00  0.00    +0.000 C 
ATOM     37  N   UNL     1     -10.945   7.968 125.653  0.00  0.00    +0.000 NA
ENDBRANCH  32  36
ENDBRANCH  25  30
ENDBRANCH  22  23
ENDBRANCH   3  22
TORSDOF 8
ENDMDL
MODEL 2
REMARK VINA RESULT:      -9.3      3.195      9.672
REMARK  Name = Tepotinib
REMARK  9 active torsions:
REMARK  status: ('A' for Active; 'I' for Inactive)
REMARK    1  A    between atoms: C_1  and  N_2
REMARK    2  A    between atoms: C_5  and  C_6
REMARK    3  A    between atoms: C_6  and  O_7
REMARK    4  A    between atoms: O_7  and  C_8
REMARK    5  A    between atoms: C_11  and  C_14
REMARK    6  A    between atoms: C_16  and  C_17
REMARK    7  A    between atoms: C_17  and  N_18
REMARK    8  A    between atoms: C_20  and  C_25
REMARK    9  A    between atoms: C_27  and  C_31
REMARK                            x       y       z     vdW  Elec       q    Type
REMARK                         _______ _______ _______ _____ _____    ______ ____
ROOT
ATOM      1  C   UNL     1      -7.551   2.804 125.426  0.00  0.00    +0.000 A 
ATOM      2  C   UNL     1      -7.696   1.502 124.920  0.00  0.00    +0.000 A 
ATOM      3  C   UNL     1      -7.175   1.173 123.663  0.00  0.00    +0.000 A 
ATOM      4  C   UNL     1      -6.703   2.208 122.845  0.00  0.00    +0.000 A 
ATOM      5  C   UNL     1      -6.537   3.492 123.328  0.00  0.00    +0.000 A 
ATOM      6  C   UNL     1      -6.953   3.786 124.617  0.00  0.00    +0.000 A 
ENDROOT
BRANCH   1  10
ATOM      7  C   UNL     1      -8.570   3.690 129.358  0.00  0.00    +0.000 A 
ATOM      8  C   UNL     1      -8.752   2.440 128.812  0.00  0.00    +0.000 A 
ATOM      9  N   UNL     1      -8.451   2.129 127.537  0.00  0.00    +0.000 NA
ATOM     10  C   UNL     1      -7.929   3.125 126.794  0.00  0.00    +0.000 A 
ATOM     11  N   UNL     1      -7.681   4.374 127.228  0.00  0.00    +0.000 NA
ATOM     12  C   UNL     1      -8.036   4.630 128.502  0.00  0.00    +0.000 A 
BRANCH   7  13
ATOM     13  O   UNL     1      -8.954   4.073 130.601  0.00  0.00    +0.000 OA
BRANCH  13  14
ATOM     14  C   UNL     1     -10.236   4.701 130.655  0.00  0.00    +0.000 C 
BRANCH  14  19
ATOM     15  C   UNL     1     -12.305   8.295 128.622  0.00  0.00    +0.000 C 
ATOM     16  N   UNL     1     -11.537   7.959 129.820  0.00  0.00    +0.000 NA
ATOM     17  C   UNL     1     -10.197   7.493 129.433  0.00  0.00    +0.000 C 
ATOM     18  C   UNL     1      -9.375   7.081 130.656  0.00  0.00    +0.000 C 
ATOM     19  C   UNL     1     -10.110   6.006 131.464  0.00  0.00    +0.000 C 
ATOM     20  C   UNL     1     -11.490   6.550 131.855  0.00  0.00    +0.000 C 
ATOM     21  C   UNL     1     -12.275   6.959 130.609  0.00  0.00    +0.000 C 
ENDBRANCH  14  19
ENDBRANCH  13  14
ENDBRANCH   7  13
ENDBRANCH   1  10
BRANCH   3  22
ATOM     22  C   UNL     1      -7.008  -0.282 123.273  0.00  0.00    +0.000 C 
BRANCH  22  23
ATOM     23  N   UNL     1      -7.713  -1.216 124.158  0.00  0.00    +0.000 N 
ATOM     24  N   UNL     1      -7.280  -1.322 125.488  0.00  0.00    +0.000 NA
ATOM     25  C   UNL     1      -7.551  -2.432 126.106  0.00  0.00    +0.000 A 
ATOM     26  C   UNL     1      -8.384  -3.514 125.530  0.00  0.00    +0.000 A 
ATOM     27  C   UNL     1      -9.098  -3.175 124.454  0.00  0.00    +0.000 A 
ATOM     28  C   UNL     1      -8.629  -2.079 123.589  0.00  0.00    +0.000 A 
ATOM     29  O   UNL     1      -9.013  -2.047 122.423  0.00  0.00    +0.000 OA
BRANCH  25  30
ATOM     30  C   UNL     1      -7.119  -2.637 127.521  0.00  0.00    +0.000 A 
ATOM     31  C   UNL     1      -5.786  -2.480 127.929  0.00  0.00    +0.000 A 
ATOM     32  C   UNL     1      -5.406  -2.849 129.232  0.00  0.00    +0.000 A 
ATOM     33  C   UNL     1      -6.378  -3.251 130.157  0.00  0.00    +0.000 A 
ATOM     34  C   UNL     1      -7.706  -3.383 129.756  0.00  0.00    +0.000 A 
ATOM     35  C   UNL     1      -8.074  -3.087 128.439  0.00  0.00    +0.000 A 
BRANCH  32  36
ATOM     36  C   UNL     1      -4.025  -2.930 129.597  0.00  0.00    +0.000 C 
ATOM     37  N   UNL     1      -2.916  -2.958 129.963  0.00  0.00    +0.000 NA
ENDBRANCH  32  36
ENDBRANCH  25  30
ENDBRANCH  22  23
ENDBRANCH   3  22
TORSDOF 8
ENDMDL
MODEL 3
REMARK VINA RESULT:      -9.2      3.432      8.807
REMARK  Name = Tepotinib
REMARK  9 active torsions:
REMARK  status: ('A' for Active; 'I' for Inactive)
REMARK    1  A    between atoms: C_1  and  N_2
REMARK    2  A    between atoms: C_5  and  C_6
REMARK    3  A    between atoms: C_6  and  O_7
REMARK    4  A    between atoms: O_7  and  C_8
REMARK    5  A    between atoms: C_11  and  C_14
REMARK    6  A    between atoms: C_16  and  C_17
REMARK    7  A    between atoms: C_17  and  N_18
REMARK    8  A    between atoms: C_20  and  C_25
REMARK    9  A    between atoms: C_27  and  C_31
REMARK                            x       y       z     vdW  Elec       q    Type
REMARK                         _______ _______ _______ _____ _____    ______ ____
ROOT
ATOM      1  C   UNL     1      -7.721  -0.575 129.997  0.00  0.00    +0.000 A 
ATOM      2  C   UNL     1      -6.958  -0.701 128.824  0.00  0.00    +0.000 A 
ATOM      3  C   UNL     1      -6.527  -1.962 128.396  0.00  0.00    +0.000 A 
ATOM      4  C   UNL     1      -6.688  -3.051 129.263  0.00  0.00    +0.000 A 
ATOM      5  C   UNL     1      -7.448  -2.953 130.413  0.00  0.00    +0.000 A 
ATOM      6  C   UNL     1      -7.968  -1.719 130.774  0.00  0.00    +0.000 A 
ENDROOT
BRANCH   1  10
ATOM      7  C   UNL     1      -9.497   3.044 131.012  0.00  0.00    +0.000 A 
ATOM      8  C   UNL     1      -8.759   2.881 129.862  0.00  0.00    +0.000 A 
ATOM      9  N   UNL     1      -8.155   1.728 129.517  0.00  0.00    +0.000 NA
ATOM     10  C   UNL     1      -8.324   0.697 130.368  0.00  0.00    +0.000 A 
ATOM     11  N   UNL     1      -9.045   0.732 131.503  0.00  0.00    +0.000 NA
ATOM     12  C   UNL     1      -9.596   1.923 131.808  0.00  0.00    +0.000 A 
BRANCH   7  13
ATOM     13  O   UNL     1     -10.033   4.211 131.448  0.00  0.00    +0.000 OA
BRANCH  13  14
ATOM     14  C   UNL     1     -10.968   4.804 130.545  0.00  0.00    +0.000 C 
BRANCH  14  19
ATOM     15  C   UNL     1     -12.270   7.270 126.864  0.00  0.00    +0.000 C 
ATOM     16  N   UNL     1     -11.875   7.443 128.261  0.00  0.00    +0.000 NA
ATOM     17  C   UNL     1     -10.497   6.965 128.448  0.00  0.00    +0.000 C 
ATOM     18  C   UNL     1     -10.060   7.080 129.910  0.00  0.00    +0.000 C 
ATOM     19  C   UNL     1     -11.027   6.319 130.824  0.00  0.00    +0.000 C 
ATOM     20  C   UNL     1     -12.442   6.868 130.602  0.00  0.00    +0.000 C 
ATOM     21  C   UNL     1     -12.837   6.745 129.131  0.00  0.00    +0.000 C 
ENDBRANCH  14  19
ENDBRANCH  13  14
ENDBRANCH   7  13
ENDBRANCH   1  10
BRANCH   3  22
ATOM     22  C   UNL     1      -6.029  -2.148 126.977  0.00  0.00    +0.000 C 
BRANCH  22  23
ATOM     23  N   UNL     1      -6.814  -1.418 125.975  0.00  0.00    +0.000 N 
ATOM     24  N   UNL     1      -6.289  -0.218 125.470  0.00  0.00    +0.000 NA
ATOM     25  C   UNL     1      -7.141   0.636 124.989  0.00  0.00    +0.000 A 
ATOM     26  C   UNL     1      -8.589   0.361 124.835  0.00  0.00    +0.000 A 
ATOM     27  C   UNL     1      -8.941  -0.923 124.938  0.00  0.00    +0.000 A 
ATOM     28  C   UNL     1      -8.105  -1.842 125.730  0.00  0.00    +0.000 A 
ATOM     29  O   UNL     1      -8.618  -2.864 126.175  0.00  0.00    +0.000 OA
BRANCH  25  30
ATOM     30  C   UNL     1      -6.673   1.945 124.440  0.00  0.00    +0.000 A 
ATOM     31  C   UNL     1      -6.935   2.341 123.120  0.00  0.00    +0.000 A 
ATOM     32  C   UNL     1      -6.329   3.501 122.605  0.00  0.00    +0.000 A 
ATOM     33  C   UNL     1      -5.570   4.326 123.446  0.00  0.00    +0.000 A 
ATOM     34  C   UNL     1      -5.331   3.942 124.765  0.00  0.00    +0.000 A 
ATOM     35  C   UNL     1      -5.872   2.750 125.257  0.00  0.00    +0.000 A 
BRANCH  32  36
ATOM     36  C   UNL     1      -6.380   3.796 121.206  0.00  0.00    +0.000 C 
ATOM     37  N   UNL     1      -6.490   3.992 120.059  0.00  0.00    +0.000 NA
ENDBRANCH  32  36
ENDBRANCH  25  30
ENDBRANCH  22  23
ENDBRANCH   3  22
TORSDOF 8
ENDMDL
MODEL 4
REMARK VINA RESULT:      -9.1      4.267      9.400
REMARK  Name = Tepotinib
REMARK  9 active torsions:
REMARK  status: ('A' for Active; 'I' for Inactive)
REMARK    1  A    between atoms: C_1  and  N_2
REMARK    2  A    between atoms: C_5  and  C_6
REMARK    3  A    between atoms: C_6  and  O_7
REMARK    4  A    between atoms: O_7  and  C_8
REMARK    5  A    between atoms: C_11  and  C_14
REMARK    6  A    between atoms: C_16  and  C_17
REMARK    7  A    between atoms: C_17  and  N_18
REMARK    8  A    between atoms: C_20  and  C_25
REMARK    9  A    between atoms: C_27  and  C_31
REMARK                            x       y       z     vdW  Elec       q    Type
REMARK                         _______ _______ _______ _____ _____    ______ ____
ROOT
ATOM      1  C   UNL     1      -7.467  -1.630 127.524  0.00  0.00    +0.000 A 
ATOM      2  C   UNL     1      -7.038  -1.717 126.189  0.00  0.00    +0.000 A 
ATOM      3  C   UNL     1      -7.548  -2.714 125.350  0.00  0.00    +0.000 A 
ATOM      4  C   UNL     1      -8.319  -3.736 125.920  0.00  0.00    +0.000 A 
ATOM      5  C   UNL     1      -8.764  -3.661 127.226  0.00  0.00    +0.000 A 
ATOM      6  C   UNL     1      -8.345  -2.607 128.022  0.00  0.00    +0.000 A 
ENDROOT
BRANCH   1  10
ATOM      7  C   UNL     1      -6.325   1.603 129.876  0.00  0.00    +0.000 A 
ATOM      8  C   UNL     1      -5.662   0.397 129.905  0.00  0.00    +0.000 A 
ATOM      9  N   UNL     1      -6.020  -0.673 129.172  0.00  0.00    +0.000 NA
ATOM     10  C   UNL     1      -7.086  -0.503 128.364  0.00  0.00    +0.000 A 
ATOM     11  N   UNL     1      -7.791   0.634 128.232  0.00  0.00    +0.000 NA
ATOM     12  C   UNL     1      -7.402   1.656 129.018  0.00  0.00    +0.000 A 
BRANCH   7  13
ATOM     13  O   UNL     1      -6.062   2.669 130.672  0.00  0.00    +0.000 OA
BRANCH  13  14
ATOM     14  C   UNL     1      -5.337   3.719 130.031  0.00  0.00    +0.000 C 
BRANCH  14  19
ATOM     15  C   UNL     1      -2.683   6.984 128.127  0.00  0.00    +0.000 C 
ATOM     16  N   UNL     1      -2.581   5.677 128.776  0.00  0.00    +0.000 NA
ATOM     17  C   UNL     1      -3.296   4.672 127.977  0.00  0.00    +0.000 C 
ATOM     18  C   UNL     1      -3.260   3.297 128.648  0.00  0.00    +0.000 C 
ATOM     19  C   UNL     1      -3.836   3.372 130.066  0.00  0.00    +0.000 C 
ATOM     20  C   UNL     1      -3.044   4.420 130.859  0.00  0.00    +0.000 C 
ATOM     21  C   UNL     1      -3.096   5.775 130.152  0.00  0.00    +0.000 C 
ENDBRANCH  14  19
ENDBRANCH  13  14
ENDBRANCH   7  13
ENDBRANCH   1  10
BRANCH   3  22
ATOM     22  C   UNL     1      -7.375  -2.597 123.848  0.00  0.00    +0.000 C 
BRANCH  22  23
ATOM     23  N   UNL     1      -7.934  -1.365 123.283  0.00  0.00    +0.000 N 
ATOM     24  N   UNL     1      -7.122  -0.221 123.260  0.00  0.00    +0.000 NA
ATOM     25  C   UNL     1      -7.730   0.927 123.225  0.00  0.00    +0.000 A 
ATOM     26  C   UNL     1      -9.197   1.081 123.084  0.00  0.00    +0.000 A 
ATOM     27  C   UNL     1      -9.851  -0.016 122.693  0.00  0.00    +0.000 A 
ATOM     28  C   UNL     1      -9.282  -1.343 122.987  0.00  0.00    +0.000 A 
ATOM     29  O   UNL     1     -10.038  -2.309 123.025  0.00  0.00    +0.000 OA
BRANCH  25  30
ATOM     30  C   UNL     1      -6.946   2.199 123.209  0.00  0.00    +0.000 A 
ATOM     31  C   UNL     1      -6.750   2.945 122.037  0.00  0.00    +0.000 A 
ATOM     32  C   UNL     1      -5.866   4.039 122.046  0.00  0.00    +0.000 A 
ATOM     33  C   UNL     1      -5.283   4.459 123.248  0.00  0.00    +0.000 A 
ATOM     34  C   UNL     1      -5.499   3.730 124.416  0.00  0.00    +0.000 A 
ATOM     35  C   UNL     1      -6.319   2.597 124.395  0.00  0.00    +0.000 A 
BRANCH  32  36
ATOM     36  C   UNL     1      -5.462   4.663 120.823  0.00  0.00    +0.000 C 
ATOM     37  N   UNL     1      -5.116   5.239 119.867  0.00  0.00    +0.000 NA
ENDBRANCH  32  36
ENDBRANCH  25  30
ENDBRANCH  22  23
ENDBRANCH   3  22
TORSDOF 8
ENDMDL
MODEL 5
REMARK VINA RESULT:      -9.0      3.161      8.965
REMARK  Name = Tepotinib
REMARK  9 active torsions:
REMARK  status: ('A' for Active; 'I' for Inactive)
REMARK    1  A    between atoms: C_1  and  N_2
REMARK    2  A    between atoms: C_5  and  C_6
REMARK    3  A    between atoms: C_6  and  O_7
REMARK    4  A    between atoms: O_7  and  C_8
REMARK    5  A    between atoms: C_11  and  C_14
REMARK    6  A    between atoms: C_16  and  C_17
REMARK    7  A    between atoms: C_17  and  N_18
REMARK    8  A    between atoms: C_20  and  C_25
REMARK    9  A    between atoms: C_27  and  C_31
REMARK                            x       y       z     vdW  Elec       q    Type
REMARK                         _______ _______ _______ _____ _____    ______ ____
ROOT
ATOM      1  C   UNL     1      -7.936  -0.742 130.168  0.00  0.00    +0.000 A 
ATOM      2  C   UNL     1      -7.593  -0.978 128.826  0.00  0.00    +0.000 A 
ATOM      3  C   UNL     1      -7.243  -2.266 128.406  0.00  0.00    +0.000 A 
ATOM      4  C   UNL     1      -7.037  -3.253 129.379  0.00  0.00    +0.000 A 
ATOM      5  C   UNL     1      -7.382  -3.046 130.702  0.00  0.00    +0.000 A 
ATOM      6  C   UNL     1      -7.837  -1.796 131.091  0.00  0.00    +0.000 A 
ENDROOT
BRANCH   1  10
ATOM      7  C   UNL     1      -9.396   2.944 131.419  0.00  0.00    +0.000 A 
ATOM      8  C   UNL     1      -9.481   1.813 132.198  0.00  0.00    +0.000 A 
ATOM      9  N   UNL     1      -9.037   0.603 131.812  0.00  0.00    +0.000 NA
ATOM     10  C   UNL     1      -8.468   0.545 130.592  0.00  0.00    +0.000 A 
ATOM     11  N   UNL     1      -8.305   1.588 129.757  0.00  0.00    +0.000 NA
ATOM     12  C   UNL     1      -8.801   2.763 130.189  0.00  0.00    +0.000 A 
BRANCH   7  13
ATOM     13  O   UNL     1      -9.922   4.156 131.725  0.00  0.00    +0.000 OA
BRANCH  13  14
ATOM     14  C   UNL     1     -10.278   4.949 130.590  0.00  0.00    +0.000 C 
BRANCH  14  19
ATOM     15  C   UNL     1     -12.708   7.556 127.653  0.00  0.00    +0.000 C 
ATOM     16  N   UNL     1     -11.966   7.656 128.910  0.00  0.00    +0.000 NA
ATOM     17  C   UNL     1     -10.556   7.307 128.680  0.00  0.00    +0.000 C 
ATOM     18  C   UNL     1      -9.752   7.348 129.981  0.00  0.00    +0.000 C 
ATOM     19  C   UNL     1     -10.376   6.422 131.031  0.00  0.00    +0.000 C 
ATOM     20  C   UNL     1     -11.836   6.840 131.244  0.00  0.00    +0.000 C 
ATOM     21  C   UNL     1     -12.602   6.796 129.922  0.00  0.00    +0.000 C 
ENDBRANCH  14  19
ENDBRANCH  13  14
ENDBRANCH   7  13
ENDBRANCH   1  10
BRANCH   3  22
ATOM     22  C   UNL     1      -7.227  -2.599 126.927  0.00  0.00    +0.000 C 
BRANCH  22  23
ATOM     23  N   UNL     1      -7.599  -1.473 126.064  0.00  0.00    +0.000 N 
ATOM     24  N   UNL     1      -6.666  -0.440 125.886  0.00  0.00    +0.000 NA
ATOM     25  C   UNL     1      -7.137   0.723 125.551  0.00  0.00    +0.000 A 
ATOM     26  C   UNL     1      -8.563   0.976 125.233  0.00  0.00    +0.000 A 
ATOM     27  C   UNL     1      -9.302  -0.115 125.014  0.00  0.00    +0.000 A 
ATOM     28  C   UNL     1      -8.909  -1.392 125.634  0.00  0.00    +0.000 A 
ATOM     29  O   UNL     1      -9.768  -2.254 125.796  0.00  0.00    +0.000 OA
BRANCH  25  30
ATOM     30  C   UNL     1      -6.219   1.884 125.351  0.00  0.00    +0.000 A 
ATOM     31  C   UNL     1      -5.072   2.078 126.136  0.00  0.00    +0.000 A 
ATOM     32  C   UNL     1      -4.339   3.272 126.018  0.00  0.00    +0.000 A 
ATOM     33  C   UNL     1      -4.678   4.208 125.033  0.00  0.00    +0.000 A 
ATOM     34  C   UNL     1      -5.805   4.002 124.238  0.00  0.00    +0.000 A 
ATOM     35  C   UNL     1      -6.579   2.849 124.404  0.00  0.00    +0.000 A 
BRANCH  32  36
ATOM     36  C   UNL     1      -3.318   3.601 126.965  0.00  0.00    +0.000 C 
ATOM     37  N   UNL     1      -2.458   3.925 127.688  0.00  0.00    +0.000 NA
ENDBRANCH  32  36
ENDBRANCH  25  30
ENDBRANCH  22  23
ENDBRANCH   3  22
TORSDOF 8
ENDMDL
MODEL 6
REMARK VINA RESULT:      -9.0      2.812      9.201
REMARK  Name = Tepotinib
REMARK  9 active torsions:
REMARK  status: ('A' for Active; 'I' for Inactive)
REMARK    1  A    between atoms: C_1  and  N_2
REMARK    2  A    between atoms: C_5  and  C_6
REMARK    3  A    between atoms: C_6  and  O_7
REMARK    4  A    between atoms: O_7  and  C_8
REMARK    5  A    between atoms: C_11  and  C_14
REMARK    6  A    between atoms: C_16  and  C_17
REMARK    7  A    between atoms: C_17  and  N_18
REMARK    8  A    between atoms: C_20  and  C_25
REMARK    9  A    between atoms: C_27  and  C_31
REMARK                            x       y       z     vdW  Elec       q    Type
REMARK                         _______ _______ _______ _____ _____    ______ ____
ROOT
ATOM      1  C   UNL     1      -7.637  -1.660 127.814  0.00  0.00    +0.000 A 
ATOM      2  C   UNL     1      -7.153  -1.786 126.502  0.00  0.00    +0.000 A 
ATOM      3  C   UNL     1      -7.598  -2.832 125.685  0.00  0.00    +0.000 A 
ATOM      4  C   UNL     1      -8.360  -3.855 126.267  0.00  0.00    +0.000 A 
ATOM      5  C   UNL     1      -8.859  -3.742 127.551  0.00  0.00    +0.000 A 
ATOM      6  C   UNL     1      -8.503  -2.644 128.318  0.00  0.00    +0.000 A 
ENDROOT
BRANCH   1  10
ATOM      7  C   UNL     1      -6.801   1.714 130.095  0.00  0.00    +0.000 A 
ATOM      8  C   UNL     1      -6.543   1.654 128.744  0.00  0.00    +0.000 A 
ATOM      9  N   UNL     1      -6.783   0.569 127.984  0.00  0.00    +0.000 NA
ATOM     10  C   UNL     1      -7.323  -0.489 128.621  0.00  0.00    +0.000 A 
ATOM     11  N   UNL     1      -7.642  -0.534 129.927  0.00  0.00    +0.000 NA
ATOM     12  C   UNL     1      -7.346   0.571 130.638  0.00  0.00    +0.000 A 
BRANCH   7  13
ATOM     13  O   UNL     1      -6.479   2.745 130.915  0.00  0.00    +0.000 OA
BRANCH  13  14
ATOM     14  C   UNL     1      -7.579   3.588 131.264  0.00  0.00    +0.000 C 
BRANCH  14  19
ATOM     15  C   UNL     1     -11.273   6.319 131.735  0.00  0.00    +0.000 C 
ATOM     16  N   UNL     1      -9.975   6.274 131.062  0.00  0.00    +0.000 NA
ATOM     17  C   UNL     1      -9.943   5.140 130.127  0.00  0.00    +0.000 C 
ATOM     18  C   UNL     1      -8.581   5.025 129.437  0.00  0.00    +0.000 C 
ATOM     19  C   UNL     1      -7.459   4.905 130.474  0.00  0.00    +0.000 C 
ATOM     20  C   UNL     1      -7.529   6.119 131.410  0.00  0.00    +0.000 C 
ATOM     21  C   UNL     1      -8.905   6.205 132.070  0.00  0.00    +0.000 C 
ENDBRANCH  14  19
ENDBRANCH  13  14
ENDBRANCH   7  13
ENDBRANCH   1  10
BRANCH   3  22
ATOM     22  C   UNL     1      -7.370  -2.770 124.188  0.00  0.00    +0.000 C 
BRANCH  22  23
ATOM     23  N   UNL     1      -7.864  -1.538 123.565  0.00  0.00    +0.000 N 
ATOM     24  N   UNL     1      -7.030  -0.410 123.580  0.00  0.00    +0.000 NA
ATOM     25  C   UNL     1      -7.610   0.749 123.485  0.00  0.00    +0.000 A 
ATOM     26  C   UNL     1      -9.061   0.928 123.239  0.00  0.00    +0.000 A 
ATOM     27  C   UNL     1      -9.708  -0.163 122.822  0.00  0.00    +0.000 A 
ATOM     28  C   UNL     1      -9.188  -1.495 123.176  0.00  0.00    +0.000 A 
ATOM     29  O   UNL     1      -9.964  -2.446 123.178  0.00  0.00    +0.000 OA
BRANCH  25  30
ATOM     30  C   UNL     1      -6.802   2.005 123.503  0.00  0.00    +0.000 A 
ATOM     31  C   UNL     1      -6.377   2.607 124.696  0.00  0.00    +0.000 A 
ATOM     32  C   UNL     1      -5.767   3.874 124.662  0.00  0.00    +0.000 A 
ATOM     33  C   UNL     1      -5.471   4.475 123.432  0.00  0.00    +0.000 A 
ATOM     34  C   UNL     1      -5.873   3.863 122.245  0.00  0.00    +0.000 A 
ATOM     35  C   UNL     1      -6.546   2.638 122.281  0.00  0.00    +0.000 A 
BRANCH  32  36
ATOM     36  C   UNL     1      -5.545   4.613 125.866  0.00  0.00    +0.000 C 
ATOM     37  N   UNL     1      -5.340   5.148 126.885  0.00  0.00    +0.000 NA
ENDBRANCH  32  36
ENDBRANCH  25  30
ENDBRANCH  22  23
ENDBRANCH   3  22
TORSDOF 8
ENDMDL
MODEL 7
REMARK VINA RESULT:      -9.0      3.157      9.368
REMARK  Name = Tepotinib
REMARK  9 active torsions:
REMARK  status: ('A' for Active; 'I' for Inactive)
REMARK    1  A    between atoms: C_1  and  N_2
REMARK    2  A    between atoms: C_5  and  C_6
REMARK    3  A    between atoms: C_6  and  O_7
REMARK    4  A    between atoms: O_7  and  C_8
REMARK    5  A    between atoms: C_11  and  C_14
REMARK    6  A    between atoms: C_16  and  C_17
REMARK    7  A    between atoms: C_17  and  N_18
REMARK    8  A    between atoms: C_20  and  C_25
REMARK    9  A    between atoms: C_27  and  C_31
REMARK                            x       y       z     vdW  Elec       q    Type
REMARK                         _______ _______ _______ _____ _____    ______ ____
ROOT
ATOM      1  C   UNL     1      -6.688   3.251 124.516  0.00  0.00    +0.000 A 
ATOM      2  C   UNL     1      -7.988   2.789 124.777  0.00  0.00    +0.000 A 
ATOM      3  C   UNL     1      -8.860   2.506 123.719  0.00  0.00    +0.000 A 
ATOM      4  C   UNL     1      -8.486   2.892 122.425  0.00  0.00    +0.000 A 
ATOM      5  C   UNL     1      -7.207   3.335 122.145  0.00  0.00    +0.000 A 
ATOM      6  C   UNL     1      -6.310   3.506 123.187  0.00  0.00    +0.000 A 
ENDROOT
BRANCH   1  10
ATOM      7  C   UNL     1      -3.844   3.623 127.525  0.00  0.00    +0.000 A 
ATOM      8  C   UNL     1      -4.329   2.402 127.115  0.00  0.00    +0.000 A 
ATOM      9  N   UNL     1      -5.264   2.252 126.159  0.00  0.00    +0.000 NA
ATOM     10  C   UNL     1      -5.710   3.387 125.586  0.00  0.00    +0.000 A 
ATOM     11  N   UNL     1      -5.289   4.629 125.886  0.00  0.00    +0.000 NA
ATOM     12  C   UNL     1      -4.377   4.713 126.873  0.00  0.00    +0.000 A 
BRANCH   7  13
ATOM     13  O   UNL     1      -2.981   3.825 128.552  0.00  0.00    +0.000 OA
BRANCH  13  14
ATOM     14  C   UNL     1      -2.845   5.191 128.947  0.00  0.00    +0.000 C 
BRANCH  14  19
ATOM     15  C   UNL     1      -6.507   6.886 131.193  0.00  0.00    +0.000 C 
ATOM     16  N   UNL     1      -5.164   6.363 131.446  0.00  0.00    +0.000 NA
ATOM     17  C   UNL     1      -4.168   7.224 130.794  0.00  0.00    +0.000 C 
ATOM     18  C   UNL     1      -2.749   6.683 130.990  0.00  0.00    +0.000 C 
ATOM     19  C   UNL     1      -2.644   5.243 130.475  0.00  0.00    +0.000 C 
ATOM     20  C   UNL     1      -3.692   4.388 131.199  0.00  0.00    +0.000 C 
ATOM     21  C   UNL     1      -5.091   4.966 130.988  0.00  0.00    +0.000 C 
ENDBRANCH  14  19
ENDBRANCH  13  14
ENDBRANCH   7  13
ENDBRANCH   1  10
BRANCH   3  22
ATOM     22  C   UNL     1     -10.106   1.680 123.969  0.00  0.00    +0.000 C 
BRANCH  22  23
ATOM     23  N   UNL     1      -9.853   0.238 124.054  0.00  0.00    +0.000 N 
ATOM     24  N   UNL     1      -9.530  -0.304 125.307  0.00  0.00    +0.000 NA
ATOM     25  C   UNL     1      -8.858  -1.415 125.309  0.00  0.00    +0.000 A 
ATOM     26  C   UNL     1      -8.534  -2.186 124.085  0.00  0.00    +0.000 A 
ATOM     27  C   UNL     1      -9.222  -1.841 122.994  0.00  0.00    +0.000 A 
ATOM     28  C   UNL     1      -9.751  -0.472 122.874  0.00  0.00    +0.000 A 
ATOM     29  O   UNL     1      -9.990  -0.032 121.753  0.00  0.00    +0.000 OA
BRANCH  25  30
ATOM     30  C   UNL     1      -8.461  -2.059 126.598  0.00  0.00    +0.000 A 
ATOM     31  C   UNL     1      -7.442  -1.543 127.412  0.00  0.00    +0.000 A 
ATOM     32  C   UNL     1      -6.995  -2.279 128.524  0.00  0.00    +0.000 A 
ATOM     33  C   UNL     1      -7.651  -3.462 128.890  0.00  0.00    +0.000 A 
ATOM     34  C   UNL     1      -8.680  -3.960 128.092  0.00  0.00    +0.000 A 
ATOM     35  C   UNL     1      -9.076  -3.267 126.944  0.00  0.00    +0.000 A 
BRANCH  32  36
ATOM     36  C   UNL     1      -5.807  -1.900 129.224  0.00  0.00    +0.000 C 
ATOM     37  N   UNL     1      -4.846  -1.515 129.767  0.00  0.00    +0.000 NA
ENDBRANCH  32  36
ENDBRANCH  25  30
ENDBRANCH  22  23
ENDBRANCH   3  22
TORSDOF 8
ENDMDL
MODEL 8
REMARK VINA RESULT:      -8.9      4.204     10.331
REMARK  Name = Tepotinib
REMARK  9 active torsions:
REMARK  status: ('A' for Active; 'I' for Inactive)
REMARK    1  A    between atoms: C_1  and  N_2
REMARK    2  A    between atoms: C_5  and  C_6
REMARK    3  A    between atoms: C_6  and  O_7
REMARK    4  A    between atoms: O_7  and  C_8
REMARK    5  A    between atoms: C_11  and  C_14
REMARK    6  A    between atoms: C_16  and  C_17
REMARK    7  A    between atoms: C_17  and  N_18
REMARK    8  A    between atoms: C_20  and  C_25
REMARK    9  A    between atoms: C_27  and  C_31
REMARK                            x       y       z     vdW  Elec       q    Type
REMARK                         _______ _______ _______ _____ _____    ______ ____
ROOT
ATOM      1  C   UNL     1      -3.468   4.870 128.264  0.00  0.00    +0.000 A 
ATOM      2  C   UNL     1      -4.713   4.450 127.769  0.00  0.00    +0.000 A 
ATOM      3  C   UNL     1      -4.802   3.306 126.967  0.00  0.00    +0.000 A 
ATOM      4  C   UNL     1      -3.615   2.724 126.501  0.00  0.00    +0.000 A 
ATOM      5  C   UNL     1      -2.381   3.113 126.988  0.00  0.00    +0.000 A 
ATOM      6  C   UNL     1      -2.310   4.177 127.872  0.00  0.00    +0.000 A 
ENDROOT
BRANCH   1  10
ATOM      7  C   UNL     1      -3.240   7.917 131.083  0.00  0.00    +0.000 A 
ATOM      8  C   UNL     1      -4.274   7.823 130.180  0.00  0.00    +0.000 A 
ATOM      9  N   UNL     1      -4.364   6.861 129.243  0.00  0.00    +0.000 NA
ATOM     10  C   UNL     1      -3.371   5.949 129.237  0.00  0.00    +0.000 A 
ATOM     11  N   UNL     1      -2.329   5.925 130.087  0.00  0.00    +0.000 NA
ATOM     12  C   UNL     1      -2.280   6.934 130.978  0.00  0.00    +0.000 A 
BRANCH   7  13
ATOM     13  O   UNL     1      -3.056   8.926 131.971  0.00  0.00    +0.000 OA
BRANCH  13  14
ATOM     14  C   UNL     1      -1.999   8.704 132.906  0.00  0.00    +0.000 C 
BRANCH  14  19
ATOM     15  C   UNL     1       1.324  11.904 132.673  0.00  0.00    +0.000 C 
ATOM     16  N   UNL     1       0.161  11.533 133.480  0.00  0.00    +0.000 NA
ATOM     17  C   UNL     1       0.378  10.209 134.079  0.00  0.00    +0.000 C 
ATOM     18  C   UNL     1      -0.838   9.759 134.892  0.00  0.00    +0.000 C 
ATOM     19  C   UNL     1      -2.100   9.761 134.023  0.00  0.00    +0.000 C 
ATOM     20  C   UNL     1      -2.287  11.167 133.438  0.00  0.00    +0.000 C 
ATOM     21  C   UNL     1      -1.049  11.583 132.644  0.00  0.00    +0.000 C 
ENDBRANCH  14  19
ENDBRANCH  13  14
ENDBRANCH   7  13
ENDBRANCH   1  10
BRANCH   3  22
ATOM     22  C   UNL     1      -6.148   2.650 126.734  0.00  0.00    +0.000 C 
BRANCH  22  23
ATOM     23  N   UNL     1      -6.279   2.020 125.417  0.00  0.00    +0.000 N 
ATOM     24  N   UNL     1      -6.248   2.845 124.283  0.00  0.00    +0.000 NA
ATOM     25  C   UNL     1      -6.825   2.390 123.211  0.00  0.00    +0.000 A 
ATOM     26  C   UNL     1      -7.388   1.024 123.094  0.00  0.00    +0.000 A 
ATOM     27  C   UNL     1      -7.013   0.167 124.048  0.00  0.00    +0.000 A 
ATOM     28  C   UNL     1      -6.620   0.683 125.371  0.00  0.00    +0.000 A 
ATOM     29  O   UNL     1      -6.693  -0.070 126.338  0.00  0.00    +0.000 OA
BRANCH  25  30
ATOM     30  C   UNL     1      -6.850   3.205 121.960  0.00  0.00    +0.000 A 
ATOM     31  C   UNL     1      -8.044   3.516 121.291  0.00  0.00    +0.000 A 
ATOM     32  C   UNL     1      -7.996   4.139 120.031  0.00  0.00    +0.000 A 
ATOM     33  C   UNL     1      -6.769   4.561 119.504  0.00  0.00    +0.000 A 
ATOM     34  C   UNL     1      -5.586   4.272 120.183  0.00  0.00    +0.000 A 
ATOM     35  C   UNL     1      -5.626   3.587 121.401  0.00  0.00    +0.000 A 
BRANCH  32  36
ATOM     36  C   UNL     1      -9.172   4.248 119.223  0.00  0.00    +0.000 C 
ATOM     37  N   UNL     1     -10.105   4.407 118.537  0.00  0.00    +0.000 NA
ENDBRANCH  32  36
ENDBRANCH  25  30
ENDBRANCH  22  23
ENDBRANCH   3  22
TORSDOF 8
ENDMDL
MODEL 9
REMARK VINA RESULT:      -8.9      1.863      2.405
REMARK  Name = Tepotinib
REMARK  9 active torsions:
REMARK  status: ('A' for Active; 'I' for Inactive)
REMARK    1  A    between atoms: C_1  and  N_2
REMARK    2  A    between atoms: C_5  and  C_6
REMARK    3  A    between atoms: C_6  and  O_7
REMARK    4  A    between atoms: O_7  and  C_8
REMARK    5  A    between atoms: C_11  and  C_14
REMARK    6  A    between atoms: C_16  and  C_17
REMARK    7  A    between atoms: C_17  and  N_18
REMARK    8  A    between atoms: C_20  and  C_25
REMARK    9  A    between atoms: C_27  and  C_31
REMARK                            x       y       z     vdW  Elec       q    Type
REMARK                         _______ _______ _______ _____ _____    ______ ____
ROOT
ATOM      1  C   UNL     1      -4.144   3.842 129.294  0.00  0.00    +0.000 A 
ATOM      2  C   UNL     1      -4.826   4.664 130.205  0.00  0.00    +0.000 A 
ATOM      3  C   UNL     1      -4.466   6.010 130.346  0.00  0.00    +0.000 A 
ATOM      4  C   UNL     1      -3.291   6.454 129.725  0.00  0.00    +0.000 A 
ATOM      5  C   UNL     1      -2.614   5.666 128.812  0.00  0.00    +0.000 A 
ATOM      6  C   UNL     1      -3.045   4.367 128.593  0.00  0.00    +0.000 A 
ENDROOT
BRANCH   1  10
ATOM      7  C   UNL     1      -5.409  -0.025 128.441  0.00  0.00    +0.000 A 
ATOM      8  C   UNL     1      -5.373   0.967 127.487  0.00  0.00    +0.000 A 
ATOM      9  N   UNL     1      -4.988   2.232 127.738  0.00  0.00    +0.000 NA
ATOM     10  C   UNL     1      -4.610   2.493 129.005  0.00  0.00    +0.000 A 
ATOM     11  N   UNL     1      -4.578   1.599 130.009  0.00  0.00    +0.000 NA
ATOM     12  C   UNL     1      -5.006   0.360 129.701  0.00  0.00    +0.000 A 
BRANCH   7  13
ATOM     13  O   UNL     1      -5.887  -1.281 128.256  0.00  0.00    +0.000 OA
BRANCH  13  14
ATOM     14  C   UNL     1      -6.569  -1.477 127.017  0.00  0.00    +0.000 C 
BRANCH  14  19
ATOM     15  C   UNL     1      -9.034  -2.887 123.374  0.00  0.00    +0.000 C 
ATOM     16  N   UNL     1      -9.208  -2.437 124.755  0.00  0.00    +0.000 NA
ATOM     17  C   UNL     1      -8.715  -1.059 124.892  0.00  0.00    +0.000 C 
ATOM     18  C   UNL     1      -8.831  -0.566 126.337  0.00  0.00    +0.000 C 
ATOM     19  C   UNL     1      -8.086  -1.507 127.290  0.00  0.00    +0.000 C 
ATOM     20  C   UNL     1      -8.650  -2.923 127.118  0.00  0.00    +0.000 C 
ATOM     21  C   UNL     1      -8.526  -3.374 125.663  0.00  0.00    +0.000 C 
ENDBRANCH  14  19
ENDBRANCH  13  14
ENDBRANCH   7  13
ENDBRANCH   1  10
BRANCH   3  22
ATOM     22  C   UNL     1      -5.407   6.975 131.040  0.00  0.00    +0.000 C 
BRANCH  22  23
ATOM     23  N   UNL     1      -6.713   6.393 131.369  0.00  0.00    +0.000 N 
ATOM     24  N   UNL     1      -7.776   6.609 130.479  0.00  0.00    +0.000 NA
ATOM     25  C   UNL     1      -8.976   6.531 130.970  0.00  0.00    +0.000 A 
ATOM     26  C   UNL     1      -9.273   6.111 132.360  0.00  0.00    +0.000 A 
ATOM     27  C   UNL     1      -8.263   5.525 133.009  0.00  0.00    +0.000 A 
ATOM     28  C   UNL     1      -6.876   5.838 132.622  0.00  0.00    +0.000 A 
ATOM     29  O   UNL     1      -5.983   5.660 133.447  0.00  0.00    +0.000 OA
BRANCH  25  30
ATOM     30  C   UNL     1     -10.168   6.757 130.099  0.00  0.00    +0.000 A 
ATOM     31  C   UNL     1     -10.063   6.907 128.708  0.00  0.00    +0.000 A 
ATOM     32  C   UNL     1     -11.192   7.285 127.959  0.00  0.00    +0.000 A 
ATOM     33  C   UNL     1     -12.443   7.387 128.581  0.00  0.00    +0.000 A 
ATOM     34  C   UNL     1     -12.549   7.213 129.960  0.00  0.00    +0.000 A 
ATOM     35  C   UNL     1     -11.413   6.910 130.718  0.00  0.00    +0.000 A 
BRANCH  32  36
ATOM     36  C   UNL     1     -11.064   7.679 126.590  0.00  0.00    +0.000 C 
ATOM     37  N   UNL     1     -11.038   7.989 125.463  0.00  0.00    +0.000 NA
ENDBRANCH  32  36
ENDBRANCH  25  30
ENDBRANCH  22  23
ENDBRANCH   3  22
TORSDOF 8
ENDMDL
