MODEL 1
REMARK VINA RESULT:      -8.3      0.000      0.000
REMARK  Name = Terazosin
REMARK  5 active torsions:
REMARK  status: ('A' for Active; 'I' for Inactive)
REMARK    1  A    between atoms: C_1  and  O_2
REMARK    2  A    between atoms: O_2  and  C_3
REMARK    3  A    between atoms: C_4  and  O_5
REMARK    4  A    between atoms: O_5  and  C_6
REMARK    5  A    between atoms: C_22  and  C_24
REMARK                            x       y       z     vdW  Elec       q    Type
REMARK                         _______ _______ _______ _____ _____    ______ ____
ROOT
ATOM      1  C   UNL     1      -9.297   5.098 131.112  0.00  0.00    +0.000 A 
ATOM      2  C   UNL     1      -9.283   3.777 131.563  0.00  0.00    +0.000 A 
ATOM      3  C   UNL     1      -8.890   2.794 130.659  0.00  0.00    +0.000 A 
ATOM      4  C   UNL     1      -8.536   3.096 129.307  0.00  0.00    +0.000 A 
ATOM      5  C   UNL     1      -8.163   2.144 128.351  0.00  0.00    +0.000 A 
ATOM      6  N   UNL     1      -7.999   0.812 128.690  0.00  0.00    +0.000 N 
ATOM      7  N   UNL     1      -7.860   2.451 127.074  0.00  0.00    +0.000 NA
ATOM      8  C   UNL     1      -7.842   3.744 126.720  0.00  0.00    +0.000 A 
ATOM      9  N   UNL     1      -8.180   4.728 127.578  0.00  0.00    +0.000 NA
ATOM     10  C   UNL     1      -8.556   4.409 128.844  0.00  0.00    +0.000 A 
ATOM     11  C   UNL     1      -8.965   5.386 129.766  0.00  0.00    +0.000 A 
ATOM     12  N   UNL     1      -7.372   4.052 125.465  0.00  0.00    +0.000 N 
ATOM     13  C   UNL     1      -6.386   5.110 125.245  0.00  0.00    +0.000 C 
ATOM     14  C   UNL     1      -5.273   4.588 124.289  0.00  0.00    +0.000 C 
ATOM     15  N   UNL     1      -5.847   4.046 123.047  0.00  0.00    +0.000 N 
ATOM     16  C   UNL     1      -6.843   2.996 123.306  0.00  0.00    +0.000 C 
ATOM     17  C   UNL     1      -7.961   3.495 124.251  0.00  0.00    +0.000 C 
ATOM     18  C   UNL     1      -5.422   4.507 121.807  0.00  0.00    +0.000 C 
ATOM     19  O   UNL     1      -4.567   5.404 121.715  0.00  0.00    +0.000 OA
ATOM     20  H   UNL     1      -8.310   0.425 129.562  0.00  0.00    +0.000 HD
ATOM     21  H   UNL     1      -7.749   0.195 127.931  0.00  0.00    +0.000 HD
ENDROOT
BRANCH  18  22
ATOM     22  C   UNL     1      -6.048   3.940 120.505  0.00  0.00    +0.000 C 
ATOM     23  C   UNL     1      -5.891   4.861 119.303  0.00  0.00    +0.000 C 
ATOM     24  C   UNL     1      -7.141   4.603 118.498  0.00  0.00    +0.000 C 
ATOM     25  C   UNL     1      -8.161   4.163 119.525  0.00  0.00    +0.000 C 
ATOM     26  O   UNL     1      -7.441   3.622 120.634  0.00  0.00    +0.000 OA
ENDBRANCH  18  22
BRANCH   1  28
ATOM     27  C   UNL     1     -11.110   6.404 131.901  0.00  0.00    +0.000 C 
ATOM     28  O   UNL     1      -9.699   6.176 131.868  0.00  0.00    +0.000 OA
ENDBRANCH   1  28
BRANCH   2  29
ATOM     29  O   UNL     1      -9.703   3.512 132.838  0.00  0.00    +0.000 OA
ATOM     30  C   UNL     1      -8.748   3.501 133.893  0.00  0.00    +0.000 C 
ENDBRANCH   2  29
TORSDOF 3
ENDMDL
MODEL 2
REMARK VINA RESULT:      -7.9      6.259      9.055
REMARK  Name = Terazosin
REMARK  5 active torsions:
REMARK  status: ('A' for Active; 'I' for Inactive)
REMARK    1  A    between atoms: C_1  and  O_2
REMARK    2  A    between atoms: O_2  and  C_3
REMARK    3  A    between atoms: C_4  and  O_5
REMARK    4  A    between atoms: O_5  and  C_6
REMARK    5  A    between atoms: C_22  and  C_24
REMARK                            x       y       z     vdW  Elec       q    Type
REMARK                         _______ _______ _______ _____ _____    ______ ____
ROOT
ATOM      1  C   UNL     1      -4.579  -2.557 131.758  0.00  0.00    +0.000 A 
ATOM      2  C   UNL     1      -3.860  -2.488 130.563  0.00  0.00    +0.000 A 
ATOM      3  C   UNL     1      -4.144  -1.431 129.702  0.00  0.00    +0.000 A 
ATOM      4  C   UNL     1      -5.149  -0.456 129.995  0.00  0.00    +0.000 A 
ATOM      5  C   UNL     1      -5.495   0.607 129.152  0.00  0.00    +0.000 A 
ATOM      6  N   UNL     1      -4.788   0.859 127.988  0.00  0.00    +0.000 N 
ATOM      7  N   UNL     1      -6.465   1.497 129.437  0.00  0.00    +0.000 NA
ATOM      8  C   UNL     1      -7.081   1.405 130.625  0.00  0.00    +0.000 A 
ATOM      9  N   UNL     1      -6.805   0.418 131.501  0.00  0.00    +0.000 NA
ATOM     10  C   UNL     1      -5.878  -0.522 131.178  0.00  0.00    +0.000 A 
ATOM     11  C   UNL     1      -5.586  -1.599 132.030  0.00  0.00    +0.000 A 
ATOM     12  N   UNL     1      -7.947   2.415 130.970  0.00  0.00    +0.000 N 
ATOM     13  C   UNL     1      -7.897   3.066 132.280  0.00  0.00    +0.000 C 
ATOM     14  C   UNL     1      -7.974   4.610 132.092  0.00  0.00    +0.000 C 
ATOM     15  N   UNL     1      -9.146   4.991 131.286  0.00  0.00    +0.000 N 
ATOM     16  C   UNL     1      -9.172   4.308 129.984  0.00  0.00    +0.000 C 
ATOM     17  C   UNL     1      -9.099   2.773 130.148  0.00  0.00    +0.000 C 
ATOM     18  C   UNL     1     -10.063   5.921 131.761  0.00  0.00    +0.000 C 
ATOM     19  O   UNL     1      -9.933   6.434 132.885  0.00  0.00    +0.000 OA
ATOM     20  H   UNL     1      -4.133   0.211 127.592  0.00  0.00    +0.000 HD
ATOM     21  H   UNL     1      -5.122   1.634 127.433  0.00  0.00    +0.000 HD
ENDROOT
BRANCH  18  22
ATOM     22  C   UNL     1     -11.303   6.301 130.909  0.00  0.00    +0.000 C 
ATOM     23  C   UNL     1     -11.077   7.509 130.010  0.00  0.00    +0.000 C 
ATOM     24  C   UNL     1     -12.435   8.167 129.959  0.00  0.00    +0.000 C 
ATOM     25  C   UNL     1     -13.090   7.772 131.264  0.00  0.00    +0.000 C 
ATOM     26  O   UNL     1     -12.478   6.554 131.695  0.00  0.00    +0.000 OA
ENDBRANCH  18  22
BRANCH   1  28
ATOM     27  C   UNL     1      -5.369  -4.641 132.560  0.00  0.00    +0.000 C 
ATOM     28  O   UNL     1      -4.444  -3.559 132.692  0.00  0.00    +0.000 OA
ENDBRANCH   1  28
BRANCH   2  29
ATOM     29  O   UNL     1      -2.962  -3.479 130.276  0.00  0.00    +0.000 OA
ATOM     30  C   UNL     1      -2.875  -3.971 128.943  0.00  0.00    +0.000 C 
ENDBRANCH   2  29
TORSDOF 3
ENDMDL
MODEL 3
REMARK VINA RESULT:      -7.8      5.613      8.553
REMARK  Name = Terazosin
REMARK  5 active torsions:
REMARK  status: ('A' for Active; 'I' for Inactive)
REMARK    1  A    between atoms: C_1  and  O_2
REMARK    2  A    between atoms: O_2  and  C_3
REMARK    3  A    between atoms: C_4  and  O_5
REMARK    4  A    between atoms: O_5  and  C_6
REMARK    5  A    between atoms: C_22  and  C_24
REMARK                            x       y       z     vdW  Elec       q    Type
REMARK                         _______ _______ _______ _____ _____    ______ ____
ROOT
ATOM      1  C   UNL     1      -3.294  -1.874 132.171  0.00  0.00    +0.000 A 
ATOM      2  C   UNL     1      -2.520  -1.299 133.181  0.00  0.00    +0.000 A 
ATOM      3  C   UNL     1      -2.775   0.030 133.508  0.00  0.00    +0.000 A 
ATOM      4  C   UNL     1      -3.765   0.807 132.831  0.00  0.00    +0.000 A 
ATOM      5  C   UNL     1      -4.040   2.154 133.098  0.00  0.00    +0.000 A 
ATOM      6  N   UNL     1      -3.427   2.817 134.148  0.00  0.00    +0.000 N 
ATOM      7  N   UNL     1      -4.960   2.874 132.427  0.00  0.00    +0.000 NA
ATOM      8  C   UNL     1      -5.705   2.248 131.504  0.00  0.00    +0.000 A 
ATOM      9  N   UNL     1      -5.514   0.950 131.187  0.00  0.00    +0.000 NA
ATOM     10  C   UNL     1      -4.535   0.248 131.815  0.00  0.00    +0.000 A 
ATOM     11  C   UNL     1      -4.259  -1.091 131.491  0.00  0.00    +0.000 A 
ATOM     12  N   UNL     1      -6.748   2.949 130.947  0.00  0.00    +0.000 N 
ATOM     13  C   UNL     1      -8.091   2.380 130.831  0.00  0.00    +0.000 C 
ATOM     14  C   UNL     1      -9.139   3.428 131.310  0.00  0.00    +0.000 C 
ATOM     15  N   UNL     1      -8.975   4.708 130.603  0.00  0.00    +0.000 N 
ATOM     16  C   UNL     1      -7.612   5.243 130.729  0.00  0.00    +0.000 C 
ATOM     17  C   UNL     1      -6.555   4.220 130.254  0.00  0.00    +0.000 C 
ATOM     18  C   UNL     1     -10.045   5.295 129.937  0.00  0.00    +0.000 C 
ATOM     19  O   UNL     1     -11.158   4.743 129.901  0.00  0.00    +0.000 OA
ATOM     20  H   UNL     1      -2.636   2.447 134.644  0.00  0.00    +0.000 HD
ATOM     21  H   UNL     1      -3.670   3.791 134.252  0.00  0.00    +0.000 HD
ENDROOT
BRANCH  18  22
ATOM     22  C   UNL     1      -9.856   6.636 129.181  0.00  0.00    +0.000 C 
ATOM     23  C   UNL     1     -10.886   7.694 129.550  0.00  0.00    +0.000 C 
ATOM     24  C   UNL     1     -11.066   8.470 128.267  0.00  0.00    +0.000 C 
ATOM     25  C   UNL     1     -10.733   7.474 127.179  0.00  0.00    +0.000 C 
ATOM     26  O   UNL     1      -9.869   6.491 127.753  0.00  0.00    +0.000 OA
ENDBRANCH  18  22
BRANCH   1  28
ATOM     27  C   UNL     1      -4.087  -4.106 132.203  0.00  0.00    +0.000 C 
ATOM     28  O   UNL     1      -3.139  -3.160 131.706  0.00  0.00    +0.000 OA
ENDBRANCH   1  28
BRANCH   2  29
ATOM     29  O   UNL     1      -1.528  -2.045 133.756  0.00  0.00    +0.000 OA
ATOM     30  C   UNL     1      -0.333  -1.398 134.181  0.00  0.00    +0.000 C 
ENDBRANCH   2  29
TORSDOF 3
ENDMDL
MODEL 4
REMARK VINA RESULT:      -7.8      5.399      8.873
REMARK  Name = Terazosin
REMARK  5 active torsions:
REMARK  status: ('A' for Active; 'I' for Inactive)
REMARK    1  A    between atoms: C_1  and  O_2
REMARK    2  A    between atoms: O_2  and  C_3
REMARK    3  A    between atoms: C_4  and  O_5
REMARK    4  A    between atoms: O_5  and  C_6
REMARK    5  A    between atoms: C_22  and  C_24
REMARK                            x       y       z     vdW  Elec       q    Type
REMARK                         _______ _______ _______ _____ _____    ______ ____
ROOT
ATOM      1  C   UNL     1      -6.301  -2.795 124.573  0.00  0.00    +0.000 A 
ATOM      2  C   UNL     1      -7.688  -2.643 124.504  0.00  0.00    +0.000 A 
ATOM      3  C   UNL     1      -8.241  -1.516 125.107  0.00  0.00    +0.000 A 
ATOM      4  C   UNL     1      -7.445  -0.552 125.800  0.00  0.00    +0.000 A 
ATOM      5  C   UNL     1      -7.953   0.581 126.448  0.00  0.00    +0.000 A 
ATOM      6  N   UNL     1      -9.294   0.914 126.365  0.00  0.00    +0.000 N 
ATOM      7  N   UNL     1      -7.185   1.461 127.119  0.00  0.00    +0.000 NA
ATOM      8  C   UNL     1      -5.856   1.285 127.103  0.00  0.00    +0.000 A 
ATOM      9  N   UNL     1      -5.280   0.226 126.497  0.00  0.00    +0.000 NA
ATOM     10  C   UNL     1      -6.064  -0.699 125.885  0.00  0.00    +0.000 A 
ATOM     11  C   UNL     1      -5.523  -1.846 125.280  0.00  0.00    +0.000 A 
ATOM     12  N   UNL     1      -5.077   2.277 127.649  0.00  0.00    +0.000 N 
ATOM     13  C   UNL     1      -3.912   2.821 126.950  0.00  0.00    +0.000 C 
ATOM     14  C   UNL     1      -3.943   4.376 127.027  0.00  0.00    +0.000 C 
ATOM     15  N   UNL     1      -4.068   4.840 128.418  0.00  0.00    +0.000 N 
ATOM     16  C   UNL     1      -5.240   4.263 129.093  0.00  0.00    +0.000 C 
ATOM     17  C   UNL     1      -5.227   2.718 129.032  0.00  0.00    +0.000 C 
ATOM     18  C   UNL     1      -3.157   5.743 128.952  0.00  0.00    +0.000 C 
ATOM     19  O   UNL     1      -2.201   6.162 128.278  0.00  0.00    +0.000 OA
ATOM     20  H   UNL     1      -9.995   0.289 126.010  0.00  0.00    +0.000 HD
ATOM     21  H   UNL     1      -9.573   1.736 126.881  0.00  0.00    +0.000 HD
ENDROOT
BRANCH  18  22
ATOM     22  C   UNL     1      -3.289   6.210 130.425  0.00  0.00    +0.000 C 
ATOM     23  C   UNL     1      -3.637   7.686 130.567  0.00  0.00    +0.000 C 
ATOM     24  C   UNL     1      -2.939   8.089 131.844  0.00  0.00    +0.000 C 
ATOM     25  C   UNL     1      -1.770   7.135 131.946  0.00  0.00    +0.000 C 
ATOM     26  O   UNL     1      -2.114   5.960 131.210  0.00  0.00    +0.000 OA
ENDBRANCH  18  22
BRANCH   1  28
ATOM     27  C   UNL     1      -4.344  -3.557 123.476  0.00  0.00    +0.000 C 
ATOM     28  O   UNL     1      -5.609  -3.870 124.066  0.00  0.00    +0.000 OA
ENDBRANCH   1  28
BRANCH   2  29
ATOM     29  O   UNL     1      -8.429  -3.622 123.902  0.00  0.00    +0.000 OA
ATOM     30  C   UNL     1      -9.657  -3.273 123.272  0.00  0.00    +0.000 C 
ENDBRANCH   2  29
TORSDOF 3
ENDMDL
MODEL 5
REMARK VINA RESULT:      -7.7      6.131      8.424
REMARK  Name = Terazosin
REMARK  5 active torsions:
REMARK  status: ('A' for Active; 'I' for Inactive)
REMARK    1  A    between atoms: C_1  and  O_2
REMARK    2  A    between atoms: O_2  and  C_3
REMARK    3  A    between atoms: C_4  and  O_5
REMARK    4  A    between atoms: O_5  and  C_6
REMARK    5  A    between atoms: C_22  and  C_24
REMARK                            x       y       z     vdW  Elec       q    Type
REMARK                         _______ _______ _______ _____ _____    ______ ____
ROOT
ATOM      1  C   UNL     1      -5.186  -1.265 132.562  0.00  0.00    +0.000 A 
ATOM      2  C   UNL     1      -3.913  -0.697 132.482  0.00  0.00    +0.000 A 
ATOM      3  C   UNL     1      -3.829   0.640 132.101  0.00  0.00    +0.000 A 
ATOM      4  C   UNL     1      -4.984   1.416 131.774  0.00  0.00    +0.000 A 
ATOM      5  C   UNL     1      -4.954   2.752 131.357  0.00  0.00    +0.000 A 
ATOM      6  N   UNL     1      -3.771   3.471 131.340  0.00  0.00    +0.000 N 
ATOM      7  N   UNL     1      -6.055   3.454 131.027  0.00  0.00    +0.000 NA
ATOM      8  C   UNL     1      -7.251   2.865 131.176  0.00  0.00    +0.000 A 
ATOM      9  N   UNL     1      -7.374   1.584 131.578  0.00  0.00    +0.000 NA
ATOM     10  C   UNL     1      -6.257   0.856 131.840  0.00  0.00    +0.000 A 
ATOM     11  C   UNL     1      -6.323  -0.496 132.215  0.00  0.00    +0.000 A 
ATOM     12  N   UNL     1      -8.369   3.644 130.994  0.00  0.00    +0.000 N 
ATOM     13  C   UNL     1      -9.475   3.647 131.952  0.00  0.00    +0.000 C 
ATOM     14  C   UNL     1      -9.896   5.117 132.250  0.00  0.00    +0.000 C 
ATOM     15  N   UNL     1     -10.186   5.852 131.008  0.00  0.00    +0.000 N 
ATOM     16  C   UNL     1      -9.059   5.815 130.065  0.00  0.00    +0.000 C 
ATOM     17  C   UNL     1      -8.627   4.365 129.751  0.00  0.00    +0.000 C 
ATOM     18  C   UNL     1     -11.401   6.503 130.834  0.00  0.00    +0.000 C 
ATOM     19  O   UNL     1     -12.282   6.462 131.710  0.00  0.00    +0.000 OA
ATOM     20  H   UNL     1      -2.867   3.045 131.437  0.00  0.00    +0.000 HD
ATOM     21  H   UNL     1      -3.841   4.421 131.005  0.00  0.00    +0.000 HD
ENDROOT
BRANCH  18  22
ATOM     22  C   UNL     1     -11.702   7.259 129.514  0.00  0.00    +0.000 C 
ATOM     23  C   UNL     1     -12.546   8.511 129.707  0.00  0.00    +0.000 C 
ATOM     24  C   UNL     1     -13.360   8.585 128.438  0.00  0.00    +0.000 C 
ATOM     25  C   UNL     1     -13.467   7.147 127.980  0.00  0.00    +0.000 C 
ATOM     26  O   UNL     1     -12.348   6.444 128.525  0.00  0.00    +0.000 OA
ENDBRANCH  18  22
BRANCH   1  28
ATOM     27  C   UNL     1      -6.274  -3.282 131.962  0.00  0.00    +0.000 C 
ATOM     28  O   UNL     1      -5.434  -2.580 132.882  0.00  0.00    +0.000 OA
ENDBRANCH   1  28
BRANCH   2  29
ATOM     29  O   UNL     1      -2.823  -1.486 132.725  0.00  0.00    +0.000 OA
ATOM     30  C   UNL     1      -1.893  -1.093 133.729  0.00  0.00    +0.000 C 
ENDBRANCH   2  29
TORSDOF 3
ENDMDL
MODEL 6
REMARK VINA RESULT:      -7.7      6.990      9.369
REMARK  Name = Terazosin
REMARK  5 active torsions:
REMARK  status: ('A' for Active; 'I' for Inactive)
REMARK    1  A    between atoms: C_1  and  O_2
REMARK    2  A    between atoms: O_2  and  C_3
REMARK    3  A    between atoms: C_4  and  O_5
REMARK    4  A    between atoms: O_5  and  C_6
REMARK    5  A    between atoms: C_22  and  C_24
REMARK                            x       y       z     vdW  Elec       q    Type
REMARK                         _______ _______ _______ _____ _____    ______ ____
ROOT
ATOM      1  C   UNL     1      -6.651  -3.601 133.975  0.00  0.00    +0.000 A 
ATOM      2  C   UNL     1      -6.128  -4.051 132.761  0.00  0.00    +0.000 A 
ATOM      3  C   UNL     1      -6.301  -3.235 131.646  0.00  0.00    +0.000 A 
ATOM      4  C   UNL     1      -7.007  -1.994 131.709  0.00  0.00    +0.000 A 
ATOM      5  C   UNL     1      -7.235  -1.152 130.614  0.00  0.00    +0.000 A 
ATOM      6  N   UNL     1      -6.678  -1.419 129.375  0.00  0.00    +0.000 N 
ATOM      7  N   UNL     1      -7.929   0.001 130.693  0.00  0.00    +0.000 NA
ATOM      8  C   UNL     1      -8.359   0.400 131.899  0.00  0.00    +0.000 A 
ATOM      9  N   UNL     1      -8.178  -0.345 133.009  0.00  0.00    +0.000 NA
ATOM     10  C   UNL     1      -7.542  -1.541 132.912  0.00  0.00    +0.000 A 
ATOM     11  C   UNL     1      -7.368  -2.381 134.024  0.00  0.00    +0.000 A 
ATOM     12  N   UNL     1      -8.918   1.653 131.990  0.00  0.00    +0.000 N 
ATOM     13  C   UNL     1      -8.524   2.603 133.031  0.00  0.00    +0.000 C 
ATOM     14  C   UNL     1      -8.286   4.002 132.389  0.00  0.00    +0.000 C 
ATOM     15  N   UNL     1      -9.454   4.435 131.603  0.00  0.00    +0.000 N 
ATOM     16  C   UNL     1      -9.830   3.450 130.579  0.00  0.00    +0.000 C 
ATOM     17  C   UNL     1     -10.074   2.054 131.195  0.00  0.00    +0.000 C 
ATOM     18  C   UNL     1     -10.059   5.662 131.846  0.00  0.00    +0.000 C 
ATOM     19  O   UNL     1      -9.647   6.413 132.746  0.00  0.00    +0.000 OA
ATOM     20  H   UNL     1      -6.251  -2.297 129.142  0.00  0.00    +0.000 HD
ATOM     21  H   UNL     1      -6.914  -0.768 128.640  0.00  0.00    +0.000 HD
ENDROOT
BRANCH  18  22
ATOM     22  C   UNL     1     -11.299   6.099 131.024  0.00  0.00    +0.000 C 
ATOM     23  C   UNL     1     -11.017   7.237 130.053  0.00  0.00    +0.000 C 
ATOM     24  C   UNL     1     -12.319   8.000 130.020  0.00  0.00    +0.000 C 
ATOM     25  C   UNL     1     -12.947   7.725 131.368  0.00  0.00    +0.000 C 
ATOM     26  O   UNL     1     -12.416   6.485 131.839  0.00  0.00    +0.000 OA
ENDBRANCH  18  22
BRANCH   1  28
ATOM     27  C   UNL     1      -7.844  -4.864 135.587  0.00  0.00    +0.000 C 
ATOM     28  O   UNL     1      -6.600  -4.308 135.156  0.00  0.00    +0.000 OA
ENDBRANCH   1  28
BRANCH   2  29
ATOM     29  O   UNL     1      -5.526  -5.279 132.717  0.00  0.00    +0.000 OA
ATOM     30  C   UNL     1      -4.196  -5.416 133.205  0.00  0.00    +0.000 C 
ENDBRANCH   2  29
TORSDOF 3
ENDMDL
MODEL 7
REMARK VINA RESULT:      -7.7      5.030      6.158
REMARK  Name = Terazosin
REMARK  5 active torsions:
REMARK  status: ('A' for Active; 'I' for Inactive)
REMARK    1  A    between atoms: C_1  and  O_2
REMARK    2  A    between atoms: O_2  and  C_3
REMARK    3  A    between atoms: C_4  and  O_5
REMARK    4  A    between atoms: O_5  and  C_6
REMARK    5  A    between atoms: C_22  and  C_24
REMARK                            x       y       z     vdW  Elec       q    Type
REMARK                         _______ _______ _______ _____ _____    ______ ____
ROOT
ATOM      1  C   UNL     1      -3.960   6.008 131.310  0.00  0.00    +0.000 A 
ATOM      2  C   UNL     1      -2.708   6.236 130.736  0.00  0.00    +0.000 A 
ATOM      3  C   UNL     1      -2.408   5.557 129.558  0.00  0.00    +0.000 A 
ATOM      4  C   UNL     1      -3.319   4.634 128.955  0.00  0.00    +0.000 A 
ATOM      5  C   UNL     1      -3.056   3.903 127.789  0.00  0.00    +0.000 A 
ATOM      6  N   UNL     1      -1.901   4.114 127.056  0.00  0.00    +0.000 N 
ATOM      7  N   UNL     1      -3.920   3.019 127.255  0.00  0.00    +0.000 NA
ATOM      8  C   UNL     1      -5.125   2.885 127.827  0.00  0.00    +0.000 A 
ATOM      9  N   UNL     1      -5.467   3.555 128.947  0.00  0.00    +0.000 NA
ATOM     10  C   UNL     1      -4.566   4.391 129.524  0.00  0.00    +0.000 A 
ATOM     11  C   UNL     1      -4.848   5.076 130.717  0.00  0.00    +0.000 A 
ATOM     12  N   UNL     1      -6.053   2.106 127.177  0.00  0.00    +0.000 N 
ATOM     13  C   UNL     1      -7.426   2.561 126.950  0.00  0.00    +0.000 C 
ATOM     14  C   UNL     1      -7.829   2.268 125.475  0.00  0.00    +0.000 C 
ATOM     15  N   UNL     1      -7.610   0.852 125.132  0.00  0.00    +0.000 N 
ATOM     16  C   UNL     1      -6.226   0.427 125.386  0.00  0.00    +0.000 C 
ATOM     17  C   UNL     1      -5.805   0.705 126.848  0.00  0.00    +0.000 C 
ATOM     18  C   UNL     1      -8.639   0.081 124.607  0.00  0.00    +0.000 C 
ATOM     19  O   UNL     1      -9.774   0.556 124.436  0.00  0.00    +0.000 OA
ATOM     20  H   UNL     1      -1.120   4.643 127.400  0.00  0.00    +0.000 HD
ATOM     21  H   UNL     1      -1.786   3.527 126.243  0.00  0.00    +0.000 HD
ENDROOT
BRANCH  18  22
ATOM     22  C   UNL     1      -8.401  -1.414 124.267  0.00  0.00    +0.000 C 
ATOM     23  C   UNL     1      -9.217  -1.906 123.079  0.00  0.00    +0.000 C 
ATOM     24  C   UNL     1      -9.495  -3.350 123.420  0.00  0.00    +0.000 C 
ATOM     25  C   UNL     1      -9.466  -3.389 124.931  0.00  0.00    +0.000 C 
ATOM     26  O   UNL     1      -8.656  -2.297 125.369  0.00  0.00    +0.000 OA
ENDBRANCH  18  22
BRANCH   1  28
ATOM     27  C   UNL     1      -5.366   5.807 133.207  0.00  0.00    +0.000 C 
ATOM     28  O   UNL     1      -4.391   6.568 132.491  0.00  0.00    +0.000 OA
ENDBRANCH   1  28
BRANCH   2  29
ATOM     29  O   UNL     1      -1.829   7.064 131.379  0.00  0.00    +0.000 OA
ATOM     30  C   UNL     1      -0.785   6.493 132.160  0.00  0.00    +0.000 C 
ENDBRANCH   2  29
TORSDOF 3
ENDMDL
MODEL 8
REMARK VINA RESULT:      -7.6      3.896      9.659
REMARK  Name = Terazosin
REMARK  5 active torsions:
REMARK  status: ('A' for Active; 'I' for Inactive)
REMARK    1  A    between atoms: C_1  and  O_2
REMARK    2  A    between atoms: O_2  and  C_3
REMARK    3  A    between atoms: C_4  and  O_5
REMARK    4  A    between atoms: O_5  and  C_6
REMARK    5  A    between atoms: C_22  and  C_24
REMARK                            x       y       z     vdW  Elec       q    Type
REMARK                         _______ _______ _______ _____ _____    ______ ____
ROOT
ATOM      1  C   UNL     1      -6.547   3.826 121.271  0.00  0.00    +0.000 A 
ATOM      2  C   UNL     1      -7.890   3.798 120.889  0.00  0.00    +0.000 A 
ATOM      3  C   UNL     1      -8.768   3.068 121.685  0.00  0.00    +0.000 A 
ATOM      4  C   UNL     1      -8.333   2.343 122.839  0.00  0.00    +0.000 A 
ATOM      5  C   UNL     1      -9.168   1.571 123.655  0.00  0.00    +0.000 A 
ATOM      6  N   UNL     1     -10.538   1.543 123.458  0.00  0.00    +0.000 N 
ATOM      7  N   UNL     1      -8.729   0.874 124.721  0.00  0.00    +0.000 NA
ATOM      8  C   UNL     1      -7.437   0.986 125.064  0.00  0.00    +0.000 A 
ATOM      9  N   UNL     1      -6.563   1.715 124.339  0.00  0.00    +0.000 NA
ATOM     10  C   UNL     1      -6.995   2.356 123.222  0.00  0.00    +0.000 A 
ATOM     11  C   UNL     1      -6.121   3.088 122.402  0.00  0.00    +0.000 A 
ATOM     12  N   UNL     1      -7.041   0.405 126.245  0.00  0.00    +0.000 N 
ATOM     13  C   UNL     1      -6.230   1.124 127.229  0.00  0.00    +0.000 C 
ATOM     14  C   UNL     1      -6.834   0.912 128.649  0.00  0.00    +0.000 C 
ATOM     15  N   UNL     1      -7.000  -0.519 128.951  0.00  0.00    +0.000 N 
ATOM     16  C   UNL     1      -7.806  -1.212 127.935  0.00  0.00    +0.000 C 
ATOM     17  C   UNL     1      -7.222  -1.017 126.517  0.00  0.00    +0.000 C 
ATOM     18  C   UNL     1      -6.449  -1.072 130.100  0.00  0.00    +0.000 C 
ATOM     19  O   UNL     1      -5.783  -0.380 130.888  0.00  0.00    +0.000 OA
ATOM     20  H   UNL     1     -10.982   1.907 122.635  0.00  0.00    +0.000 HD
ATOM     21  H   UNL     1     -11.057   0.943 124.082  0.00  0.00    +0.000 HD
ENDROOT
BRANCH  18  22
ATOM     22  C   UNL     1      -6.615  -2.585 130.398  0.00  0.00    +0.000 C 
ATOM     23  C   UNL     1      -6.432  -2.941 131.867  0.00  0.00    +0.000 C 
ATOM     24  C   UNL     1      -5.826  -4.323 131.820  0.00  0.00    +0.000 C 
ATOM     25  C   UNL     1      -5.099  -4.366 130.494  0.00  0.00    +0.000 C 
ATOM     26  O   UNL     1      -5.730  -3.417 129.632  0.00  0.00    +0.000 OA
ENDBRANCH  18  22
BRANCH   1  28
ATOM     27  C   UNL     1      -4.502   5.019 121.369  0.00  0.00    +0.000 C 
ATOM     28  O   UNL     1      -5.550   4.466 120.570  0.00  0.00    +0.000 OA
ENDBRANCH   1  28
BRANCH   2  29
ATOM     29  O   UNL     1      -8.261   4.435 119.737  0.00  0.00    +0.000 OA
ATOM     30  C   UNL     1      -9.561   4.205 119.206  0.00  0.00    +0.000 C 
ENDBRANCH   2  29
TORSDOF 3
ENDMDL
MODEL 9
REMARK VINA RESULT:      -7.5      6.188     10.776
REMARK  Name = Terazosin
REMARK  5 active torsions:
REMARK  status: ('A' for Active; 'I' for Inactive)
REMARK    1  A    between atoms: C_1  and  O_2
REMARK    2  A    between atoms: O_2  and  C_3
REMARK    3  A    between atoms: C_4  and  O_5
REMARK    4  A    between atoms: O_5  and  C_6
REMARK    5  A    between atoms: C_22  and  C_24
REMARK                            x       y       z     vdW  Elec       q    Type
REMARK                         _______ _______ _______ _____ _____    ______ ____
ROOT
ATOM      1  C   UNL     1      -8.768   1.936 125.639  0.00  0.00    +0.000 A 
ATOM      2  C   UNL     1      -9.415   1.063 124.762  0.00  0.00    +0.000 A 
ATOM      3  C   UNL     1      -9.348  -0.299 125.046  0.00  0.00    +0.000 A 
ATOM      4  C   UNL     1      -8.628  -0.811 126.170  0.00  0.00    +0.000 A 
ATOM      5  C   UNL     1      -8.504  -2.170 126.483  0.00  0.00    +0.000 A 
ATOM      6  N   UNL     1      -9.185  -3.137 125.764  0.00  0.00    +0.000 N 
ATOM      7  N   UNL     1      -7.796  -2.630 127.533  0.00  0.00    +0.000 NA
ATOM      8  C   UNL     1      -7.242  -1.736 128.365  0.00  0.00    +0.000 A 
ATOM      9  N   UNL     1      -7.318  -0.407 128.145  0.00  0.00    +0.000 NA
ATOM     10  C   UNL     1      -7.971   0.050 127.044  0.00  0.00    +0.000 A 
ATOM     11  C   UNL     1      -8.039   1.419 126.738  0.00  0.00    +0.000 A 
ATOM     12  N   UNL     1      -6.666  -2.214 129.518  0.00  0.00    +0.000 N 
ATOM     13  C   UNL     1      -6.945  -1.622 130.827  0.00  0.00    +0.000 C 
ATOM     14  C   UNL     1      -7.234  -2.756 131.855  0.00  0.00    +0.000 C 
ATOM     15  N   UNL     1      -6.148  -3.749 131.874  0.00  0.00    +0.000 N 
ATOM     16  C   UNL     1      -5.885  -4.311 130.541  0.00  0.00    +0.000 C 
ATOM     17  C   UNL     1      -5.592  -3.202 129.505  0.00  0.00    +0.000 C 
ATOM     18  C   UNL     1      -5.510  -4.083 133.063  0.00  0.00    +0.000 C 
ATOM     19  O   UNL     1      -5.823  -3.536 134.134  0.00  0.00    +0.000 OA
ATOM     20  H   UNL     1      -9.641  -2.952 124.889  0.00  0.00    +0.000 HD
ATOM     21  H   UNL     1      -9.019  -4.091 126.048  0.00  0.00    +0.000 HD
ENDROOT
BRANCH  18  22
ATOM     22  C   UNL     1      -4.355  -5.118 133.067  0.00  0.00    +0.000 C 
ATOM     23  C   UNL     1      -4.395  -6.072 134.253  0.00  0.00    +0.000 C 
ATOM     24  C   UNL     1      -2.938  -6.352 134.526  0.00  0.00    +0.000 C 
ATOM     25  C   UNL     1      -2.220  -5.119 134.026  0.00  0.00    +0.000 C 
ATOM     26  O   UNL     1      -3.052  -4.517 133.032  0.00  0.00    +0.000 OA
ENDBRANCH  18  22
BRANCH   1  28
ATOM     27  C   UNL     1      -7.512   3.787 124.860  0.00  0.00    +0.000 C 
ATOM     28  O   UNL     1      -8.707   3.301 125.476  0.00  0.00    +0.000 OA
ENDBRANCH   1  28
BRANCH   2  29
ATOM     29  O   UNL     1     -10.029   1.578 123.653  0.00  0.00    +0.000 OA
ATOM     30  C   UNL     1     -10.211   0.745 122.513  0.00  0.00    +0.000 C 
ENDBRANCH   2  29
TORSDOF 3
ENDMDL
