MODEL 1
REMARK VINA RESULT:      -7.5      0.000      0.000
REMARK  Name = Terbinafine
REMARK  10 active torsions:
REMARK  status: ('A' for Active; 'I' for Inactive)
REMARK    1  A    between atoms: C_1  and  N_2
REMARK    2  A    between atoms: N_2  and  C_3
REMARK    3  A    between atoms: N_2  and  C_12
REMARK    4  A    between atoms: C_3  and  C_4
REMARK    5  A    between atoms: C_5  and  C_6
REMARK    6  A    between atoms: C_7  and  C_8
REMARK    7  A    between atoms: C_8  and  C_9
REMARK    8  A    between atoms: C_8  and  C_10
REMARK    9  A    between atoms: C_8  and  C_11
REMARK   10  A    between atoms: C_12  and  C_13
REMARK                            x       y       z     vdW  Elec       q    Type
REMARK                         _______ _______ _______ _____ _____    ______ ____
ROOT
ATOM      1  C   UNL     1     -10.063   1.242 124.331  0.00  0.00    +0.000 C 
ATOM      2  N   UNL     1      -8.844   1.379 123.524  0.00  0.00    +0.000 NA
ENDROOT
BRANCH   2   3
ATOM      3  C   UNL     1      -8.315   2.750 123.595  0.00  0.00    +0.000 C 
BRANCH   3   4
ATOM      4  C   UNL     1      -7.227   2.880 124.608  0.00  0.00    +0.000 C 
ATOM      5  C   UNL     1      -6.089   3.518 124.334  0.00  0.00    +0.000 C 
BRANCH   5   6
ATOM      6  C   UNL     1      -4.988   3.579 125.380  0.00  0.00    +0.000 C 
ATOM      7  C   UNL     1      -4.043   3.631 126.277  0.00  0.00    +0.000 C 
BRANCH   7   8
ATOM      8  C   UNL     1      -2.942   3.693 127.323  0.00  0.00    +0.000 C 
ATOM      9  C   UNL     1      -1.666   3.066 126.749  0.00  0.00    +0.000 C 
ATOM     10  C   UNL     1      -2.681   5.157 127.693  0.00  0.00    +0.000 C 
ATOM     11  C   UNL     1      -3.386   2.914 128.568  0.00  0.00    +0.000 C 
ENDBRANCH   7   8
ENDBRANCH   5   6
ENDBRANCH   3   4
ENDBRANCH   2   3
BRANCH   2  12
ATOM     12  C   UNL     1      -7.843   0.416 124.025  0.00  0.00    +0.000 C 
BRANCH  12  13
ATOM     13  C   UNL     1      -8.391  -0.987 124.223  0.00  0.00    +0.000 A 
ATOM     14  C   UNL     1      -8.876  -1.663 123.086  0.00  0.00    +0.000 A 
ATOM     15  C   UNL     1      -9.368  -2.959 123.184  0.00  0.00    +0.000 A 
ATOM     16  C   UNL     1      -9.381  -3.599 124.420  0.00  0.00    +0.000 A 
ATOM     17  C   UNL     1      -8.876  -2.968 125.568  0.00  0.00    +0.000 A 
ATOM     18  C   UNL     1      -8.853  -3.647 126.798  0.00  0.00    +0.000 A 
ATOM     19  C   UNL     1      -8.337  -3.048 127.947  0.00  0.00    +0.000 A 
ATOM     20  C   UNL     1      -7.836  -1.757 127.882  0.00  0.00    +0.000 A 
ATOM     21  C   UNL     1      -7.854  -1.069 126.671  0.00  0.00    +0.000 A 
ATOM     22  C   UNL     1      -8.371  -1.644 125.485  0.00  0.00    +0.000 A 
ENDBRANCH  12  13
ENDBRANCH   2  12
TORSDOF 6
ENDMDL
MODEL 2
REMARK VINA RESULT:      -7.3      8.648     10.860
REMARK  Name = Terbinafine
REMARK  10 active torsions:
REMARK  status: ('A' for Active; 'I' for Inactive)
REMARK    1  A    between atoms: C_1  and  N_2
REMARK    2  A    between atoms: N_2  and  C_3
REMARK    3  A    between atoms: N_2  and  C_12
REMARK    4  A    between atoms: C_3  and  C_4
REMARK    5  A    between atoms: C_5  and  C_6
REMARK    6  A    between atoms: C_7  and  C_8
REMARK    7  A    between atoms: C_8  and  C_9
REMARK    8  A    between atoms: C_8  and  C_10
REMARK    9  A    between atoms: C_8  and  C_11
REMARK   10  A    between atoms: C_12  and  C_13
REMARK                            x       y       z     vdW  Elec       q    Type
REMARK                         _______ _______ _______ _____ _____    ______ ____
ROOT
ATOM      1  C   UNL     1      -9.255   3.433 129.972  0.00  0.00    +0.000 C 
ATOM      2  N   UNL     1      -9.758   4.029 131.217  0.00  0.00    +0.000 NA
ENDROOT
BRANCH   2   3
ATOM      3  C   UNL     1      -9.122   3.413 132.392  0.00  0.00    +0.000 C 
BRANCH   3   4
ATOM      4  C   UNL     1      -8.978   4.377 133.521  0.00  0.00    +0.000 C 
ATOM      5  C   UNL     1      -7.933   4.336 134.348  0.00  0.00    +0.000 C 
BRANCH   5   6
ATOM      6  C   UNL     1      -7.856   5.305 135.517  0.00  0.00    +0.000 C 
ATOM      7  C   UNL     1      -7.792   6.136 136.519  0.00  0.00    +0.000 C 
BRANCH   7   8
ATOM      8  C   UNL     1      -7.716   7.104 137.688  0.00  0.00    +0.000 C 
ATOM      9  C   UNL     1      -7.599   6.308 138.994  0.00  0.00    +0.000 C 
ATOM     10  C   UNL     1      -6.487   8.005 137.518  0.00  0.00    +0.000 C 
ATOM     11  C   UNL     1      -8.988   7.961 137.716  0.00  0.00    +0.000 C 
ENDBRANCH   7   8
ENDBRANCH   5   6
ENDBRANCH   3   4
ENDBRANCH   2   3
BRANCH   2  12
ATOM     12  C   UNL     1      -9.482   5.479 131.183  0.00  0.00    +0.000 C 
BRANCH  12  13
ATOM     13  C   UNL     1     -10.703   6.326 130.867  0.00  0.00    +0.000 A 
ATOM     14  C   UNL     1     -11.574   6.635 131.930  0.00  0.00    +0.000 A 
ATOM     15  C   UNL     1     -12.696   7.427 131.722  0.00  0.00    +0.000 A 
ATOM     16  C   UNL     1     -12.964   7.923 130.450  0.00  0.00    +0.000 A 
ATOM     17  C   UNL     1     -12.100   7.663 129.375  0.00  0.00    +0.000 A 
ATOM     18  C   UNL     1     -12.359   8.213 128.108  0.00  0.00    +0.000 A 
ATOM     19  C   UNL     1     -11.504   7.985 127.030  0.00  0.00    +0.000 A 
ATOM     20  C   UNL     1     -10.374   7.201 127.204  0.00  0.00    +0.000 A 
ATOM     21  C   UNL     1     -10.104   6.647 128.453  0.00  0.00    +0.000 A 
ATOM     22  C   UNL     1     -10.949   6.855 129.569  0.00  0.00    +0.000 A 
ENDBRANCH  12  13
ENDBRANCH   2  12
TORSDOF 6
ENDMDL
MODEL 3
REMARK VINA RESULT:      -7.0      2.436      6.307
REMARK  Name = Terbinafine
REMARK  10 active torsions:
REMARK  status: ('A' for Active; 'I' for Inactive)
REMARK    1  A    between atoms: C_1  and  N_2
REMARK    2  A    between atoms: N_2  and  C_3
REMARK    3  A    between atoms: N_2  and  C_12
REMARK    4  A    between atoms: C_3  and  C_4
REMARK    5  A    between atoms: C_5  and  C_6
REMARK    6  A    between atoms: C_7  and  C_8
REMARK    7  A    between atoms: C_8  and  C_9
REMARK    8  A    between atoms: C_8  and  C_10
REMARK    9  A    between atoms: C_8  and  C_11
REMARK   10  A    between atoms: C_12  and  C_13
REMARK                            x       y       z     vdW  Elec       q    Type
REMARK                         _______ _______ _______ _____ _____    ______ ____
ROOT
ATOM      1  C   UNL     1      -9.385  -3.205 123.399  0.00  0.00    +0.000 C 
ATOM      2  N   UNL     1      -9.382  -2.263 124.525  0.00  0.00    +0.000 NA
ENDROOT
BRANCH   2   3
ATOM      3  C   UNL     1      -9.770  -2.934 125.776  0.00  0.00    +0.000 C 
BRANCH   3   4
ATOM      4  C   UNL     1      -8.625  -3.056 126.725  0.00  0.00    +0.000 C 
ATOM      5  C   UNL     1      -8.780  -3.570 127.945  0.00  0.00    +0.000 C 
BRANCH   5   6
ATOM      6  C   UNL     1      -7.595  -3.625 128.896  0.00  0.00    +0.000 C 
ATOM      7  C   UNL     1      -6.579  -3.672 129.712  0.00  0.00    +0.000 C 
BRANCH   7   8
ATOM      8  C   UNL     1      -5.394  -3.727 130.661  0.00  0.00    +0.000 C 
ATOM      9  C   UNL     1      -5.483  -2.554 131.645  0.00  0.00    +0.000 C 
ATOM     10  C   UNL     1      -5.424  -5.053 131.430  0.00  0.00    +0.000 C 
ATOM     11  C   UNL     1      -4.095  -3.626 129.851  0.00  0.00    +0.000 C 
ENDBRANCH   7   8
ENDBRANCH   5   6
ENDBRANCH   3   4
ENDBRANCH   2   3
BRANCH   2  12
ATOM     12  C   UNL     1      -8.029  -1.688 124.649  0.00  0.00    +0.000 C 
BRANCH  12  13
ATOM     13  C   UNL     1      -7.966  -0.201 124.344  0.00  0.00    +0.000 A 
ATOM     14  C   UNL     1      -8.989   0.343 123.542  0.00  0.00    +0.000 A 
ATOM     15  C   UNL     1      -9.014   1.699 123.243  0.00  0.00    +0.000 A 
ATOM     16  C   UNL     1      -8.018   2.533 123.741  0.00  0.00    +0.000 A 
ATOM     17  C   UNL     1      -7.001   2.032 124.570  0.00  0.00    +0.000 A 
ATOM     18  C   UNL     1      -6.032   2.897 125.104  0.00  0.00    +0.000 A 
ATOM     19  C   UNL     1      -5.024   2.425 125.945  0.00  0.00    +0.000 A 
ATOM     20  C   UNL     1      -4.973   1.077 126.266  0.00  0.00    +0.000 A 
ATOM     21  C   UNL     1      -5.926   0.206 125.743  0.00  0.00    +0.000 A 
ATOM     22  C   UNL     1      -6.961   0.648 124.885  0.00  0.00    +0.000 A 
ENDBRANCH  12  13
ENDBRANCH   2  12
TORSDOF 6
ENDMDL
MODEL 4
REMARK VINA RESULT:      -7.0      2.594      4.621
REMARK  Name = Terbinafine
REMARK  10 active torsions:
REMARK  status: ('A' for Active; 'I' for Inactive)
REMARK    1  A    between atoms: C_1  and  N_2
REMARK    2  A    between atoms: N_2  and  C_3
REMARK    3  A    between atoms: N_2  and  C_12
REMARK    4  A    between atoms: C_3  and  C_4
REMARK    5  A    between atoms: C_5  and  C_6
REMARK    6  A    between atoms: C_7  and  C_8
REMARK    7  A    between atoms: C_8  and  C_9
REMARK    8  A    between atoms: C_8  and  C_10
REMARK    9  A    between atoms: C_8  and  C_11
REMARK   10  A    between atoms: C_12  and  C_13
REMARK                            x       y       z     vdW  Elec       q    Type
REMARK                         _______ _______ _______ _____ _____    ______ ____
ROOT
ATOM      1  C   UNL     1      -6.766   1.941 128.444  0.00  0.00    +0.000 C 
ATOM      2  N   UNL     1      -7.692   1.041 127.744  0.00  0.00    +0.000 NA
ENDROOT
BRANCH   2   3
ATOM      3  C   UNL     1      -8.499   1.776 126.758  0.00  0.00    +0.000 C 
BRANCH   3   4
ATOM      4  C   UNL     1      -7.702   2.165 125.558  0.00  0.00    +0.000 C 
ATOM      5  C   UNL     1      -8.232   2.886 124.570  0.00  0.00    +0.000 C 
BRANCH   5   6
ATOM      6  C   UNL     1      -7.396   3.212 123.343  0.00  0.00    +0.000 C 
ATOM      7  C   UNL     1      -6.679   3.493 122.291  0.00  0.00    +0.000 C 
BRANCH   7   8
ATOM      8  C   UNL     1      -5.842   3.818 121.064  0.00  0.00    +0.000 C 
ATOM      9  C   UNL     1      -4.820   4.902 121.425  0.00  0.00    +0.000 C 
ATOM     10  C   UNL     1      -5.114   2.551 120.600  0.00  0.00    +0.000 C 
ATOM     11  C   UNL     1      -6.763   4.326 119.947  0.00  0.00    +0.000 C 
ENDBRANCH   7   8
ENDBRANCH   5   6
ENDBRANCH   3   4
ENDBRANCH   2   3
BRANCH   2  12
ATOM     12  C   UNL     1      -6.903  -0.014 127.078  0.00  0.00    +0.000 C 
BRANCH  12  13
ATOM     13  C   UNL     1      -7.617  -1.353 126.998  0.00  0.00    +0.000 A 
ATOM     14  C   UNL     1      -7.816  -2.057 128.202  0.00  0.00    +0.000 A 
ATOM     15  C   UNL     1      -8.484  -3.275 128.211  0.00  0.00    +0.000 A 
ATOM     16  C   UNL     1      -8.965  -3.806 127.018  0.00  0.00    +0.000 A 
ATOM     17  C   UNL     1      -8.813  -3.116 125.805  0.00  0.00    +0.000 A 
ATOM     18  C   UNL     1      -9.348  -3.645 124.618  0.00  0.00    +0.000 A 
ATOM     19  C   UNL     1      -9.227  -2.967 123.404  0.00  0.00    +0.000 A 
ATOM     20  C   UNL     1      -8.568  -1.748 123.361  0.00  0.00    +0.000 A 
ATOM     21  C   UNL     1      -8.031  -1.212 124.529  0.00  0.00    +0.000 A 
ATOM     22  C   UNL     1      -8.132  -1.871 125.778  0.00  0.00    +0.000 A 
ENDBRANCH  12  13
ENDBRANCH   2  12
TORSDOF 6
ENDMDL
MODEL 5
REMARK VINA RESULT:      -7.0      8.152     11.006
REMARK  Name = Terbinafine
REMARK  10 active torsions:
REMARK  status: ('A' for Active; 'I' for Inactive)
REMARK    1  A    between atoms: C_1  and  N_2
REMARK    2  A    between atoms: N_2  and  C_3
REMARK    3  A    between atoms: N_2  and  C_12
REMARK    4  A    between atoms: C_3  and  C_4
REMARK    5  A    between atoms: C_5  and  C_6
REMARK    6  A    between atoms: C_7  and  C_8
REMARK    7  A    between atoms: C_8  and  C_9
REMARK    8  A    between atoms: C_8  and  C_10
REMARK    9  A    between atoms: C_8  and  C_11
REMARK   10  A    between atoms: C_12  and  C_13
REMARK                            x       y       z     vdW  Elec       q    Type
REMARK                         _______ _______ _______ _____ _____    ______ ____
ROOT
ATOM      1  C   UNL     1      -7.327   3.601 132.540  0.00  0.00    +0.000 C 
ATOM      2  N   UNL     1      -7.284   5.067 132.467  0.00  0.00    +0.000 NA
ENDROOT
BRANCH   2   3
ATOM      3  C   UNL     1      -8.440   5.664 133.154  0.00  0.00    +0.000 C 
BRANCH   3   4
ATOM      4  C   UNL     1      -9.512   6.069 132.198  0.00  0.00    +0.000 C 
ATOM      5  C   UNL     1      -9.231   6.696 131.056  0.00  0.00    +0.000 C 
BRANCH   5   6
ATOM      6  C   UNL     1     -10.362   7.136 130.140  0.00  0.00    +0.000 C 
ATOM      7  C   UNL     1     -11.331   7.514 129.354  0.00  0.00    +0.000 C 
BRANCH   7   8
ATOM      8  C   UNL     1     -12.461   7.953 128.437  0.00  0.00    +0.000 C 
ATOM      9  C   UNL     1     -11.941   8.025 126.996  0.00  0.00    +0.000 C 
ATOM     10  C   UNL     1     -13.606   6.939 128.527  0.00  0.00    +0.000 C 
ATOM     11  C   UNL     1     -12.957   9.336 128.878  0.00  0.00    +0.000 C 
ENDBRANCH   7   8
ENDBRANCH   5   6
ENDBRANCH   3   4
ENDBRANCH   2   3
BRANCH   2  12
ATOM     12  C   UNL     1      -6.025   5.528 133.085  0.00  0.00    +0.000 C 
BRANCH  12  13
ATOM     13  C   UNL     1      -5.076   6.202 132.109  0.00  0.00    +0.000 A 
ATOM     14  C   UNL     1      -5.639   7.043 131.130  0.00  0.00    +0.000 A 
ATOM     15  C   UNL     1      -4.832   7.715 130.220  0.00  0.00    +0.000 A 
ATOM     16  C   UNL     1      -3.451   7.556 130.275  0.00  0.00    +0.000 A 
ATOM     17  C   UNL     1      -2.853   6.751 131.258  0.00  0.00    +0.000 A 
ATOM     18  C   UNL     1      -1.454   6.641 131.330  0.00  0.00    +0.000 A 
ATOM     19  C   UNL     1      -0.838   5.863 132.309  0.00  0.00    +0.000 A 
ATOM     20  C   UNL     1      -1.614   5.182 133.235  0.00  0.00    +0.000 A 
ATOM     21  C   UNL     1      -3.002   5.280 133.176  0.00  0.00    +0.000 A 
ATOM     22  C   UNL     1      -3.663   6.057 132.195  0.00  0.00    +0.000 A 
ENDBRANCH  12  13
ENDBRANCH   2  12
TORSDOF 6
ENDMDL
MODEL 6
REMARK VINA RESULT:      -6.9      3.398      5.658
REMARK  Name = Terbinafine
REMARK  10 active torsions:
REMARK  status: ('A' for Active; 'I' for Inactive)
REMARK    1  A    between atoms: C_1  and  N_2
REMARK    2  A    between atoms: N_2  and  C_3
REMARK    3  A    between atoms: N_2  and  C_12
REMARK    4  A    between atoms: C_3  and  C_4
REMARK    5  A    between atoms: C_5  and  C_6
REMARK    6  A    between atoms: C_7  and  C_8
REMARK    7  A    between atoms: C_8  and  C_9
REMARK    8  A    between atoms: C_8  and  C_10
REMARK    9  A    between atoms: C_8  and  C_11
REMARK   10  A    between atoms: C_12  and  C_13
REMARK                            x       y       z     vdW  Elec       q    Type
REMARK                         _______ _______ _______ _____ _____    ______ ____
ROOT
ATOM      1  C   UNL     1      -5.187  -1.165 131.478  0.00  0.00    +0.000 C 
ATOM      2  N   UNL     1      -6.188  -1.054 130.409  0.00  0.00    +0.000 NA
ENDROOT
BRANCH   2   3
ATOM      3  C   UNL     1      -6.452   0.355 130.077  0.00  0.00    +0.000 C 
BRANCH   3   4
ATOM      4  C   UNL     1      -6.670   0.555 128.614  0.00  0.00    +0.000 C 
ATOM      5  C   UNL     1      -7.883   0.790 128.114  0.00  0.00    +0.000 C 
BRANCH   5   6
ATOM      6  C   UNL     1      -8.063   0.935 126.611  0.00  0.00    +0.000 C 
ATOM      7  C   UNL     1      -8.218   1.058 125.322  0.00  0.00    +0.000 C 
BRANCH   7   8
ATOM      8  C   UNL     1      -8.400   1.203 123.820  0.00  0.00    +0.000 C 
ATOM      9  C   UNL     1      -7.030   1.112 123.137  0.00  0.00    +0.000 C 
ATOM     10  C   UNL     1      -9.310   0.079 123.312  0.00  0.00    +0.000 C 
ATOM     11  C   UNL     1      -9.039   2.565 123.520  0.00  0.00    +0.000 C 
ENDBRANCH   7   8
ENDBRANCH   5   6
ENDBRANCH   3   4
ENDBRANCH   2   3
BRANCH   2  12
ATOM     12  C   UNL     1      -5.686  -1.776 129.223  0.00  0.00    +0.000 C 
BRANCH  12  13
ATOM     13  C   UNL     1      -6.776  -2.474 128.426  0.00  0.00    +0.000 A 
ATOM     14  C   UNL     1      -7.845  -3.042 129.145  0.00  0.00    +0.000 A 
ATOM     15  C   UNL     1      -8.892  -3.673 128.484  0.00  0.00    +0.000 A 
ATOM     16  C   UNL     1      -8.885  -3.744 127.094  0.00  0.00    +0.000 A 
ATOM     17  C   UNL     1      -7.852  -3.160 126.344  0.00  0.00    +0.000 A 
ATOM     18  C   UNL     1      -7.887  -3.198 124.940  0.00  0.00    +0.000 A 
ATOM     19  C   UNL     1      -6.882  -2.608 124.174  0.00  0.00    +0.000 A 
ATOM     20  C   UNL     1      -5.825  -1.968 124.803  0.00  0.00    +0.000 A 
ATOM     21  C   UNL     1      -5.775  -1.923 126.194  0.00  0.00    +0.000 A 
ATOM     22  C   UNL     1      -6.775  -2.512 127.004  0.00  0.00    +0.000 A 
ENDBRANCH  12  13
ENDBRANCH   2  12
TORSDOF 6
ENDMDL
MODEL 7
REMARK VINA RESULT:      -6.9      5.109      6.977
REMARK  Name = Terbinafine
REMARK  10 active torsions:
REMARK  status: ('A' for Active; 'I' for Inactive)
REMARK    1  A    between atoms: C_1  and  N_2
REMARK    2  A    between atoms: N_2  and  C_3
REMARK    3  A    between atoms: N_2  and  C_12
REMARK    4  A    between atoms: C_3  and  C_4
REMARK    5  A    between atoms: C_5  and  C_6
REMARK    6  A    between atoms: C_7  and  C_8
REMARK    7  A    between atoms: C_8  and  C_9
REMARK    8  A    between atoms: C_8  and  C_10
REMARK    9  A    between atoms: C_8  and  C_11
REMARK   10  A    between atoms: C_12  and  C_13
REMARK                            x       y       z     vdW  Elec       q    Type
REMARK                         _______ _______ _______ _____ _____    ______ ____
ROOT
ATOM      1  C   UNL     1      -6.739   2.973 129.508  0.00  0.00    +0.000 C 
ATOM      2  N   UNL     1      -7.149   1.638 129.962  0.00  0.00    +0.000 NA
ENDROOT
BRANCH   2   3
ATOM      3  C   UNL     1      -8.615   1.520 129.997  0.00  0.00    +0.000 C 
BRANCH   3   4
ATOM      4  C   UNL     1      -9.289   2.838 129.808  0.00  0.00    +0.000 C 
ATOM      5  C   UNL     1     -10.266   3.246 130.618  0.00  0.00    +0.000 C 
BRANCH   5   6
ATOM      6  C   UNL     1     -10.960   4.573 130.353  0.00  0.00    +0.000 C 
ATOM      7  C   UNL     1     -11.554   5.711 130.127  0.00  0.00    +0.000 C 
BRANCH   7   8
ATOM      8  C   UNL     1     -12.246   7.038 129.863  0.00  0.00    +0.000 C 
ATOM      9  C   UNL     1     -12.887   7.539 131.162  0.00  0.00    +0.000 C 
ATOM     10  C   UNL     1     -11.212   8.056 129.368  0.00  0.00    +0.000 C 
ATOM     11  C   UNL     1     -13.329   6.837 128.795  0.00  0.00    +0.000 C 
ENDBRANCH   7   8
ENDBRANCH   5   6
ENDBRANCH   3   4
ENDBRANCH   2   3
BRANCH   2  12
ATOM     12  C   UNL     1      -6.575   0.637 129.042  0.00  0.00    +0.000 C 
BRANCH  12  13
ATOM     13  C   UNL     1      -6.964  -0.794 129.376  0.00  0.00    +0.000 A 
ATOM     14  C   UNL     1      -6.680  -1.259 130.675  0.00  0.00    +0.000 A 
ATOM     15  C   UNL     1      -7.031  -2.546 131.062  0.00  0.00    +0.000 A 
ATOM     16  C   UNL     1      -7.671  -3.387 130.157  0.00  0.00    +0.000 A 
ATOM     17  C   UNL     1      -7.999  -2.946 128.865  0.00  0.00    +0.000 A 
ATOM     18  C   UNL     1      -8.689  -3.793 127.981  0.00  0.00    +0.000 A 
ATOM     19  C   UNL     1      -9.043  -3.369 126.700  0.00  0.00    +0.000 A 
ATOM     20  C   UNL     1      -8.710  -2.089 126.283  0.00  0.00    +0.000 A 
ATOM     21  C   UNL     1      -8.024  -1.239 127.148  0.00  0.00    +0.000 A 
ATOM     22  C   UNL     1      -7.647  -1.634 128.453  0.00  0.00    +0.000 A 
ENDBRANCH  12  13
ENDBRANCH   2  12
TORSDOF 6
ENDMDL
MODEL 8
REMARK VINA RESULT:      -6.8      6.476      9.717
REMARK  Name = Terbinafine
REMARK  10 active torsions:
REMARK  status: ('A' for Active; 'I' for Inactive)
REMARK    1  A    between atoms: C_1  and  N_2
REMARK    2  A    between atoms: N_2  and  C_3
REMARK    3  A    between atoms: N_2  and  C_12
REMARK    4  A    between atoms: C_3  and  C_4
REMARK    5  A    between atoms: C_5  and  C_6
REMARK    6  A    between atoms: C_7  and  C_8
REMARK    7  A    between atoms: C_8  and  C_9
REMARK    8  A    between atoms: C_8  and  C_10
REMARK    9  A    between atoms: C_8  and  C_11
REMARK   10  A    between atoms: C_12  and  C_13
REMARK                            x       y       z     vdW  Elec       q    Type
REMARK                         _______ _______ _______ _____ _____    ______ ____
ROOT
ATOM      1  C   UNL     1     -10.533   3.215 130.385  0.00  0.00    +0.000 C 
ATOM      2  N   UNL     1      -9.906   3.934 131.501  0.00  0.00    +0.000 NA
ENDROOT
BRANCH   2   3
ATOM      3  C   UNL     1      -8.728   3.208 132.002  0.00  0.00    +0.000 C 
BRANCH   3   4
ATOM      4  C   UNL     1      -8.437   1.987 131.195  0.00  0.00    +0.000 C 
ATOM      5  C   UNL     1      -8.445   0.770 131.739  0.00  0.00    +0.000 C 
BRANCH   5   6
ATOM      6  C   UNL     1      -8.089  -0.438 130.888  0.00  0.00    +0.000 C 
ATOM      7  C   UNL     1      -7.784  -1.475 130.159  0.00  0.00    +0.000 C 
BRANCH   7   8
ATOM      8  C   UNL     1      -7.429  -2.683 129.308  0.00  0.00    +0.000 C 
ATOM      9  C   UNL     1      -6.625  -3.677 130.155  0.00  0.00    +0.000 C 
ATOM     10  C   UNL     1      -8.718  -3.346 128.812  0.00  0.00    +0.000 C 
ATOM     11  C   UNL     1      -6.587  -2.225 128.110  0.00  0.00    +0.000 C 
ENDBRANCH   7   8
ENDBRANCH   5   6
ENDBRANCH   3   4
ENDBRANCH   2   3
BRANCH   2  12
ATOM     12  C   UNL     1      -9.519   5.279 131.031  0.00  0.00    +0.000 C 
BRANCH  12  13
ATOM     13  C   UNL     1     -10.700   6.201 130.778  0.00  0.00    +0.000 A 
ATOM     14  C   UNL     1     -11.535   6.502 131.871  0.00  0.00    +0.000 A 
ATOM     15  C   UNL     1     -12.619   7.359 131.724  0.00  0.00    +0.000 A 
ATOM     16  C   UNL     1     -12.882   7.929 130.481  0.00  0.00    +0.000 A 
ATOM     17  C   UNL     1     -12.052   7.676 129.378  0.00  0.00    +0.000 A 
ATOM     18  C   UNL     1     -12.304   8.299 128.144  0.00  0.00    +0.000 A 
ATOM     19  C   UNL     1     -11.481   8.078 127.039  0.00  0.00    +0.000 A 
ATOM     20  C   UNL     1     -10.390   7.231 127.154  0.00  0.00    +0.000 A 
ATOM     21  C   UNL     1     -10.127   6.605 128.371  0.00  0.00    +0.000 A 
ATOM     22  C   UNL     1     -10.941   6.802 129.512  0.00  0.00    +0.000 A 
ENDBRANCH  12  13
ENDBRANCH   2  12
TORSDOF 6
ENDMDL
MODEL 9
REMARK VINA RESULT:      -6.7      7.300     10.673
REMARK  Name = Terbinafine
REMARK  10 active torsions:
REMARK  status: ('A' for Active; 'I' for Inactive)
REMARK    1  A    between atoms: C_1  and  N_2
REMARK    2  A    between atoms: N_2  and  C_3
REMARK    3  A    between atoms: N_2  and  C_12
REMARK    4  A    between atoms: C_3  and  C_4
REMARK    5  A    between atoms: C_5  and  C_6
REMARK    6  A    between atoms: C_7  and  C_8
REMARK    7  A    between atoms: C_8  and  C_9
REMARK    8  A    between atoms: C_8  and  C_10
REMARK    9  A    between atoms: C_8  and  C_11
REMARK   10  A    between atoms: C_12  and  C_13
REMARK                            x       y       z     vdW  Elec       q    Type
REMARK                         _______ _______ _______ _____ _____    ______ ____
ROOT
ATOM      1  C   UNL     1      -7.385   3.268 132.343  0.00  0.00    +0.000 C 
ATOM      2  N   UNL     1      -6.687   4.555 132.229  0.00  0.00    +0.000 NA
ENDROOT
BRANCH   2   3
ATOM      3  C   UNL     1      -7.449   5.628 132.886  0.00  0.00    +0.000 C 
BRANCH   3   4
ATOM      4  C   UNL     1      -8.655   6.023 132.100  0.00  0.00    +0.000 C 
ATOM      5  C   UNL     1      -8.553   6.693 130.952  0.00  0.00    +0.000 C 
BRANCH   5   6
ATOM      6  C   UNL     1      -9.812   7.119 130.214  0.00  0.00    +0.000 C 
ATOM      7  C   UNL     1     -10.891   7.485 129.581  0.00  0.00    +0.000 C 
BRANCH   7   8
ATOM      8  C   UNL     1     -12.149   7.911 128.842  0.00  0.00    +0.000 C 
ATOM      9  C   UNL     1     -13.174   6.772 128.894  0.00  0.00    +0.000 C 
ATOM     10  C   UNL     1     -12.728   9.162 129.513  0.00  0.00    +0.000 C 
ATOM     11  C   UNL     1     -11.794   8.222 127.383  0.00  0.00    +0.000 C 
ENDBRANCH   7   8
ENDBRANCH   5   6
ENDBRANCH   3   4
ENDBRANCH   2   3
BRANCH   2  12
ATOM     12  C   UNL     1      -5.354   4.418 132.848  0.00  0.00    +0.000 C 
BRANCH  12  13
ATOM     13  C   UNL     1      -4.351   5.456 132.373  0.00  0.00    +0.000 A 
ATOM     14  C   UNL     1      -3.956   6.448 133.292  0.00  0.00    +0.000 A 
ATOM     15  C   UNL     1      -3.023   7.415 132.938  0.00  0.00    +0.000 A 
ATOM     16  C   UNL     1      -2.469   7.403 131.662  0.00  0.00    +0.000 A 
ATOM     17  C   UNL     1      -2.815   6.411 130.731  0.00  0.00    +0.000 A 
ATOM     18  C   UNL     1      -2.209   6.386 129.463  0.00  0.00    +0.000 A 
ATOM     19  C   UNL     1      -2.522   5.398 128.530  0.00  0.00    +0.000 A 
ATOM     20  C   UNL     1      -3.447   4.417 128.852  0.00  0.00    +0.000 A 
ATOM     21  C   UNL     1      -4.058   4.429 130.104  0.00  0.00    +0.000 A 
ATOM     22  C   UNL     1      -3.767   5.416 131.076  0.00  0.00    +0.000 A 
ENDBRANCH  12  13
ENDBRANCH   2  12
TORSDOF 6
ENDMDL
