MODEL 1
REMARK VINA RESULT:      -6.3      0.000      0.000
REMARK  Name = Terbutaline
REMARK  10 active torsions:
REMARK  status: ('A' for Active; 'I' for Inactive)
REMARK    1  A    between atoms: C_1  and  C_2
REMARK    2  A    between atoms: C_2  and  C_3
REMARK    3  A    between atoms: C_2  and  C_4
REMARK    4  A    between atoms: C_2  and  N_5
REMARK    5  A    between atoms: N_5  and  C_6
REMARK    6  A    between atoms: C_6  and  C_7
REMARK    7  A    between atoms: C_7  and  O_8
REMARK    8  A    between atoms: C_7  and  C_9
REMARK    9  A    between atoms: C_11  and  O_12
REMARK   10  A    between atoms: C_14  and  O_15
REMARK                            x       y       z     vdW  Elec       q    Type
REMARK                         _______ _______ _______ _____ _____    ______ ____
ROOT
ATOM      1  C   UNL     1     -10.844   5.999 131.224  0.00  0.00    +0.000 C 
ENDROOT
BRANCH   1   2
ATOM      2  C   UNL     1     -11.003   6.796 129.943  0.00  0.00    +0.000 A 
ATOM      3  C   UNL     1     -11.853   7.917 129.909  0.00  0.00    +0.000 A 
ATOM      4  C   UNL     1     -12.024   8.626 128.723  0.00  0.00    +0.000 A 
ATOM      5  C   UNL     1     -11.382   8.236 127.550  0.00  0.00    +0.000 A 
ATOM      6  C   UNL     1     -10.570   7.109 127.577  0.00  0.00    +0.000 A 
ATOM      7  C   UNL     1     -10.383   6.392 128.749  0.00  0.00    +0.000 A 
BRANCH   4   8
ATOM      8  O   UNL     1     -12.825   9.728 128.660  0.00  0.00    +0.000 OA
ATOM      9  H   UNL     1     -12.444  10.359 128.027  0.00  0.00    +0.000 HD
ENDBRANCH   4   8
BRANCH   6  10
ATOM     10  O   UNL     1      -9.927   6.659 126.460  0.00  0.00    +0.000 OA
ATOM     11  H   UNL     1     -10.587   6.497 125.768  0.00  0.00    +0.000 HD
ENDBRANCH   6  10
ENDBRANCH   1   2
BRANCH   1  12
ATOM     12  O   UNL     1     -11.932   6.251 132.120  0.00  0.00    +0.000 OA
ATOM     13  H   UNL     1     -12.679   5.705 131.833  0.00  0.00    +0.000 HD
ENDBRANCH   1  12
BRANCH   1  14
ATOM     14  C   UNL     1      -9.506   6.380 131.887  0.00  0.00    +0.000 C 
BRANCH  14  15
ATOM     15  N   UNL     1      -9.480   6.114 133.332  0.00  0.00    +0.000 NA
ATOM     16  H   UNL     1      -9.358   7.000 133.828  0.00  0.00    +0.000 HD
BRANCH  15  18
ATOM     17  C   UNL     1      -7.360   5.112 132.667  0.00  0.00    +0.000 C 
ATOM     18  C   UNL     1      -8.458   5.135 133.747  0.00  0.00    +0.000 C 
ATOM     19  C   UNL     1      -9.047   3.718 133.866  0.00  0.00    +0.000 C 
ATOM     20  C   UNL     1      -7.814   5.564 135.077  0.00  0.00    +0.000 C 
ENDBRANCH  15  18
ENDBRANCH  14  15
ENDBRANCH   1  14
TORSDOF 7
ENDMDL
MODEL 2
REMARK VINA RESULT:      -6.3      0.063      2.069
REMARK  Name = Terbutaline
REMARK  10 active torsions:
REMARK  status: ('A' for Active; 'I' for Inactive)
REMARK    1  A    between atoms: C_1  and  C_2
REMARK    2  A    between atoms: C_2  and  C_3
REMARK    3  A    between atoms: C_2  and  C_4
REMARK    4  A    between atoms: C_2  and  N_5
REMARK    5  A    between atoms: N_5  and  C_6
REMARK    6  A    between atoms: C_6  and  C_7
REMARK    7  A    between atoms: C_7  and  O_8
REMARK    8  A    between atoms: C_7  and  C_9
REMARK    9  A    between atoms: C_11  and  O_12
REMARK   10  A    between atoms: C_14  and  O_15
REMARK                            x       y       z     vdW  Elec       q    Type
REMARK                         _______ _______ _______ _____ _____    ______ ____
ROOT
ATOM      1  C   UNL     1     -10.874   5.969 131.225  0.00  0.00    +0.000 C 
ENDROOT
BRANCH   1   2
ATOM      2  C   UNL     1     -11.057   6.741 129.932  0.00  0.00    +0.000 A 
ATOM      3  C   UNL     1     -10.388   6.330 128.764  0.00  0.00    +0.000 A 
ATOM      4  C   UNL     1     -10.529   7.060 127.586  0.00  0.00    +0.000 A 
ATOM      5  C   UNL     1     -11.310   8.213 127.541  0.00  0.00    +0.000 A 
ATOM      6  C   UNL     1     -11.942   8.636 128.703  0.00  0.00    +0.000 A 
ATOM      7  C   UNL     1     -11.818   7.921 129.884  0.00  0.00    +0.000 A 
BRANCH   4   8
ATOM      8  O   UNL     1      -9.911   6.678 126.432  0.00  0.00    +0.000 OA
ATOM      9  H   UNL     1      -9.386   5.879 126.606  0.00  0.00    +0.000 HD
ENDBRANCH   4   8
BRANCH   6  10
ATOM     10  O   UNL     1     -12.705   9.768 128.736  0.00  0.00    +0.000 OA
ATOM     11  H   UNL     1     -12.264  10.452 128.208  0.00  0.00    +0.000 HD
ENDBRANCH   6  10
ENDBRANCH   1   2
BRANCH   1  12
ATOM     12  O   UNL     1     -11.952   6.228 132.130  0.00  0.00    +0.000 OA
ATOM     13  H   UNL     1     -12.229   5.377 132.505  0.00  0.00    +0.000 HD
ENDBRANCH   1  12
BRANCH   1  14
ATOM     14  C   UNL     1      -9.531   6.373 131.862  0.00  0.00    +0.000 C 
BRANCH  14  15
ATOM     15  N   UNL     1      -9.486   6.139 133.313  0.00  0.00    +0.000 NA
ATOM     16  H   UNL     1      -9.357   7.035 133.788  0.00  0.00    +0.000 HD
BRANCH  15  18
ATOM     17  C   UNL     1      -7.359   5.146 132.658  0.00  0.00    +0.000 C 
ATOM     18  C   UNL     1      -8.459   5.168 133.735  0.00  0.00    +0.000 C 
ATOM     19  C   UNL     1      -9.039   3.749 133.862  0.00  0.00    +0.000 C 
ATOM     20  C   UNL     1      -7.820   5.610 135.064  0.00  0.00    +0.000 C 
ENDBRANCH  15  18
ENDBRANCH  14  15
ENDBRANCH   1  14
TORSDOF 7
ENDMDL
MODEL 3
REMARK VINA RESULT:      -6.1      2.537      5.929
REMARK  Name = Terbutaline
REMARK  10 active torsions:
REMARK  status: ('A' for Active; 'I' for Inactive)
REMARK    1  A    between atoms: C_1  and  C_2
REMARK    2  A    between atoms: C_2  and  C_3
REMARK    3  A    between atoms: C_2  and  C_4
REMARK    4  A    between atoms: C_2  and  N_5
REMARK    5  A    between atoms: N_5  and  C_6
REMARK    6  A    between atoms: C_6  and  C_7
REMARK    7  A    between atoms: C_7  and  O_8
REMARK    8  A    between atoms: C_7  and  C_9
REMARK    9  A    between atoms: C_11  and  O_12
REMARK   10  A    between atoms: C_14  and  O_15
REMARK                            x       y       z     vdW  Elec       q    Type
REMARK                         _______ _______ _______ _____ _____    ______ ____
ROOT
ATOM      1  C   UNL     1     -11.127   6.635 130.960  0.00  0.00    +0.000 C 
ENDROOT
BRANCH   1   2
ATOM      2  C   UNL     1      -9.748   6.415 131.553  0.00  0.00    +0.000 A 
ATOM      3  C   UNL     1      -9.614   5.881 132.849  0.00  0.00    +0.000 A 
ATOM      4  C   UNL     1      -8.349   5.713 133.405  0.00  0.00    +0.000 A 
ATOM      5  C   UNL     1      -7.200   6.084 132.711  0.00  0.00    +0.000 A 
ATOM      6  C   UNL     1      -7.335   6.643 131.446  0.00  0.00    +0.000 A 
ATOM      7  C   UNL     1      -8.586   6.814 130.873  0.00  0.00    +0.000 A 
BRANCH   4   8
ATOM      8  O   UNL     1      -8.183   5.180 134.650  0.00  0.00    +0.000 OA
ATOM      9  H   UNL     1      -7.289   5.392 134.966  0.00  0.00    +0.000 HD
ENDBRANCH   4   8
BRANCH   6  10
ATOM     10  O   UNL     1      -6.253   7.048 130.719  0.00  0.00    +0.000 OA
ATOM     11  H   UNL     1      -6.172   8.011 130.797  0.00  0.00    +0.000 HD
ENDBRANCH   6  10
ENDBRANCH   1   2
BRANCH   1  12
ATOM     12  O   UNL     1     -12.138   6.041 131.781  0.00  0.00    +0.000 OA
ATOM     13  H   UNL     1     -12.491   6.736 132.357  0.00  0.00    +0.000 HD
ENDBRANCH   1  12
BRANCH   1  14
ATOM     14  C   UNL     1     -11.163   6.028 129.543  0.00  0.00    +0.000 C 
BRANCH  14  15
ATOM     15  N   UNL     1     -12.380   6.375 128.797  0.00  0.00    +0.000 NA
ATOM     16  H   UNL     1     -12.704   5.548 128.290  0.00  0.00    +0.000 HD
BRANCH  15  18
ATOM     17  C   UNL     1     -12.659   7.069 126.477  0.00  0.00    +0.000 C 
ATOM     18  C   UNL     1     -12.220   7.521 127.882  0.00  0.00    +0.000 C 
ATOM     19  C   UNL     1     -10.755   7.984 127.805  0.00  0.00    +0.000 C 
ATOM     20  C   UNL     1     -13.130   8.684 128.317  0.00  0.00    +0.000 C 
ENDBRANCH  15  18
ENDBRANCH  14  15
ENDBRANCH   1  14
TORSDOF 7
ENDMDL
MODEL 4
REMARK VINA RESULT:      -6.0      2.567      6.025
REMARK  Name = Terbutaline
REMARK  10 active torsions:
REMARK  status: ('A' for Active; 'I' for Inactive)
REMARK    1  A    between atoms: C_1  and  C_2
REMARK    2  A    between atoms: C_2  and  C_3
REMARK    3  A    between atoms: C_2  and  C_4
REMARK    4  A    between atoms: C_2  and  N_5
REMARK    5  A    between atoms: N_5  and  C_6
REMARK    6  A    between atoms: C_6  and  C_7
REMARK    7  A    between atoms: C_7  and  O_8
REMARK    8  A    between atoms: C_7  and  C_9
REMARK    9  A    between atoms: C_11  and  O_12
REMARK   10  A    between atoms: C_14  and  O_15
REMARK                            x       y       z     vdW  Elec       q    Type
REMARK                         _______ _______ _______ _____ _____    ______ ____
ROOT
ATOM      1  C   UNL     1     -11.017   6.603 131.041  0.00  0.00    +0.000 C 
ENDROOT
BRANCH   1   2
ATOM      2  C   UNL     1      -9.596   6.471 131.556  0.00  0.00    +0.000 A 
ATOM      3  C   UNL     1      -8.518   6.942 130.783  0.00  0.00    +0.000 A 
ATOM      4  C   UNL     1      -7.213   6.788 131.241  0.00  0.00    +0.000 A 
ATOM      5  C   UNL     1      -6.942   6.153 132.452  0.00  0.00    +0.000 A 
ATOM      6  C   UNL     1      -8.005   5.659 133.198  0.00  0.00    +0.000 A 
ATOM      7  C   UNL     1      -9.313   5.806 132.761  0.00  0.00    +0.000 A 
BRANCH   4   8
ATOM      8  O   UNL     1      -6.147   7.250 130.526  0.00  0.00    +0.000 OA
ATOM      9  H   UNL     1      -6.098   8.216 130.623  0.00  0.00    +0.000 HD
ENDBRANCH   4   8
BRANCH   6  10
ATOM     10  O   UNL     1      -7.811   5.008 134.382  0.00  0.00    +0.000 OA
ATOM     11  H   UNL     1      -7.366   4.166 134.202  0.00  0.00    +0.000 HD
ENDBRANCH   6  10
ENDBRANCH   1   2
BRANCH   1  12
ATOM     12  O   UNL     1     -11.926   5.851 131.852  0.00  0.00    +0.000 OA
ATOM     13  H   UNL     1     -11.773   6.105 132.775  0.00  0.00    +0.000 HD
ENDBRANCH   1  12
BRANCH   1  14
ATOM     14  C   UNL     1     -11.068   6.111 129.582  0.00  0.00    +0.000 C 
BRANCH  14  15
ATOM     15  N   UNL     1     -12.337   6.424 128.910  0.00  0.00    +0.000 NA
ATOM     16  H   UNL     1     -12.701   5.571 128.479  0.00  0.00    +0.000 HD
BRANCH  15  18
ATOM     17  C   UNL     1     -13.253   8.604 128.322  0.00  0.00    +0.000 C 
ATOM     18  C   UNL     1     -12.242   7.514 127.921  0.00  0.00    +0.000 C 
ATOM     19  C   UNL     1     -12.595   7.026 126.505  0.00  0.00    +0.000 C 
ATOM     20  C   UNL     1     -10.834   8.134 127.942  0.00  0.00    +0.000 C 
ENDBRANCH  15  18
ENDBRANCH  14  15
ENDBRANCH   1  14
TORSDOF 7
ENDMDL
MODEL 5
REMARK VINA RESULT:      -6.0      1.871      2.322
REMARK  Name = Terbutaline
REMARK  10 active torsions:
REMARK  status: ('A' for Active; 'I' for Inactive)
REMARK    1  A    between atoms: C_1  and  C_2
REMARK    2  A    between atoms: C_2  and  C_3
REMARK    3  A    between atoms: C_2  and  C_4
REMARK    4  A    between atoms: C_2  and  N_5
REMARK    5  A    between atoms: N_5  and  C_6
REMARK    6  A    between atoms: C_6  and  C_7
REMARK    7  A    between atoms: C_7  and  O_8
REMARK    8  A    between atoms: C_7  and  C_9
REMARK    9  A    between atoms: C_11  and  O_12
REMARK   10  A    between atoms: C_14  and  O_15
REMARK                            x       y       z     vdW  Elec       q    Type
REMARK                         _______ _______ _______ _____ _____    ______ ____
ROOT
ATOM      1  C   UNL     1     -11.571   5.966 131.220  0.00  0.00    +0.000 C 
ENDROOT
BRANCH   1   2
ATOM      2  C   UNL     1     -11.961   6.855 130.054  0.00  0.00    +0.000 A 
ATOM      3  C   UNL     1     -12.352   8.188 130.283  0.00  0.00    +0.000 A 
ATOM      4  C   UNL     1     -12.743   8.992 129.215  0.00  0.00    +0.000 A 
ATOM      5  C   UNL     1     -12.775   8.497 127.913  0.00  0.00    +0.000 A 
ATOM      6  C   UNL     1     -12.420   7.172 127.694  0.00  0.00    +0.000 A 
ATOM      7  C   UNL     1     -12.023   6.357 128.743  0.00  0.00    +0.000 A 
BRANCH   4   8
ATOM      8  O   UNL     1     -13.110  10.293 129.399  0.00  0.00    +0.000 OA
ATOM      9  H   UNL     1     -14.032  10.319 129.707  0.00  0.00    +0.000 HD
ENDBRANCH   4   8
BRANCH   6  10
ATOM     10  O   UNL     1     -12.449   6.617 126.447  0.00  0.00    +0.000 OA
ATOM     11  H   UNL     1     -12.882   7.239 125.842  0.00  0.00    +0.000 HD
ENDBRANCH   6  10
ENDBRANCH   1   2
BRANCH   1  12
ATOM     12  O   UNL     1     -11.046   6.742 132.302  0.00  0.00    +0.000 OA
ATOM     13  H   UNL     1     -11.735   6.799 132.982  0.00  0.00    +0.000 HD
ENDBRANCH   1  12
BRANCH   1  14
ATOM     14  C   UNL     1     -10.524   4.942 130.739  0.00  0.00    +0.000 C 
BRANCH  14  15
ATOM     15  N   UNL     1     -10.732   3.598 131.297  0.00  0.00    +0.000 NA
ATOM     16  H   UNL     1     -11.503   3.635 131.968  0.00  0.00    +0.000 HD
BRANCH  15  18
ATOM     17  C   UNL     1      -9.728   1.482 131.970  0.00  0.00    +0.000 C 
ATOM     18  C   UNL     1      -9.528   3.008 131.911  0.00  0.00    +0.000 C 
ATOM     19  C   UNL     1      -9.314   3.522 133.345  0.00  0.00    +0.000 C 
ATOM     20  C   UNL     1      -8.289   3.296 131.045  0.00  0.00    +0.000 C 
ENDBRANCH  15  18
ENDBRANCH  14  15
ENDBRANCH   1  14
TORSDOF 7
ENDMDL
MODEL 6
REMARK VINA RESULT:      -5.9      1.877      3.079
REMARK  Name = Terbutaline
REMARK  10 active torsions:
REMARK  status: ('A' for Active; 'I' for Inactive)
REMARK    1  A    between atoms: C_1  and  C_2
REMARK    2  A    between atoms: C_2  and  C_3
REMARK    3  A    between atoms: C_2  and  C_4
REMARK    4  A    between atoms: C_2  and  N_5
REMARK    5  A    between atoms: N_5  and  C_6
REMARK    6  A    between atoms: C_6  and  C_7
REMARK    7  A    between atoms: C_7  and  O_8
REMARK    8  A    between atoms: C_7  and  C_9
REMARK    9  A    between atoms: C_11  and  O_12
REMARK   10  A    between atoms: C_14  and  O_15
REMARK                            x       y       z     vdW  Elec       q    Type
REMARK                         _______ _______ _______ _____ _____    ______ ____
ROOT
ATOM      1  C   UNL     1     -11.651   6.046 131.222  0.00  0.00    +0.000 C 
ENDROOT
BRANCH   1   2
ATOM      2  C   UNL     1     -12.099   6.890 130.043  0.00  0.00    +0.000 A 
ATOM      3  C   UNL     1     -12.117   6.341 128.748  0.00  0.00    +0.000 A 
ATOM      4  C   UNL     1     -12.495   7.128 127.663  0.00  0.00    +0.000 A 
ATOM      5  C   UNL     1     -12.842   8.467 127.828  0.00  0.00    +0.000 A 
ATOM      6  C   UNL     1     -12.792   9.016 129.103  0.00  0.00    +0.000 A 
ATOM      7  C   UNL     1     -12.422   8.248 130.197  0.00  0.00    +0.000 A 
BRANCH   4   8
ATOM      8  O   UNL     1     -12.541   6.621 126.396  0.00  0.00    +0.000 OA
ATOM      9  H   UNL     1     -11.991   7.175 125.817  0.00  0.00    +0.000 HD
ENDBRANCH   4   8
BRANCH   6  10
ATOM     10  O   UNL     1     -13.098  10.326 129.334  0.00  0.00    +0.000 OA
ATOM     11  H   UNL     1     -13.308  10.433 130.275  0.00  0.00    +0.000 HD
ENDBRANCH   6  10
ENDBRANCH   1   2
BRANCH   1  12
ATOM     12  O   UNL     1     -11.193   6.872 132.297  0.00  0.00    +0.000 OA
ATOM     13  H   UNL     1     -11.251   7.793 132.002  0.00  0.00    +0.000 HD
ENDBRANCH   1  12
BRANCH   1  14
ATOM     14  C   UNL     1     -10.527   5.098 130.758  0.00  0.00    +0.000 C 
BRANCH  14  15
ATOM     15  N   UNL     1     -10.749   3.701 131.156  0.00  0.00    +0.000 NA
ATOM     16  H   UNL     1     -11.530   3.665 131.815  0.00  0.00    +0.000 HD
BRANCH  15  18
ATOM     17  C   UNL     1      -9.261   3.680 133.086  0.00  0.00    +0.000 C 
ATOM     18  C   UNL     1      -9.557   3.038 131.718  0.00  0.00    +0.000 C 
ATOM     19  C   UNL     1      -8.324   3.230 130.817  0.00  0.00    +0.000 C 
ATOM     20  C   UNL     1      -9.833   1.540 131.941  0.00  0.00    +0.000 C 
ENDBRANCH  15  18
ENDBRANCH  14  15
ENDBRANCH   1  14
TORSDOF 7
ENDMDL
MODEL 7
REMARK VINA RESULT:      -5.8      2.081      3.160
REMARK  Name = Terbutaline
REMARK  10 active torsions:
REMARK  status: ('A' for Active; 'I' for Inactive)
REMARK    1  A    between atoms: C_1  and  C_2
REMARK    2  A    between atoms: C_2  and  C_3
REMARK    3  A    between atoms: C_2  and  C_4
REMARK    4  A    between atoms: C_2  and  N_5
REMARK    5  A    between atoms: N_5  and  C_6
REMARK    6  A    between atoms: C_6  and  C_7
REMARK    7  A    between atoms: C_7  and  O_8
REMARK    8  A    between atoms: C_7  and  C_9
REMARK    9  A    between atoms: C_11  and  O_12
REMARK   10  A    between atoms: C_14  and  O_15
REMARK                            x       y       z     vdW  Elec       q    Type
REMARK                         _______ _______ _______ _____ _____    ______ ____
ROOT
ATOM      1  C   UNL     1      -8.482   6.445 131.191  0.00  0.00    +0.000 C 
ENDROOT
BRANCH   1   2
ATOM      2  C   UNL     1      -9.797   6.946 130.625  0.00  0.00    +0.000 A 
ATOM      3  C   UNL     1      -9.814   7.684 129.426  0.00  0.00    +0.000 A 
ATOM      4  C   UNL     1     -11.019   8.172 128.926  0.00  0.00    +0.000 A 
ATOM      5  C   UNL     1     -12.219   7.964 129.602  0.00  0.00    +0.000 A 
ATOM      6  C   UNL     1     -12.196   7.265 130.802  0.00  0.00    +0.000 A 
ATOM      7  C   UNL     1     -11.008   6.766 131.314  0.00  0.00    +0.000 A 
BRANCH   4   8
ATOM      8  O   UNL     1     -11.073   8.874 127.757  0.00  0.00    +0.000 OA
ATOM      9  H   UNL     1     -10.813   8.288 127.027  0.00  0.00    +0.000 HD
ENDBRANCH   4   8
BRANCH   6  10
ATOM     10  O   UNL     1     -13.331   7.042 131.527  0.00  0.00    +0.000 OA
ATOM     11  H   UNL     1     -13.159   7.278 132.451  0.00  0.00    +0.000 HD
ENDBRANCH   6  10
ENDBRANCH   1   2
BRANCH   1  12
ATOM     12  O   UNL     1      -7.386   7.228 130.709  0.00  0.00    +0.000 OA
ATOM     13  H   UNL     1      -6.962   6.728 129.995  0.00  0.00    +0.000 HD
ENDBRANCH   1  12
BRANCH   1  14
ATOM     14  C   UNL     1      -8.299   4.967 130.796  0.00  0.00    +0.000 C 
BRANCH  14  15
ATOM     15  N   UNL     1      -7.719   4.148 131.870  0.00  0.00    +0.000 NA
ATOM     16  H   UNL     1      -6.880   3.684 131.516  0.00  0.00    +0.000 HD
BRANCH  15  18
ATOM     17  C   UNL     1      -9.215   3.768 133.756  0.00  0.00    +0.000 C 
ATOM     18  C   UNL     1      -8.655   3.168 132.453  0.00  0.00    +0.000 C 
ATOM     19  C   UNL     1      -7.948   1.845 132.796  0.00  0.00    +0.000 C 
ATOM     20  C   UNL     1      -9.832   2.918 131.495  0.00  0.00    +0.000 C 
ENDBRANCH  15  18
ENDBRANCH  14  15
ENDBRANCH   1  14
TORSDOF 7
ENDMDL
MODEL 8
REMARK VINA RESULT:      -5.7      2.119      2.828
REMARK  Name = Terbutaline
REMARK  10 active torsions:
REMARK  status: ('A' for Active; 'I' for Inactive)
REMARK    1  A    between atoms: C_1  and  C_2
REMARK    2  A    between atoms: C_2  and  C_3
REMARK    3  A    between atoms: C_2  and  C_4
REMARK    4  A    between atoms: C_2  and  N_5
REMARK    5  A    between atoms: N_5  and  C_6
REMARK    6  A    between atoms: C_6  and  C_7
REMARK    7  A    between atoms: C_7  and  O_8
REMARK    8  A    between atoms: C_7  and  C_9
REMARK    9  A    between atoms: C_11  and  O_12
REMARK   10  A    between atoms: C_14  and  O_15
REMARK                            x       y       z     vdW  Elec       q    Type
REMARK                         _______ _______ _______ _____ _____    ______ ____
ROOT
ATOM      1  C   UNL     1      -8.278   6.442 131.212  0.00  0.00    +0.000 C 
ENDROOT
BRANCH   1   2
ATOM      2  C   UNL     1      -9.611   6.964 130.710  0.00  0.00    +0.000 A 
ATOM      3  C   UNL     1     -10.794   6.676 131.417  0.00  0.00    +0.000 A 
ATOM      4  C   UNL     1     -12.020   7.127 130.935  0.00  0.00    +0.000 A 
ATOM      5  C   UNL     1     -12.109   7.847 129.746  0.00  0.00    +0.000 A 
ATOM      6  C   UNL     1     -10.944   8.101 129.032  0.00  0.00    +0.000 A 
ATOM      7  C   UNL     1      -9.713   7.665 129.497  0.00  0.00    +0.000 A 
BRANCH   4   8
ATOM      8  O   UNL     1     -13.183   6.881 131.606  0.00  0.00    +0.000 OA
ATOM      9  H   UNL     1     -13.288   5.921 131.712  0.00  0.00    +0.000 HD
ENDBRANCH   4   8
BRANCH   6  10
ATOM     10  O   UNL     1     -10.960   8.782 127.849  0.00  0.00    +0.000 OA
ATOM     11  H   UNL     1     -11.829   8.664 127.436  0.00  0.00    +0.000 HD
ENDBRANCH   6  10
ENDBRANCH   1   2
BRANCH   1  12
ATOM     12  O   UNL     1      -7.196   7.220 130.691  0.00  0.00    +0.000 OA
ATOM     13  H   UNL     1      -7.371   7.370 129.750  0.00  0.00    +0.000 HD
ENDBRANCH   1  12
BRANCH   1  14
ATOM     14  C   UNL     1      -8.129   4.967 130.791  0.00  0.00    +0.000 C 
BRANCH  14  15
ATOM     15  N   UNL     1      -7.658   4.100 131.880  0.00  0.00    +0.000 NA
ATOM     16  H   UNL     1      -6.853   3.562 131.550  0.00  0.00    +0.000 HD
BRANCH  15  18
ATOM     17  C   UNL     1      -8.036   1.848 132.734  0.00  0.00    +0.000 C 
ATOM     18  C   UNL     1      -8.695   3.207 132.432  0.00  0.00    +0.000 C 
ATOM     19  C   UNL     1      -9.837   2.977 131.426  0.00  0.00    +0.000 C 
ATOM     20  C   UNL     1      -9.245   3.778 133.751  0.00  0.00    +0.000 C 
ENDBRANCH  15  18
ENDBRANCH  14  15
ENDBRANCH   1  14
TORSDOF 7
ENDMDL
MODEL 9
REMARK VINA RESULT:      -5.6      2.697      6.509
REMARK  Name = Terbutaline
REMARK  10 active torsions:
REMARK  status: ('A' for Active; 'I' for Inactive)
REMARK    1  A    between atoms: C_1  and  C_2
REMARK    2  A    between atoms: C_2  and  C_3
REMARK    3  A    between atoms: C_2  and  C_4
REMARK    4  A    between atoms: C_2  and  N_5
REMARK    5  A    between atoms: N_5  and  C_6
REMARK    6  A    between atoms: C_6  and  C_7
REMARK    7  A    between atoms: C_7  and  O_8
REMARK    8  A    between atoms: C_7  and  C_9
REMARK    9  A    between atoms: C_11  and  O_12
REMARK   10  A    between atoms: C_14  and  O_15
REMARK                            x       y       z     vdW  Elec       q    Type
REMARK                         _______ _______ _______ _____ _____    ______ ____
ROOT
ATOM      1  C   UNL     1     -10.080   5.786 130.301  0.00  0.00    +0.000 C 
ENDROOT
BRANCH   1   2
ATOM      2  C   UNL     1      -9.775   4.739 131.355  0.00  0.00    +0.000 A 
ATOM      3  C   UNL     1     -10.021   3.378 131.090  0.00  0.00    +0.000 A 
ATOM      4  C   UNL     1      -9.773   2.422 132.072  0.00  0.00    +0.000 A 
ATOM      5  C   UNL     1      -9.301   2.785 133.331  0.00  0.00    +0.000 A 
ATOM      6  C   UNL     1      -9.091   4.132 133.602  0.00  0.00    +0.000 A 
ATOM      7  C   UNL     1      -9.327   5.099 132.637  0.00  0.00    +0.000 A 
BRANCH   4   8
ATOM      8  O   UNL     1      -9.982   1.093 131.842  0.00  0.00    +0.000 OA
ATOM      9  H   UNL     1      -9.411   0.808 131.109  0.00  0.00    +0.000 HD
ENDBRANCH   4   8
BRANCH   6  10
ATOM     10  O   UNL     1      -8.649   4.559 134.821  0.00  0.00    +0.000 OA
ATOM     11  H   UNL     1      -9.412   4.643 135.414  0.00  0.00    +0.000 HD
ENDBRANCH   6  10
ENDBRANCH   1   2
BRANCH   1  12
ATOM     12  O   UNL     1      -9.420   7.020 130.601  0.00  0.00    +0.000 OA
ATOM     13  H   UNL     1      -9.102   6.966 131.515  0.00  0.00    +0.000 HD
ENDBRANCH   1  12
BRANCH   1  14
ATOM     14  C   UNL     1     -11.605   5.997 130.233  0.00  0.00    +0.000 C 
BRANCH  14  15
ATOM     15  N   UNL     1     -12.101   6.187 128.863  0.00  0.00    +0.000 NA
ATOM     16  H   UNL     1     -11.405   5.826 128.206  0.00  0.00    +0.000 HD
BRANCH  15  18
ATOM     17  C   UNL     1     -12.656   8.339 129.864  0.00  0.00    +0.000 C 
ATOM     18  C   UNL     1     -12.455   7.582 128.538  0.00  0.00    +0.000 C 
ATOM     19  C   UNL     1     -13.764   7.662 127.734  0.00  0.00    +0.000 C 
ATOM     20  C   UNL     1     -11.308   8.260 127.768  0.00  0.00    +0.000 C 
ENDBRANCH  15  18
ENDBRANCH  14  15
ENDBRANCH   1  14
TORSDOF 7
ENDMDL
