MODEL 1
REMARK VINA RESULT:      -8.5      0.000      0.000
REMARK  Name = Terconazole
REMARK  10 active torsions:
REMARK  status: ('A' for Active; 'I' for Inactive)
REMARK    1  A    between atoms: C_1  and  C_2
REMARK    2  A    between atoms: C_2  and  C_3
REMARK    3  A    between atoms: C_2  and  N_4
REMARK    4  A    between atoms: N_7  and  C_10
REMARK    5  A    between atoms: C_13  and  O_14
REMARK    6  A    between atoms: O_14  and  C_15
REMARK    7  A    between atoms: C_15  and  C_16
REMARK    8  A    between atoms: C_19  and  C_20
REMARK    9  A    between atoms: C_19  and  C_27
REMARK   10  A    between atoms: C_20  and  N_21
REMARK                            x       y       z     vdW  Elec       q    Type
REMARK                         _______ _______ _______ _____ _____    ______ ____
ROOT
ATOM      1  C   UNL     1      -6.568  -2.094 130.318  0.00  0.00    +0.000 C 
ATOM      2  C   UNL     1      -5.417  -2.863 129.657  0.00  0.00    +0.000 C 
ATOM      3  O   UNL     1      -5.303  -2.409 128.290  0.00  0.00    +0.000 OA
ATOM      4  C   UNL     1      -6.477  -1.629 128.019  0.00  0.00    +0.000 C 
ATOM      5  O   UNL     1      -7.387  -1.844 129.138  0.00  0.00    +0.000 OA
ENDROOT
BRANCH   4   6
ATOM      6  C   UNL     1      -7.233  -2.163 126.771  0.00  0.00    +0.000 A 
ATOM      7  C   UNL     1      -6.810  -2.094 125.409  0.00  0.00    +0.000 A 
ATOM      8 CL   UNL     1      -5.247  -1.672 124.769  0.00  0.00    +0.000 Cl
ATOM      9  C   UNL     1      -7.668  -2.448 124.366  0.00  0.00    +0.000 A 
ATOM     10  C   UNL     1      -8.912  -2.983 124.633  0.00  0.00    +0.000 A 
ATOM     11 CL   UNL     1      -9.872  -3.537 123.322  0.00  0.00    +0.000 Cl
ATOM     12  C   UNL     1      -9.347  -3.112 125.943  0.00  0.00    +0.000 A 
ATOM     13  C   UNL     1      -8.526  -2.695 126.998  0.00  0.00    +0.000 A 
ENDBRANCH   4   6
BRANCH   1  14
ATOM     14  C   UNL     1      -6.343  -0.684 130.907  0.00  0.00    +0.000 C 
BRANCH  14  15
ATOM     15  O   UNL     1      -7.122  -0.142 131.970  0.00  0.00    +0.000 OA
BRANCH  15  19
ATOM     16  C   UNL     1      -9.197   3.346 130.642  0.00  0.00    +0.000 A 
ATOM     17  C   UNL     1      -7.809   3.207 130.599  0.00  0.00    +0.000 A 
ATOM     18  C   UNL     1      -7.168   2.010 130.989  0.00  0.00    +0.000 A 
ATOM     19  C   UNL     1      -7.873   0.972 131.589  0.00  0.00    +0.000 A 
ATOM     20  C   UNL     1      -9.247   1.168 131.767  0.00  0.00    +0.000 A 
ATOM     21  C   UNL     1      -9.899   2.288 131.214  0.00  0.00    +0.000 A 
BRANCH  16  25
ATOM     22  N   UNL     1     -10.800   7.250 130.342  0.00  0.00    +0.000 NA
ATOM     23  C   UNL     1     -11.441   6.145 131.115  0.00  0.00    +0.000 C 
ATOM     24  C   UNL     1     -11.273   4.733 130.479  0.00  0.00    +0.000 C 
ATOM     25  N   UNL     1      -9.855   4.464 130.180  0.00  0.00    +0.000 N 
ATOM     26  C   UNL     1      -9.092   5.553 129.554  0.00  0.00    +0.000 C 
ATOM     27  C   UNL     1      -9.353   6.897 130.270  0.00  0.00    +0.000 C 
BRANCH  22  29
ATOM     28  C   UNL     1     -12.858   7.723 128.949  0.00  0.00    +0.000 C 
ATOM     29  C   UNL     1     -11.361   7.406 128.973  0.00  0.00    +0.000 C 
ATOM     30  C   UNL     1     -10.606   8.494 128.194  0.00  0.00    +0.000 C 
ENDBRANCH  22  29
ENDBRANCH  16  25
ENDBRANCH  15  19
ENDBRANCH  14  15
ENDBRANCH   1  14
BRANCH   4  31
ATOM     31  C   UNL     1      -6.045  -0.158 127.775  0.00  0.00    +0.000 C 
BRANCH  31  32
ATOM     32  N   UNL     1      -6.977   0.922 127.577  0.00  0.00    +0.000 N 
ATOM     33  C   UNL     1      -8.327   0.914 127.752  0.00  0.00    +0.000 A 
ATOM     34  N   UNL     1      -8.829   2.015 127.214  0.00  0.00    +0.000 NA
ATOM     35  C   UNL     1      -7.719   2.725 126.890  0.00  0.00    +0.000 A 
ATOM     36  N   UNL     1      -6.549   2.119 127.144  0.00  0.00    +0.000 NA
ENDBRANCH  31  32
ENDBRANCH   4  31
TORSDOF 8
ENDMDL
MODEL 2
REMARK VINA RESULT:      -7.9      2.528      3.580
REMARK  Name = Terconazole
REMARK  10 active torsions:
REMARK  status: ('A' for Active; 'I' for Inactive)
REMARK    1  A    between atoms: C_1  and  C_2
REMARK    2  A    between atoms: C_2  and  C_3
REMARK    3  A    between atoms: C_2  and  N_4
REMARK    4  A    between atoms: N_7  and  C_10
REMARK    5  A    between atoms: C_13  and  O_14
REMARK    6  A    between atoms: O_14  and  C_15
REMARK    7  A    between atoms: C_15  and  C_16
REMARK    8  A    between atoms: C_19  and  C_20
REMARK    9  A    between atoms: C_19  and  C_27
REMARK   10  A    between atoms: C_20  and  N_21
REMARK                            x       y       z     vdW  Elec       q    Type
REMARK                         _______ _______ _______ _____ _____    ______ ____
ROOT
ATOM      1  C   UNL     1      -7.869  -0.505 132.530  0.00  0.00    +0.000 C 
ATOM      2  C   UNL     1      -7.935  -2.026 132.716  0.00  0.00    +0.000 C 
ATOM      3  O   UNL     1      -7.182  -2.641 131.646  0.00  0.00    +0.000 OA
ATOM      4  C   UNL     1      -6.908  -1.604 130.692  0.00  0.00    +0.000 C 
ATOM      5  O   UNL     1      -7.718  -0.455 131.081  0.00  0.00    +0.000 OA
ENDROOT
BRANCH   4   6
ATOM      6  C   UNL     1      -7.411  -1.996 129.275  0.00  0.00    +0.000 A 
ATOM      7  C   UNL     1      -7.381  -1.192 128.095  0.00  0.00    +0.000 A 
ATOM      8 CL   UNL     1      -6.541   0.306 127.812  0.00  0.00    +0.000 Cl
ATOM      9  C   UNL     1      -8.032  -1.597 126.927  0.00  0.00    +0.000 A 
ATOM     10  C   UNL     1      -8.626  -2.840 126.851  0.00  0.00    +0.000 A 
ATOM     11 CL   UNL     1      -9.287  -3.351 125.351  0.00  0.00    +0.000 Cl
ATOM     12  C   UNL     1      -8.638  -3.674 127.959  0.00  0.00    +0.000 A 
ATOM     13  C   UNL     1      -8.052  -3.253 129.159  0.00  0.00    +0.000 A 
ENDBRANCH   4   6
BRANCH   1  14
ATOM     14  C   UNL     1      -6.660   0.304 133.047  0.00  0.00    +0.000 C 
BRANCH  14  15
ATOM     15  O   UNL     1      -6.773   1.586 133.660  0.00  0.00    +0.000 OA
BRANCH  15  19
ATOM     16  C   UNL     1      -9.154   4.220 131.287  0.00  0.00    +0.000 A 
ATOM     17  C   UNL     1      -7.823   3.912 131.003  0.00  0.00    +0.000 A 
ATOM     18  C   UNL     1      -7.092   2.984 131.779  0.00  0.00    +0.000 A 
ATOM     19  C   UNL     1      -7.608   2.458 132.958  0.00  0.00    +0.000 A 
ATOM     20  C   UNL     1      -8.891   2.880 133.323  0.00  0.00    +0.000 A 
ATOM     21  C   UNL     1      -9.675   3.663 132.452  0.00  0.00    +0.000 A 
BRANCH  16  25
ATOM     22  N   UNL     1     -11.214   7.595 129.780  0.00  0.00    +0.000 NA
ATOM     23  C   UNL     1     -11.753   6.698 130.845  0.00  0.00    +0.000 C 
ATOM     24  C   UNL     1     -11.375   5.196 130.675  0.00  0.00    +0.000 C 
ATOM     25  N   UNL     1      -9.920   5.046 130.494  0.00  0.00    +0.000 N 
ATOM     26  C   UNL     1      -9.265   5.989 129.577  0.00  0.00    +0.000 C 
ATOM     27  C   UNL     1      -9.732   7.437 129.842  0.00  0.00    +0.000 C 
BRANCH  22  29
ATOM     28  C   UNL     1     -13.234   7.328 128.282  0.00  0.00    +0.000 C 
ATOM     29  C   UNL     1     -11.712   7.253 128.421  0.00  0.00    +0.000 C 
ATOM     30  C   UNL     1     -11.067   8.156 127.359  0.00  0.00    +0.000 C 
ENDBRANCH  22  29
ENDBRANCH  16  25
ENDBRANCH  15  19
ENDBRANCH  14  15
ENDBRANCH   1  14
BRANCH   4  31
ATOM     31  C   UNL     1      -5.374  -1.365 130.652  0.00  0.00    +0.000 C 
BRANCH  31  32
ATOM     32  N   UNL     1      -4.424  -2.179 131.366  0.00  0.00    +0.000 N 
ATOM     33  C   UNL     1      -3.813  -3.322 130.951  0.00  0.00    +0.000 A 
ATOM     34  N   UNL     1      -3.226  -3.889 131.995  0.00  0.00    +0.000 NA
ATOM     35  C   UNL     1      -3.370  -2.953 132.966  0.00  0.00    +0.000 A 
ATOM     36  N   UNL     1      -4.054  -1.853 132.615  0.00  0.00    +0.000 NA
ENDBRANCH  31  32
ENDBRANCH   4  31
TORSDOF 8
ENDMDL
MODEL 3
REMARK VINA RESULT:      -7.7      2.194      3.407
REMARK  Name = Terconazole
REMARK  10 active torsions:
REMARK  status: ('A' for Active; 'I' for Inactive)
REMARK    1  A    between atoms: C_1  and  C_2
REMARK    2  A    between atoms: C_2  and  C_3
REMARK    3  A    between atoms: C_2  and  N_4
REMARK    4  A    between atoms: N_7  and  C_10
REMARK    5  A    between atoms: C_13  and  O_14
REMARK    6  A    between atoms: O_14  and  C_15
REMARK    7  A    between atoms: C_15  and  C_16
REMARK    8  A    between atoms: C_19  and  C_20
REMARK    9  A    between atoms: C_19  and  C_27
REMARK   10  A    between atoms: C_20  and  N_21
REMARK                            x       y       z     vdW  Elec       q    Type
REMARK                         _______ _______ _______ _____ _____    ______ ____
ROOT
ATOM      1  C   UNL     1      -7.897   0.383 130.325  0.00  0.00    +0.000 C 
ATOM      2  C   UNL     1      -8.064  -1.077 130.765  0.00  0.00    +0.000 C 
ATOM      3  O   UNL     1      -7.476  -1.920 129.748  0.00  0.00    +0.000 OA
ATOM      4  C   UNL     1      -7.221  -1.076 128.616  0.00  0.00    +0.000 C 
ATOM      5  O   UNL     1      -7.893   0.191 128.880  0.00  0.00    +0.000 OA
ENDROOT
BRANCH   4   6
ATOM      6  C   UNL     1      -7.896  -1.635 127.333  0.00  0.00    +0.000 A 
ATOM      7  C   UNL     1      -8.515  -2.911 127.168  0.00  0.00    +0.000 A 
ATOM      8 CL   UNL     1      -8.954  -4.080 128.381  0.00  0.00    +0.000 Cl
ATOM      9  C   UNL     1      -8.923  -3.360 125.910  0.00  0.00    +0.000 A 
ATOM     10  C   UNL     1      -8.839  -2.532 124.809  0.00  0.00    +0.000 A 
ATOM     11 CL   UNL     1      -9.484  -3.076 123.314  0.00  0.00    +0.000 Cl
ATOM     12  C   UNL     1      -8.287  -1.267 124.931  0.00  0.00    +0.000 A 
ATOM     13  C   UNL     1      -7.808  -0.828 126.172  0.00  0.00    +0.000 A 
ENDBRANCH   4   6
BRANCH   1  14
ATOM     14  C   UNL     1      -6.581   1.145 130.592  0.00  0.00    +0.000 C 
BRANCH  14  15
ATOM     15  O   UNL     1      -6.188   2.313 129.876  0.00  0.00    +0.000 OA
BRANCH  15  19
ATOM     16  C   UNL     1      -9.158   5.380 129.757  0.00  0.00    +0.000 A 
ATOM     17  C   UNL     1      -8.541   4.854 128.621  0.00  0.00    +0.000 A 
ATOM     18  C   UNL     1      -7.610   3.794 128.702  0.00  0.00    +0.000 A 
ATOM     19  C   UNL     1      -7.139   3.334 129.927  0.00  0.00    +0.000 A 
ATOM     20  C   UNL     1      -7.649   3.961 131.070  0.00  0.00    +0.000 A 
ATOM     21  C   UNL     1      -8.705   4.890 130.980  0.00  0.00    +0.000 A 
BRANCH  16  25
ATOM     22  N   UNL     1     -12.903   7.342 129.898  0.00  0.00    +0.000 NA
ATOM     23  C   UNL     1     -12.423   6.550 128.727  0.00  0.00    +0.000 C 
ATOM     24  C   UNL     1     -10.890   6.647 128.470  0.00  0.00    +0.000 C 
ATOM     25  N   UNL     1     -10.138   6.346 129.702  0.00  0.00    +0.000 N 
ATOM     26  C   UNL     1     -10.628   6.959 130.944  0.00  0.00    +0.000 C 
ATOM     27  C   UNL     1     -12.160   6.804 131.073  0.00  0.00    +0.000 C 
BRANCH  22  29
ATOM     28  C   UNL     1     -13.319   9.426 128.527  0.00  0.00    +0.000 C 
ATOM     29  C   UNL     1     -12.657   8.802 129.757  0.00  0.00    +0.000 C 
ATOM     30  C   UNL     1     -13.117   9.558 131.012  0.00  0.00    +0.000 C 
ENDBRANCH  22  29
ENDBRANCH  16  25
ENDBRANCH  15  19
ENDBRANCH  14  15
ENDBRANCH   1  14
BRANCH   4  31
ATOM     31  C   UNL     1      -5.685  -0.992 128.400  0.00  0.00    +0.000 C 
BRANCH  31  32
ATOM     32  N   UNL     1      -4.740  -1.837 129.084  0.00  0.00    +0.000 N 
ATOM     33  C   UNL     1      -4.017  -1.560 130.204  0.00  0.00    +0.000 A 
ATOM     34  N   UNL     1      -3.085  -2.490 130.345  0.00  0.00    +0.000 NA
ATOM     35  C   UNL     1      -3.410  -3.391 129.384  0.00  0.00    +0.000 A 
ATOM     36  N   UNL     1      -4.458  -3.062 128.612  0.00  0.00    +0.000 NA
ENDBRANCH  31  32
ENDBRANCH   4  31
TORSDOF 8
ENDMDL
MODEL 4
REMARK VINA RESULT:      -7.6      3.775      5.998
REMARK  Name = Terconazole
REMARK  10 active torsions:
REMARK  status: ('A' for Active; 'I' for Inactive)
REMARK    1  A    between atoms: C_1  and  C_2
REMARK    2  A    between atoms: C_2  and  C_3
REMARK    3  A    between atoms: C_2  and  N_4
REMARK    4  A    between atoms: N_7  and  C_10
REMARK    5  A    between atoms: C_13  and  O_14
REMARK    6  A    between atoms: O_14  and  C_15
REMARK    7  A    between atoms: C_15  and  C_16
REMARK    8  A    between atoms: C_19  and  C_20
REMARK    9  A    between atoms: C_19  and  C_27
REMARK   10  A    between atoms: C_20  and  N_21
REMARK                            x       y       z     vdW  Elec       q    Type
REMARK                         _______ _______ _______ _____ _____    ______ ____
ROOT
ATOM      1  C   UNL     1      -8.604   1.854 123.592  0.00  0.00    +0.000 C 
ATOM      2  C   UNL     1      -9.641   0.922 122.953  0.00  0.00    +0.000 C 
ATOM      3  O   UNL     1      -9.612  -0.335 123.666  0.00  0.00    +0.000 OA
ATOM      4  C   UNL     1      -8.444  -0.304 124.500  0.00  0.00    +0.000 C 
ATOM      5  O   UNL     1      -7.663   0.853 124.080  0.00  0.00    +0.000 OA
ENDROOT
BRANCH   4   6
ATOM      6  C   UNL     1      -7.529  -1.531 124.232  0.00  0.00    +0.000 A 
ATOM      7  C   UNL     1      -7.907  -2.908 124.229  0.00  0.00    +0.000 A 
ATOM      8 CL   UNL     1      -9.503  -3.605 124.233  0.00  0.00    +0.000 Cl
ATOM      9  C   UNL     1      -6.949  -3.922 124.155  0.00  0.00    +0.000 A 
ATOM     10  C   UNL     1      -5.617  -3.615 123.967  0.00  0.00    +0.000 A 
ATOM     11 CL   UNL     1      -4.497  -4.895 123.738  0.00  0.00    +0.000 Cl
ATOM     12  C   UNL     1      -5.209  -2.291 123.917  0.00  0.00    +0.000 A 
ATOM     13  C   UNL     1      -6.148  -1.262 124.061  0.00  0.00    +0.000 A 
ENDBRANCH   4   6
BRANCH   1  14
ATOM     14  C   UNL     1      -8.947   2.673 124.855  0.00  0.00    +0.000 C 
BRANCH  14  15
ATOM     15  O   UNL     1      -8.496   4.007 125.076  0.00  0.00    +0.000 OA
BRANCH  15  19
ATOM     16  C   UNL     1      -5.835   4.546 128.372  0.00  0.00    +0.000 A 
ATOM     17  C   UNL     1      -5.453   4.685 127.037  0.00  0.00    +0.000 A 
ATOM     18  C   UNL     1      -6.382   4.562 125.980  0.00  0.00    +0.000 A 
ATOM     19  C   UNL     1      -7.685   4.133 126.205  0.00  0.00    +0.000 A 
ATOM     20  C   UNL     1      -8.031   3.851 127.532  0.00  0.00    +0.000 A 
ATOM     21  C   UNL     1      -7.152   4.148 128.592  0.00  0.00    +0.000 A 
BRANCH  16  25
ATOM     22  N   UNL     1      -2.703   6.045 130.790  0.00  0.00    +0.000 NA
ATOM     23  C   UNL     1      -2.513   5.012 129.728  0.00  0.00    +0.000 C 
ATOM     24  C   UNL     1      -3.705   4.020 129.575  0.00  0.00    +0.000 C 
ATOM     25  N   UNL     1      -4.974   4.755 129.426  0.00  0.00    +0.000 N 
ATOM     26  C   UNL     1      -5.189   5.894 130.329  0.00  0.00    +0.000 C 
ATOM     27  C   UNL     1      -3.934   6.791 130.401  0.00  0.00    +0.000 C 
BRANCH  22  29
ATOM     28  C   UNL     1      -1.690   4.579 132.585  0.00  0.00    +0.000 C 
ATOM     29  C   UNL     1      -2.861   5.463 132.149  0.00  0.00    +0.000 C 
ATOM     30  C   UNL     1      -3.071   6.568 133.195  0.00  0.00    +0.000 C 
ENDBRANCH  22  29
ENDBRANCH  16  25
ENDBRANCH  15  19
ENDBRANCH  14  15
ENDBRANCH   1  14
BRANCH   4  31
ATOM     31  C   UNL     1      -8.899  -0.310 125.984  0.00  0.00    +0.000 C 
BRANCH  31  32
ATOM     32  N   UNL     1      -8.002  -0.531 127.089  0.00  0.00    +0.000 N 
ATOM     33  C   UNL     1      -7.110   0.337 127.638  0.00  0.00    +0.000 A 
ATOM     34  N   UNL     1      -6.308  -0.338 128.449  0.00  0.00    +0.000 NA
ATOM     35  C   UNL     1      -6.879  -1.568 128.480  0.00  0.00    +0.000 A 
ATOM     36  N   UNL     1      -7.960  -1.726 127.701  0.00  0.00    +0.000 NA
ENDBRANCH  31  32
ENDBRANCH   4  31
TORSDOF 8
ENDMDL
MODEL 5
REMARK VINA RESULT:      -7.6      1.928      2.574
REMARK  Name = Terconazole
REMARK  10 active torsions:
REMARK  status: ('A' for Active; 'I' for Inactive)
REMARK    1  A    between atoms: C_1  and  C_2
REMARK    2  A    between atoms: C_2  and  C_3
REMARK    3  A    between atoms: C_2  and  N_4
REMARK    4  A    between atoms: N_7  and  C_10
REMARK    5  A    between atoms: C_13  and  O_14
REMARK    6  A    between atoms: O_14  and  C_15
REMARK    7  A    between atoms: C_15  and  C_16
REMARK    8  A    between atoms: C_19  and  C_20
REMARK    9  A    between atoms: C_19  and  C_27
REMARK   10  A    between atoms: C_20  and  N_21
REMARK                            x       y       z     vdW  Elec       q    Type
REMARK                         _______ _______ _______ _____ _____    ______ ____
ROOT
ATOM      1  C   UNL     1      -6.963  -0.717 131.453  0.00  0.00    +0.000 C 
ATOM      2  C   UNL     1      -5.695  -1.200 130.738  0.00  0.00    +0.000 C 
ATOM      3  O   UNL     1      -5.786  -0.805 129.351  0.00  0.00    +0.000 OA
ATOM      4  C   UNL     1      -7.137  -0.367 129.140  0.00  0.00    +0.000 C 
ATOM      5  O   UNL     1      -7.889  -0.749 130.329  0.00  0.00    +0.000 OA
ENDROOT
BRANCH   4   6
ATOM      6  C   UNL     1      -7.804  -1.141 127.969  0.00  0.00    +0.000 A 
ATOM      7  C   UNL     1      -8.000  -2.552 127.867  0.00  0.00    +0.000 A 
ATOM      8 CL   UNL     1      -7.827  -3.773 129.096  0.00  0.00    +0.000 Cl
ATOM      9  C   UNL     1      -8.449  -3.136 126.680  0.00  0.00    +0.000 A 
ATOM     10  C   UNL     1      -8.823  -2.350 125.610  0.00  0.00    +0.000 A 
ATOM     11 CL   UNL     1      -9.503  -3.105 124.227  0.00  0.00    +0.000 Cl
ATOM     12  C   UNL     1      -8.694  -0.972 125.681  0.00  0.00    +0.000 A 
ATOM     13  C   UNL     1      -8.178  -0.375 126.839  0.00  0.00    +0.000 A 
ENDBRANCH   4   6
BRANCH   1  14
ATOM     14  C   UNL     1      -7.075   0.732 131.974  0.00  0.00    +0.000 C 
BRANCH  14  15
ATOM     15  O   UNL     1      -8.143   1.192 132.798  0.00  0.00    +0.000 OA
BRANCH  15  19
ATOM     16  C   UNL     1     -10.075   4.681 131.272  0.00  0.00    +0.000 A 
ATOM     17  C   UNL     1     -10.195   3.415 130.697  0.00  0.00    +0.000 A 
ATOM     18  C   UNL     1      -9.590   2.275 131.273  0.00  0.00    +0.000 A 
ATOM     19  C   UNL     1      -8.712   2.384 132.345  0.00  0.00    +0.000 A 
ATOM     20  C   UNL     1      -8.476   3.674 132.833  0.00  0.00    +0.000 A 
ATOM     21  C   UNL     1      -9.219   4.776 132.367  0.00  0.00    +0.000 A 
BRANCH  16  25
ATOM     22  N   UNL     1     -13.110   7.358 130.037  0.00  0.00    +0.000 NA
ATOM     23  C   UNL     1     -12.591   6.242 129.192  0.00  0.00    +0.000 C 
ATOM     24  C   UNL     1     -11.069   5.958 129.363  0.00  0.00    +0.000 C 
ATOM     25  N   UNL     1     -10.730   5.792 130.788  0.00  0.00    +0.000 N 
ATOM     26  C   UNL     1     -11.321   6.757 131.726  0.00  0.00    +0.000 C 
ATOM     27  C   UNL     1     -12.826   6.956 131.444  0.00  0.00    +0.000 C 
BRANCH  22  29
ATOM     28  C   UNL     1     -12.405   8.996 128.243  0.00  0.00    +0.000 C 
ATOM     29  C   UNL     1     -12.467   8.665 129.735  0.00  0.00    +0.000 C 
ATOM     30  C   UNL     1     -13.180   9.808 130.473  0.00  0.00    +0.000 C 
ENDBRANCH  22  29
ENDBRANCH  16  25
ENDBRANCH  15  19
ENDBRANCH  14  15
ENDBRANCH   1  14
BRANCH   4  31
ATOM     31  C   UNL     1      -7.116   1.151 128.812  0.00  0.00    +0.000 C 
BRANCH  31  32
ATOM     32  N   UNL     1      -5.908   1.894 128.563  0.00  0.00    +0.000 N 
ATOM     33  C   UNL     1      -5.127   2.559 129.458  0.00  0.00    +0.000 A 
ATOM     34  N   UNL     1      -4.273   3.319 128.789  0.00  0.00    +0.000 NA
ATOM     35  C   UNL     1      -4.470   2.934 127.504  0.00  0.00    +0.000 A 
ATOM     36  N   UNL     1      -5.431   2.016 127.315  0.00  0.00    +0.000 NA
ENDBRANCH  31  32
ENDBRANCH   4  31
TORSDOF 8
ENDMDL
MODEL 6
REMARK VINA RESULT:      -7.5      3.942      8.726
REMARK  Name = Terconazole
REMARK  10 active torsions:
REMARK  status: ('A' for Active; 'I' for Inactive)
REMARK    1  A    between atoms: C_1  and  C_2
REMARK    2  A    between atoms: C_2  and  C_3
REMARK    3  A    between atoms: C_2  and  N_4
REMARK    4  A    between atoms: N_7  and  C_10
REMARK    5  A    between atoms: C_13  and  O_14
REMARK    6  A    between atoms: O_14  and  C_15
REMARK    7  A    between atoms: C_15  and  C_16
REMARK    8  A    between atoms: C_19  and  C_20
REMARK    9  A    between atoms: C_19  and  C_27
REMARK   10  A    between atoms: C_20  and  N_21
REMARK                            x       y       z     vdW  Elec       q    Type
REMARK                         _______ _______ _______ _____ _____    ______ ____
ROOT
ATOM      1  C   UNL     1      -9.101   4.133 131.754  0.00  0.00    +0.000 C 
ATOM      2  C   UNL     1     -10.156   3.437 130.885  0.00  0.00    +0.000 C 
ATOM      3  O   UNL     1     -10.345   4.230 129.691  0.00  0.00    +0.000 OA
ATOM      4  C   UNL     1      -9.680   5.480 129.922  0.00  0.00    +0.000 C 
ATOM      5  O   UNL     1      -9.329   5.511 131.337  0.00  0.00    +0.000 OA
ENDROOT
BRANCH   4   6
ATOM      6  C   UNL     1     -10.646   6.680 129.717  0.00  0.00    +0.000 A 
ATOM      7  C   UNL     1     -11.700   7.099 130.584  0.00  0.00    +0.000 A 
ATOM      8 CL   UNL     1     -12.034   6.603 132.220  0.00  0.00    +0.000 Cl
ATOM      9  C   UNL     1     -12.612   8.082 130.193  0.00  0.00    +0.000 A 
ATOM     10  C   UNL     1     -12.449   8.754 128.999  0.00  0.00    +0.000 A 
ATOM     11 CL   UNL     1     -13.510  10.050 128.627  0.00  0.00    +0.000 Cl
ATOM     12  C   UNL     1     -11.412   8.412 128.145  0.00  0.00    +0.000 A 
ATOM     13  C   UNL     1     -10.530   7.380 128.491  0.00  0.00    +0.000 A 
ENDBRANCH   4   6
BRANCH   1  14
ATOM     14  C   UNL     1      -7.594   3.921 131.492  0.00  0.00    +0.000 C 
BRANCH  14  15
ATOM     15  O   UNL     1      -6.894   2.729 131.840  0.00  0.00    +0.000 OA
BRANCH  15  19
ATOM     16  C   UNL     1      -6.821  -0.045 128.594  0.00  0.00    +0.000 A 
ATOM     17  C   UNL     1      -7.883   0.070 129.491  0.00  0.00    +0.000 A 
ATOM     18  C   UNL     1      -7.894   1.047 130.512  0.00  0.00    +0.000 A 
ATOM     19  C   UNL     1      -6.777   1.831 130.778  0.00  0.00    +0.000 A 
ATOM     20  C   UNL     1      -5.654   1.616 129.970  0.00  0.00    +0.000 A 
ATOM     21  C   UNL     1      -5.718   0.768 128.847  0.00  0.00    +0.000 A 
BRANCH  16  25
ATOM     22  N   UNL     1      -6.782  -1.636 124.674  0.00  0.00    +0.000 NA
ATOM     23  C   UNL     1      -8.007  -1.108 125.345  0.00  0.00    +0.000 C 
ATOM     24  C   UNL     1      -8.066  -1.375 126.879  0.00  0.00    +0.000 C 
ATOM     25  N   UNL     1      -6.825  -0.921 127.532  0.00  0.00    +0.000 N 
ATOM     26  C   UNL     1      -5.561  -1.260 126.862  0.00  0.00    +0.000 C 
ATOM     27  C   UNL     1      -5.637  -0.959 125.349  0.00  0.00    +0.000 C 
BRANCH  22  29
ATOM     28  C   UNL     1      -7.893  -3.884 124.350  0.00  0.00    +0.000 C 
ATOM     29  C   UNL     1      -6.646  -3.113 124.785  0.00  0.00    +0.000 C 
ATOM     30  C   UNL     1      -5.440  -3.613 123.976  0.00  0.00    +0.000 C 
ENDBRANCH  22  29
ENDBRANCH  16  25
ENDBRANCH  15  19
ENDBRANCH  14  15
ENDBRANCH   1  14
BRANCH   4  31
ATOM     31  C   UNL     1      -8.491   5.596 128.930  0.00  0.00    +0.000 C 
BRANCH  31  32
ATOM     32  N   UNL     1      -8.342   4.760 127.767  0.00  0.00    +0.000 N 
ATOM     33  C   UNL     1      -7.891   3.478 127.702  0.00  0.00    +0.000 A 
ATOM     34  N   UNL     1      -7.663   3.174 126.432  0.00  0.00    +0.000 NA
ATOM     35  C   UNL     1      -8.162   4.250 125.772  0.00  0.00    +0.000 A 
ATOM     36  N   UNL     1      -8.643   5.234 126.547  0.00  0.00    +0.000 NA
ENDBRANCH  31  32
ENDBRANCH   4  31
TORSDOF 8
ENDMDL
MODEL 7
REMARK VINA RESULT:      -7.5      3.638      7.615
REMARK  Name = Terconazole
REMARK  10 active torsions:
REMARK  status: ('A' for Active; 'I' for Inactive)
REMARK    1  A    between atoms: C_1  and  C_2
REMARK    2  A    between atoms: C_2  and  C_3
REMARK    3  A    between atoms: C_2  and  N_4
REMARK    4  A    between atoms: N_7  and  C_10
REMARK    5  A    between atoms: C_13  and  O_14
REMARK    6  A    between atoms: O_14  and  C_15
REMARK    7  A    between atoms: C_15  and  C_16
REMARK    8  A    between atoms: C_19  and  C_20
REMARK    9  A    between atoms: C_19  and  C_27
REMARK   10  A    between atoms: C_20  and  N_21
REMARK                            x       y       z     vdW  Elec       q    Type
REMARK                         _______ _______ _______ _____ _____    ______ ____
ROOT
ATOM      1  C   UNL     1      -3.727  -0.555 132.749  0.00  0.00    +0.000 C 
ATOM      2  C   UNL     1      -3.772   0.642 133.707  0.00  0.00    +0.000 C 
ATOM      3  O   UNL     1      -4.552   1.686 133.082  0.00  0.00    +0.000 OA
ATOM      4  C   UNL     1      -4.739   1.293 131.715  0.00  0.00    +0.000 C 
ATOM      5  O   UNL     1      -3.855   0.157 131.483  0.00  0.00    +0.000 OA
ENDROOT
BRANCH   4   6
ATOM      6  C   UNL     1      -4.246   2.398 130.739  0.00  0.00    +0.000 A 
ATOM      7  C   UNL     1      -4.196   2.332 129.313  0.00  0.00    +0.000 A 
ATOM      8 CL   UNL     1      -4.915   1.159 128.246  0.00  0.00    +0.000 Cl
ATOM      9  C   UNL     1      -3.561   3.326 128.565  0.00  0.00    +0.000 A 
ATOM     10  C   UNL     1      -3.064   4.456 129.180  0.00  0.00    +0.000 A 
ATOM     11 CL   UNL     1      -2.421   5.714 128.205  0.00  0.00    +0.000 Cl
ATOM     12  C   UNL     1      -3.132   4.584 130.559  0.00  0.00    +0.000 A 
ATOM     13  C   UNL     1      -3.702   3.564 131.330  0.00  0.00    +0.000 A 
ENDBRANCH   4   6
BRANCH   1  14
ATOM     14  C   UNL     1      -4.883  -1.578 132.706  0.00  0.00    +0.000 C 
BRANCH  14  15
ATOM     15  O   UNL     1      -4.817  -2.811 131.993  0.00  0.00    +0.000 OA
BRANCH  15  19
ATOM     16  C   UNL     1      -6.723  -2.504 128.184  0.00  0.00    +0.000 A 
ATOM     17  C   UNL     1      -7.411  -2.717 129.379  0.00  0.00    +0.000 A 
ATOM     18  C   UNL     1      -6.746  -2.747 130.626  0.00  0.00    +0.000 A 
ATOM     19  C   UNL     1      -5.358  -2.732 130.708  0.00  0.00    +0.000 A 
ATOM     20  C   UNL     1      -4.660  -2.665 129.497  0.00  0.00    +0.000 A 
ATOM     21  C   UNL     1      -5.335  -2.456 128.278  0.00  0.00    +0.000 A 
BRANCH  16  25
ATOM     22  N   UNL     1      -9.599  -1.659 125.197  0.00  0.00    +0.000 NA
ATOM     23  C   UNL     1      -9.605  -2.897 126.031  0.00  0.00    +0.000 C 
ATOM     24  C   UNL     1      -8.189  -3.442 126.385  0.00  0.00    +0.000 C 
ATOM     25  N   UNL     1      -7.354  -2.375 126.966  0.00  0.00    +0.000 N 
ATOM     26  C   UNL     1      -7.399  -1.064 126.304  0.00  0.00    +0.000 C 
ATOM     27  C   UNL     1      -8.854  -0.645 125.999  0.00  0.00    +0.000 C 
BRANCH  22  29
ATOM     28  C   UNL     1      -9.343  -3.149 123.170  0.00  0.00    +0.000 C 
ATOM     29  C   UNL     1      -8.948  -1.849 123.874  0.00  0.00    +0.000 C 
ATOM     30  C   UNL     1      -9.246  -0.664 122.943  0.00  0.00    +0.000 C 
ENDBRANCH  22  29
ENDBRANCH  16  25
ENDBRANCH  15  19
ENDBRANCH  14  15
ENDBRANCH   1  14
BRANCH   4  31
ATOM     31  C   UNL     1      -6.251   1.030 131.480  0.00  0.00    +0.000 C 
BRANCH  31  32
ATOM     32  N   UNL     1      -7.293   1.905 131.954  0.00  0.00    +0.000 N 
ATOM     33  C   UNL     1      -7.736   3.066 131.400  0.00  0.00    +0.000 A 
ATOM     34  N   UNL     1      -8.510   3.685 132.280  0.00  0.00    +0.000 NA
ATOM     35  C   UNL     1      -8.636   2.765 133.269  0.00  0.00    +0.000 A 
ATOM     36  N   UNL     1      -7.949   1.626 133.092  0.00  0.00    +0.000 NA
ENDBRANCH  31  32
ENDBRANCH   4  31
TORSDOF 8
ENDMDL
MODEL 8
REMARK VINA RESULT:      -7.5      5.776      7.463
REMARK  Name = Terconazole
REMARK  10 active torsions:
REMARK  status: ('A' for Active; 'I' for Inactive)
REMARK    1  A    between atoms: C_1  and  C_2
REMARK    2  A    between atoms: C_2  and  C_3
REMARK    3  A    between atoms: C_2  and  N_4
REMARK    4  A    between atoms: N_7  and  C_10
REMARK    5  A    between atoms: C_13  and  O_14
REMARK    6  A    between atoms: O_14  and  C_15
REMARK    7  A    between atoms: C_15  and  C_16
REMARK    8  A    between atoms: C_19  and  C_20
REMARK    9  A    between atoms: C_19  and  C_27
REMARK   10  A    between atoms: C_20  and  N_21
REMARK                            x       y       z     vdW  Elec       q    Type
REMARK                         _______ _______ _______ _____ _____    ______ ____
ROOT
ATOM      1  C   UNL     1      -6.028   3.526 126.366  0.00  0.00    +0.000 C 
ATOM      2  C   UNL     1      -7.506   3.850 126.112  0.00  0.00    +0.000 C 
ATOM      3  O   UNL     1      -7.873   3.289 124.832  0.00  0.00    +0.000 OA
ATOM      4  C   UNL     1      -6.650   2.896 124.193  0.00  0.00    +0.000 C 
ATOM      5  O   UNL     1      -5.565   3.462 124.986  0.00  0.00    +0.000 OA
ENDROOT
BRANCH   4   6
ATOM      6  C   UNL     1      -6.512   3.550 122.789  0.00  0.00    +0.000 A 
ATOM      7  C   UNL     1      -7.436   3.469 121.704  0.00  0.00    +0.000 A 
ATOM      8 CL   UNL     1      -9.076   2.884 121.703  0.00  0.00    +0.000 Cl
ATOM      9  C   UNL     1      -7.105   3.952 120.435  0.00  0.00    +0.000 A 
ATOM     10  C   UNL     1      -5.918   4.622 120.228  0.00  0.00    +0.000 A 
ATOM     11 CL   UNL     1      -5.621   5.321 118.689  0.00  0.00    +0.000 Cl
ATOM     12  C   UNL     1      -5.009   4.765 121.265  0.00  0.00    +0.000 A 
ATOM     13  C   UNL     1      -5.295   4.225 122.526  0.00  0.00    +0.000 A 
ENDBRANCH   4   6
BRANCH   1  14
ATOM     14  C   UNL     1      -5.606   2.162 126.953  0.00  0.00    +0.000 C 
BRANCH  14  15
ATOM     15  O   UNL     1      -4.338   1.923 127.558  0.00  0.00    +0.000 OA
BRANCH  15  19
ATOM     16  C   UNL     1      -3.255   4.875 130.448  0.00  0.00    +0.000 A 
ATOM     17  C   UNL     1      -4.254   3.922 130.650  0.00  0.00    +0.000 A 
ATOM     18  C   UNL     1      -4.535   2.922 129.693  0.00  0.00    +0.000 A 
ATOM     19  C   UNL     1      -3.947   2.938 128.433  0.00  0.00    +0.000 A 
ATOM     20  C   UNL     1      -3.051   3.982 128.174  0.00  0.00    +0.000 A 
ATOM     21  C   UNL     1      -2.646   4.864 129.195  0.00  0.00    +0.000 A 
BRANCH  16  25
ATOM     22  N   UNL     1      -1.304   6.796 133.673  0.00  0.00    +0.000 NA
ATOM     23  C   UNL     1      -2.384   5.779 133.841  0.00  0.00    +0.000 C 
ATOM     24  C   UNL     1      -3.493   5.831 132.748  0.00  0.00    +0.000 C 
ATOM     25  N   UNL     1      -2.894   5.801 131.401  0.00  0.00    +0.000 N 
ATOM     26  C   UNL     1      -1.721   6.658 131.178  0.00  0.00    +0.000 C 
ATOM     27  C   UNL     1      -0.706   6.522 132.334  0.00  0.00    +0.000 C 
BRANCH  22  29
ATOM     28  C   UNL     1      -2.580   8.517 135.016  0.00  0.00    +0.000 C 
ATOM     29  C   UNL     1      -1.804   8.195 133.738  0.00  0.00    +0.000 C 
ATOM     30  C   UNL     1      -0.648   9.196 133.588  0.00  0.00    +0.000 C 
ENDBRANCH  22  29
ENDBRANCH  16  25
ENDBRANCH  15  19
ENDBRANCH  14  15
ENDBRANCH   1  14
BRANCH   4  31
ATOM     31  C   UNL     1      -6.644   1.350 124.048  0.00  0.00    +0.000 C 
BRANCH  31  32
ATOM     32  N   UNL     1      -7.734   0.508 124.469  0.00  0.00    +0.000 N 
ATOM     33  C   UNL     1      -8.926   0.299 123.847  0.00  0.00    +0.000 A 
ATOM     34  N   UNL     1      -9.736  -0.327 124.688  0.00  0.00    +0.000 NA
ATOM     35  C   UNL     1      -8.919  -0.622 125.730  0.00  0.00    +0.000 A 
ATOM     36  N   UNL     1      -7.657  -0.177 125.621  0.00  0.00    +0.000 NA
ENDBRANCH  31  32
ENDBRANCH   4  31
TORSDOF 8
ENDMDL
MODEL 9
REMARK VINA RESULT:      -7.4      4.868      9.276
REMARK  Name = Terconazole
REMARK  10 active torsions:
REMARK  status: ('A' for Active; 'I' for Inactive)
REMARK    1  A    between atoms: C_1  and  C_2
REMARK    2  A    between atoms: C_2  and  C_3
REMARK    3  A    between atoms: C_2  and  N_4
REMARK    4  A    between atoms: N_7  and  C_10
REMARK    5  A    between atoms: C_13  and  O_14
REMARK    6  A    between atoms: O_14  and  C_15
REMARK    7  A    between atoms: C_15  and  C_16
REMARK    8  A    between atoms: C_19  and  C_20
REMARK    9  A    between atoms: C_19  and  C_27
REMARK   10  A    between atoms: C_20  and  N_21
REMARK                            x       y       z     vdW  Elec       q    Type
REMARK                         _______ _______ _______ _____ _____    ______ ____
ROOT
ATOM      1  C   UNL     1      -9.039   6.297 131.955  0.00  0.00    +0.000 C 
ATOM      2  C   UNL     1      -8.715   7.156 130.726  0.00  0.00    +0.000 C 
ATOM      3  O   UNL     1      -7.430   6.738 130.215  0.00  0.00    +0.000 OA
ATOM      4  C   UNL     1      -6.851   5.885 131.214  0.00  0.00    +0.000 C 
ATOM      5  O   UNL     1      -7.682   6.016 132.405  0.00  0.00    +0.000 OA
ENDROOT
BRANCH   4   6
ATOM      6  C   UNL     1      -5.445   6.391 131.641  0.00  0.00    +0.000 A 
ATOM      7  C   UNL     1      -4.759   6.111 132.862  0.00  0.00    +0.000 A 
ATOM      8 CL   UNL     1      -5.136   4.926 134.081  0.00  0.00    +0.000 Cl
ATOM      9  C   UNL     1      -3.579   6.776 133.198  0.00  0.00    +0.000 A 
ATOM     10  C   UNL     1      -2.983   7.643 132.304  0.00  0.00    +0.000 A 
ATOM     11 CL   UNL     1      -1.461   8.326 132.704  0.00  0.00    +0.000 Cl
ATOM     12  C   UNL     1      -3.590   7.911 131.087  0.00  0.00    +0.000 A 
ATOM     13  C   UNL     1      -4.811   7.305 130.764  0.00  0.00    +0.000 A 
ENDBRANCH   4   6
BRANCH   1  14
ATOM     14  C   UNL     1      -9.665   4.894 131.798  0.00  0.00    +0.000 C 
BRANCH  14  15
ATOM     15  O   UNL     1      -9.898   4.009 132.890  0.00  0.00    +0.000 OA
BRANCH  15  19
ATOM     16  C   UNL     1      -7.921   0.262 132.348  0.00  0.00    +0.000 A 
ATOM     17  C   UNL     1      -9.221   0.522 131.913  0.00  0.00    +0.000 A 
ATOM     18  C   UNL     1      -9.814   1.797 132.055  0.00  0.00    +0.000 A 
ATOM     19  C   UNL     1      -9.194   2.808 132.783  0.00  0.00    +0.000 A 
ATOM     20  C   UNL     1      -7.950   2.501 133.346  0.00  0.00    +0.000 A 
ATOM     21  C   UNL     1      -7.294   1.291 133.046  0.00  0.00    +0.000 A 
BRANCH  16  25
ATOM     22  N   UNL     1      -5.000  -2.797 132.260  0.00  0.00    +0.000 NA
ATOM     23  C   UNL     1      -5.072  -1.687 131.264  0.00  0.00    +0.000 C 
ATOM     24  C   UNL     1      -6.519  -1.232 130.911  0.00  0.00    +0.000 C 
ATOM     25  N   UNL     1      -7.284  -0.941 132.137  0.00  0.00    +0.000 N 
ATOM     26  C   UNL     1      -7.157  -1.902 133.242  0.00  0.00    +0.000 C 
ATOM     27  C   UNL     1      -5.678  -2.278 133.483  0.00  0.00    +0.000 C 
BRANCH  22  29
ATOM     28  C   UNL     1      -5.208  -4.506 130.407  0.00  0.00    +0.000 C 
ATOM     29  C   UNL     1      -5.662  -4.044 131.794  0.00  0.00    +0.000 C 
ATOM     30  C   UNL     1      -5.447  -5.186 132.798  0.00  0.00    +0.000 C 
ENDBRANCH  22  29
ENDBRANCH  16  25
ENDBRANCH  15  19
ENDBRANCH  14  15
ENDBRANCH   1  14
BRANCH   4  31
ATOM     31  C   UNL     1      -6.731   4.452 130.628  0.00  0.00    +0.000 C 
BRANCH  31  32
ATOM     32  N   UNL     1      -7.150   4.101 129.296  0.00  0.00    +0.000 N 
ATOM     33  C   UNL     1      -8.241   3.380 128.918  0.00  0.00    +0.000 A 
ATOM     34  N   UNL     1      -8.114   3.064 127.637  0.00  0.00    +0.000 NA
ATOM     35  C   UNL     1      -7.020   3.771 127.260  0.00  0.00    +0.000 A 
ATOM     36  N   UNL     1      -6.418   4.472 128.233  0.00  0.00    +0.000 NA
ENDBRANCH  31  32
ENDBRANCH   4  31
TORSDOF 8
ENDMDL
