MODEL 1
REMARK VINA RESULT:      -9.4      0.000      0.000
REMARK  Name = Terfenadine
REMARK  14 active torsions:
REMARK  status: ('A' for Active; 'I' for Inactive)
REMARK    1  A    between atoms: C_1  and  C_2
REMARK    2  A    between atoms: C_2  and  C_3
REMARK    3  A    between atoms: C_2  and  C_4
REMARK    4  A    between atoms: C_2  and  C_5
REMARK    5  A    between atoms: C_8  and  C_11
REMARK    6  A    between atoms: C_11  and  O_12
REMARK    7  A    between atoms: C_11  and  C_13
REMARK    8  A    between atoms: C_13  and  C_14
REMARK    9  A    between atoms: C_14  and  C_15
REMARK   10  A    between atoms: C_15  and  N_16
REMARK   11  A    between atoms: C_19  and  C_22
REMARK   12  A    between atoms: C_22  and  O_23
REMARK   13  A    between atoms: C_22  and  C_24
REMARK   14  A    between atoms: C_22  and  C_30
REMARK                            x       y       z     vdW  Elec       q    Type
REMARK                         _______ _______ _______ _____ _____    ______ ____
ROOT
ATOM      1  N   UNL     1      -7.039   1.575 131.779  0.00  0.00    +0.000 NA
ATOM      2  C   UNL     1      -6.207   0.457 132.250  0.00  0.00    +0.000 C 
ATOM      3  C   UNL     1      -5.349  -0.132 131.155  0.00  0.00    +0.000 C 
ATOM      4  C   UNL     1      -6.229  -0.653 130.005  0.00  0.00    +0.000 C 
ATOM      5  C   UNL     1      -6.981   0.599 129.485  0.00  0.00    +0.000 C 
ATOM      6  C   UNL     1      -7.804   1.299 130.561  0.00  0.00    +0.000 C 
ENDROOT
BRANCH   1   7
ATOM      7  C   UNL     1      -7.942   2.057 132.831  0.00  0.00    +0.000 C 
BRANCH   7   8
ATOM      8  C   UNL     1      -8.954   3.079 132.323  0.00  0.00    +0.000 C 
BRANCH   8   9
ATOM      9  C   UNL     1      -9.333   4.026 133.410  0.00  0.00    +0.000 C 
BRANCH   9  10
ATOM     10  C   UNL     1      -8.739   5.404 133.139  0.00  0.00    +0.000 C 
BRANCH  10  14
ATOM     11  C   UNL     1     -11.048   7.292 130.042  0.00  0.00    +0.000 A 
ATOM     12  C   UNL     1     -11.670   6.713 131.166  0.00  0.00    +0.000 A 
ATOM     13  C   UNL     1     -10.919   6.161 132.196  0.00  0.00    +0.000 A 
ATOM     14  C   UNL     1      -9.532   6.129 132.093  0.00  0.00    +0.000 A 
ATOM     15  C   UNL     1      -8.911   6.731 130.993  0.00  0.00    +0.000 A 
ATOM     16  C   UNL     1      -9.657   7.301 129.983  0.00  0.00    +0.000 A 
BRANCH  11  18
ATOM     17  C   UNL     1     -12.691   9.079 129.495  0.00  0.00    +0.000 C 
ATOM     18  C   UNL     1     -11.884   7.901 128.923  0.00  0.00    +0.000 C 
ATOM     19  C   UNL     1     -12.876   6.894 128.301  0.00  0.00    +0.000 C 
ATOM     20  C   UNL     1     -10.935   8.382 127.811  0.00  0.00    +0.000 C 
ENDBRANCH  11  18
ENDBRANCH  10  14
BRANCH  10  21
ATOM     21  O   UNL     1      -8.765   6.170 134.344  0.00  0.00    +0.000 OA
ATOM     22  H   UNL     1      -9.676   6.490 134.458  0.00  0.00    +0.000 HD
ENDBRANCH  10  21
ENDBRANCH   9  10
ENDBRANCH   8   9
ENDBRANCH   7   8
ENDBRANCH   1   7
BRANCH   4  23
ATOM     23  C   UNL     1      -7.194  -1.894 130.304  0.00  0.00    +0.000 C 
BRANCH  23  24
ATOM     24  C   UNL     1      -7.601  -2.508 128.940  0.00  0.00    +0.000 A 
ATOM     25  C   UNL     1      -7.003  -2.135 127.721  0.00  0.00    +0.000 A 
ATOM     26  C   UNL     1      -7.516  -2.590 126.508  0.00  0.00    +0.000 A 
ATOM     27  C   UNL     1      -8.616  -3.442 126.486  0.00  0.00    +0.000 A 
ATOM     28  C   UNL     1      -9.185  -3.874 127.680  0.00  0.00    +0.000 A 
ATOM     29  C   UNL     1      -8.664  -3.436 128.893  0.00  0.00    +0.000 A 
ENDBRANCH  23  24
BRANCH  23  30
ATOM     30  C   UNL     1      -6.599  -2.940 131.277  0.00  0.00    +0.000 A 
ATOM     31  C   UNL     1      -5.667  -3.911 130.877  0.00  0.00    +0.000 A 
ATOM     32  C   UNL     1      -5.201  -4.888 131.761  0.00  0.00    +0.000 A 
ATOM     33  C   UNL     1      -5.625  -4.895 133.082  0.00  0.00    +0.000 A 
ATOM     34  C   UNL     1      -6.567  -3.974 133.506  0.00  0.00    +0.000 A 
ATOM     35  C   UNL     1      -7.082  -3.051 132.595  0.00  0.00    +0.000 A 
ENDBRANCH  23  30
BRANCH  23  36
ATOM     36  O   UNL     1      -8.367  -1.509 131.023  0.00  0.00    +0.000 OA
ATOM     37  H   UNL     1      -8.778  -0.753 130.594  0.00  0.00    +0.000 HD
ENDBRANCH  23  36
ENDBRANCH   4  23
TORSDOF 11
ENDMDL
MODEL 2
REMARK VINA RESULT:      -9.3      4.084      6.900
REMARK  Name = Terfenadine
REMARK  14 active torsions:
REMARK  status: ('A' for Active; 'I' for Inactive)
REMARK    1  A    between atoms: C_1  and  C_2
REMARK    2  A    between atoms: C_2  and  C_3
REMARK    3  A    between atoms: C_2  and  C_4
REMARK    4  A    between atoms: C_2  and  C_5
REMARK    5  A    between atoms: C_8  and  C_11
REMARK    6  A    between atoms: C_11  and  O_12
REMARK    7  A    between atoms: C_11  and  C_13
REMARK    8  A    between atoms: C_13  and  C_14
REMARK    9  A    between atoms: C_14  and  C_15
REMARK   10  A    between atoms: C_15  and  N_16
REMARK   11  A    between atoms: C_19  and  C_22
REMARK   12  A    between atoms: C_22  and  O_23
REMARK   13  A    between atoms: C_22  and  C_24
REMARK   14  A    between atoms: C_22  and  C_30
REMARK                            x       y       z     vdW  Elec       q    Type
REMARK                         _______ _______ _______ _____ _____    ______ ____
ROOT
ATOM      1  N   UNL     1      -6.313   2.127 132.669  0.00  0.00    +0.000 NA
ATOM      2  C   UNL     1      -5.881   1.912 131.280  0.00  0.00    +0.000 C 
ATOM      3  C   UNL     1      -4.378   1.877 131.136  0.00  0.00    +0.000 C 
ATOM      4  C   UNL     1      -3.761   3.201 131.619  0.00  0.00    +0.000 C 
ATOM      5  C   UNL     1      -4.156   3.297 133.115  0.00  0.00    +0.000 C 
ATOM      6  C   UNL     1      -5.662   3.252 133.345  0.00  0.00    +0.000 C 
ENDROOT
BRANCH   1   7
ATOM      7  C   UNL     1      -7.770   2.268 132.767  0.00  0.00    +0.000 C 
BRANCH   7   8
ATOM      8  C   UNL     1      -8.199   3.338 133.767  0.00  0.00    +0.000 C 
BRANCH   8   9
ATOM      9  C   UNL     1      -9.300   4.170 133.205  0.00  0.00    +0.000 C 
BRANCH   9  10
ATOM     10  C   UNL     1      -8.825   5.603 132.998  0.00  0.00    +0.000 C 
BRANCH  10  14
ATOM     11  C   UNL     1     -11.222   7.382 129.903  0.00  0.00    +0.000 A 
ATOM     12  C   UNL     1     -11.814   6.814 131.049  0.00  0.00    +0.000 A 
ATOM     13  C   UNL     1     -11.035   6.298 132.077  0.00  0.00    +0.000 A 
ATOM     14  C   UNL     1      -9.649   6.292 131.951  0.00  0.00    +0.000 A 
ATOM     15  C   UNL     1      -9.059   6.884 130.830  0.00  0.00    +0.000 A 
ATOM     16  C   UNL     1      -9.832   7.418 129.820  0.00  0.00    +0.000 A 
BRANCH  11  18
ATOM     17  C   UNL     1     -11.203   8.208 127.555  0.00  0.00    +0.000 C 
ATOM     18  C   UNL     1     -12.089   7.952 128.787  0.00  0.00    +0.000 C 
ATOM     19  C   UNL     1     -12.767   9.284 129.178  0.00  0.00    +0.000 C 
ATOM     20  C   UNL     1     -13.194   6.934 128.459  0.00  0.00    +0.000 C 
ENDBRANCH  11  18
ENDBRANCH  10  14
BRANCH  10  21
ATOM     21  O   UNL     1      -8.955   6.321 134.226  0.00  0.00    +0.000 OA
ATOM     22  H   UNL     1      -9.496   7.107 134.040  0.00  0.00    +0.000 HD
ENDBRANCH  10  21
ENDBRANCH   9  10
ENDBRANCH   8   9
ENDBRANCH   7   8
ENDBRANCH   1   7
BRANCH   4  23
ATOM     23  C   UNL     1      -4.091   4.528 130.789  0.00  0.00    +0.000 C 
BRANCH  23  24
ATOM     24  C   UNL     1      -3.148   5.646 131.302  0.00  0.00    +0.000 A 
ATOM     25  C   UNL     1      -1.812   5.411 131.679  0.00  0.00    +0.000 A 
ATOM     26  C   UNL     1      -1.058   6.411 132.290  0.00  0.00    +0.000 A 
ATOM     27  C   UNL     1      -1.610   7.668 132.515  0.00  0.00    +0.000 A 
ATOM     28  C   UNL     1      -2.908   7.943 132.095  0.00  0.00    +0.000 A 
ATOM     29  C   UNL     1      -3.657   6.952 131.468  0.00  0.00    +0.000 A 
ENDBRANCH  23  24
BRANCH  23  30
ATOM     30  C   UNL     1      -4.026   4.348 129.254  0.00  0.00    +0.000 A 
ATOM     31  C   UNL     1      -2.816   4.235 128.549  0.00  0.00    +0.000 A 
ATOM     32  C   UNL     1      -2.785   4.146 127.155  0.00  0.00    +0.000 A 
ATOM     33  C   UNL     1      -3.967   4.126 126.430  0.00  0.00    +0.000 A 
ATOM     34  C   UNL     1      -5.178   4.268 127.085  0.00  0.00    +0.000 A 
ATOM     35  C   UNL     1      -5.192   4.434 128.470  0.00  0.00    +0.000 A 
ENDBRANCH  23  30
BRANCH  23  36
ATOM     36  O   UNL     1      -5.450   4.941 130.944  0.00  0.00    +0.000 OA
ATOM     37  H   UNL     1      -5.958   4.238 131.361  0.00  0.00    +0.000 HD
ENDBRANCH  23  36
ENDBRANCH   4  23
TORSDOF 11
ENDMDL
MODEL 3
REMARK VINA RESULT:      -9.3      4.319      6.166
REMARK  Name = Terfenadine
REMARK  14 active torsions:
REMARK  status: ('A' for Active; 'I' for Inactive)
REMARK    1  A    between atoms: C_1  and  C_2
REMARK    2  A    between atoms: C_2  and  C_3
REMARK    3  A    between atoms: C_2  and  C_4
REMARK    4  A    between atoms: C_2  and  C_5
REMARK    5  A    between atoms: C_8  and  C_11
REMARK    6  A    between atoms: C_11  and  O_12
REMARK    7  A    between atoms: C_11  and  C_13
REMARK    8  A    between atoms: C_13  and  C_14
REMARK    9  A    between atoms: C_14  and  C_15
REMARK   10  A    between atoms: C_15  and  N_16
REMARK   11  A    between atoms: C_19  and  C_22
REMARK   12  A    between atoms: C_22  and  O_23
REMARK   13  A    between atoms: C_22  and  C_24
REMARK   14  A    between atoms: C_22  and  C_30
REMARK                            x       y       z     vdW  Elec       q    Type
REMARK                         _______ _______ _______ _____ _____    ______ ____
ROOT
ATOM      1  N   UNL     1      -7.253   2.576 127.820  0.00  0.00    +0.000 NA
ATOM      2  C   UNL     1      -6.985   1.267 127.205  0.00  0.00    +0.000 C 
ATOM      3  C   UNL     1      -5.935   1.338 126.121  0.00  0.00    +0.000 C 
ATOM      4  C   UNL     1      -6.380   2.298 125.005  0.00  0.00    +0.000 C 
ATOM      5  C   UNL     1      -6.525   3.675 125.704  0.00  0.00    +0.000 C 
ATOM      6  C   UNL     1      -7.508   3.659 126.868  0.00  0.00    +0.000 C 
ENDROOT
BRANCH   1   7
ATOM      7  C   UNL     1      -8.351   2.502 128.790  0.00  0.00    +0.000 C 
BRANCH   7   8
ATOM      8  C   UNL     1      -7.895   2.753 130.225  0.00  0.00    +0.000 C 
BRANCH   8   9
ATOM      9  C   UNL     1      -9.063   2.766 131.151  0.00  0.00    +0.000 C 
BRANCH   9  10
ATOM     10  C   UNL     1      -9.137   4.099 131.887  0.00  0.00    +0.000 C 
BRANCH  10  14
ATOM     11  C   UNL     1     -11.264   6.893 129.405  0.00  0.00    +0.000 A 
ATOM     12  C   UNL     1     -11.811   5.634 129.720  0.00  0.00    +0.000 A 
ATOM     13  C   UNL     1     -11.152   4.758 130.574  0.00  0.00    +0.000 A 
ATOM     14  C   UNL     1      -9.906   5.107 131.084  0.00  0.00    +0.000 A 
ATOM     15  C   UNL     1      -9.375   6.370 130.799  0.00  0.00    +0.000 A 
ATOM     16  C   UNL     1     -10.043   7.248 129.971  0.00  0.00    +0.000 A 
BRANCH  11  18
ATOM     17  C   UNL     1     -12.499   9.051 129.292  0.00  0.00    +0.000 C 
ATOM     18  C   UNL     1     -12.003   7.847 128.474  0.00  0.00    +0.000 C 
ATOM     19  C   UNL     1     -13.224   7.190 127.793  0.00  0.00    +0.000 C 
ATOM     20  C   UNL     1     -11.032   8.303 127.372  0.00  0.00    +0.000 C 
ENDBRANCH  11  18
ENDBRANCH  10  14
BRANCH  10  21
ATOM     21  O   UNL     1      -9.803   3.907 133.136  0.00  0.00    +0.000 OA
ATOM     22  H   UNL     1      -9.205   4.233 133.830  0.00  0.00    +0.000 HD
ENDBRANCH  10  21
ENDBRANCH   9  10
ENDBRANCH   8   9
ENDBRANCH   7   8
ENDBRANCH   1   7
BRANCH   4  23
ATOM     23  C   UNL     1      -7.658   1.892 124.132  0.00  0.00    +0.000 C 
BRANCH  23  24
ATOM     24  C   UNL     1      -7.614   2.724 122.824  0.00  0.00    +0.000 A 
ATOM     25  C   UNL     1      -8.764   3.038 122.075  0.00  0.00    +0.000 A 
ATOM     26  C   UNL     1      -8.655   3.642 120.824  0.00  0.00    +0.000 A 
ATOM     27  C   UNL     1      -7.404   3.966 120.307  0.00  0.00    +0.000 A 
ATOM     28  C   UNL     1      -6.257   3.722 121.056  0.00  0.00    +0.000 A 
ATOM     29  C   UNL     1      -6.364   3.136 122.313  0.00  0.00    +0.000 A 
ENDBRANCH  23  24
BRANCH  23  30
ATOM     30  C   UNL     1      -7.789   0.373 123.870  0.00  0.00    +0.000 A 
ATOM     31  C   UNL     1      -8.771  -0.425 124.478  0.00  0.00    +0.000 A 
ATOM     32  C   UNL     1      -8.821  -1.808 124.280  0.00  0.00    +0.000 A 
ATOM     33  C   UNL     1      -7.912  -2.424 123.433  0.00  0.00    +0.000 A 
ATOM     34  C   UNL     1      -6.909  -1.677 122.840  0.00  0.00    +0.000 A 
ATOM     35  C   UNL     1      -6.823  -0.310 123.107  0.00  0.00    +0.000 A 
ENDBRANCH  23  30
BRANCH  23  36
ATOM     36  O   UNL     1      -8.885   2.144 124.818  0.00  0.00    +0.000 OA
ATOM     37  H   UNL     1      -9.376   1.323 124.920  0.00  0.00    +0.000 HD
ENDBRANCH  23  36
ENDBRANCH   4  23
TORSDOF 11
ENDMDL
MODEL 4
REMARK VINA RESULT:      -9.2      3.343      4.910
REMARK  Name = Terfenadine
REMARK  14 active torsions:
REMARK  status: ('A' for Active; 'I' for Inactive)
REMARK    1  A    between atoms: C_1  and  C_2
REMARK    2  A    between atoms: C_2  and  C_3
REMARK    3  A    between atoms: C_2  and  C_4
REMARK    4  A    between atoms: C_2  and  C_5
REMARK    5  A    between atoms: C_8  and  C_11
REMARK    6  A    between atoms: C_11  and  O_12
REMARK    7  A    between atoms: C_11  and  C_13
REMARK    8  A    between atoms: C_13  and  C_14
REMARK    9  A    between atoms: C_14  and  C_15
REMARK   10  A    between atoms: C_15  and  N_16
REMARK   11  A    between atoms: C_19  and  C_22
REMARK   12  A    between atoms: C_22  and  O_23
REMARK   13  A    between atoms: C_22  and  C_24
REMARK   14  A    between atoms: C_22  and  C_30
REMARK                            x       y       z     vdW  Elec       q    Type
REMARK                         _______ _______ _______ _____ _____    ______ ____
ROOT
ATOM      1  N   UNL     1      -8.092   2.795 129.426  0.00  0.00    +0.000 NA
ATOM      2  C   UNL     1      -7.775   1.391 129.127  0.00  0.00    +0.000 C 
ATOM      3  C   UNL     1      -6.564   1.245 128.236  0.00  0.00    +0.000 C 
ATOM      4  C   UNL     1      -6.791   1.970 126.898  0.00  0.00    +0.000 C 
ATOM      5  C   UNL     1      -6.998   3.457 127.286  0.00  0.00    +0.000 C 
ATOM      6  C   UNL     1      -8.154   3.672 128.255  0.00  0.00    +0.000 C 
ENDROOT
BRANCH   1   7
ATOM      7  C   UNL     1      -9.333   2.916 130.200  0.00  0.00    +0.000 C 
BRANCH   7   8
ATOM      8  C   UNL     1      -9.087   3.057 131.700  0.00  0.00    +0.000 C 
BRANCH   8   9
ATOM      9  C   UNL     1      -8.216   4.233 131.980  0.00  0.00    +0.000 C 
BRANCH   9  10
ATOM     10  C   UNL     1      -9.003   5.309 132.718  0.00  0.00    +0.000 C 
BRANCH  10  14
ATOM     11  C   UNL     1     -11.412   7.439 129.864  0.00  0.00    +0.000 A 
ATOM     12  C   UNL     1     -11.992   6.811 130.983  0.00  0.00    +0.000 A 
ATOM     13  C   UNL     1     -11.206   6.178 131.938  0.00  0.00    +0.000 A 
ATOM     14  C   UNL     1      -9.828   6.116 131.760  0.00  0.00    +0.000 A 
ATOM     15  C   UNL     1      -9.246   6.767 130.666  0.00  0.00    +0.000 A 
ATOM     16  C   UNL     1     -10.026   7.416 129.732  0.00  0.00    +0.000 A 
BRANCH  11  18
ATOM     17  C   UNL     1     -11.439   8.422 127.577  0.00  0.00    +0.000 C 
ATOM     18  C   UNL     1     -12.286   8.137 128.829  0.00  0.00    +0.000 C 
ATOM     19  C   UNL     1     -12.861   9.477 129.338  0.00  0.00    +0.000 C 
ATOM     20  C   UNL     1     -13.467   7.213 128.485  0.00  0.00    +0.000 C 
ENDBRANCH  11  18
ENDBRANCH  10  14
BRANCH  10  21
ATOM     21  O   UNL     1      -9.878   4.685 133.660  0.00  0.00    +0.000 OA
ATOM     22  H   UNL     1      -9.641   5.027 134.538  0.00  0.00    +0.000 HD
ENDBRANCH  10  21
ENDBRANCH   9  10
ENDBRANCH   8   9
ENDBRANCH   7   8
ENDBRANCH   1   7
BRANCH   4  23
ATOM     23  C   UNL     1      -7.927   1.404 125.923  0.00  0.00    +0.000 C 
BRANCH  23  24
ATOM     24  C   UNL     1      -7.810   2.167 124.578  0.00  0.00    +0.000 A 
ATOM     25  C   UNL     1      -8.897   2.351 123.703  0.00  0.00    +0.000 A 
ATOM     26  C   UNL     1      -8.705   2.894 122.434  0.00  0.00    +0.000 A 
ATOM     27  C   UNL     1      -7.435   3.285 122.023  0.00  0.00    +0.000 A 
ATOM     28  C   UNL     1      -6.355   3.170 122.893  0.00  0.00    +0.000 A 
ATOM     29  C   UNL     1      -6.547   2.645 124.167  0.00  0.00    +0.000 A 
ENDBRANCH  23  24
BRANCH  23  30
ATOM     30  C   UNL     1      -7.901  -0.132 125.744  0.00  0.00    +0.000 A 
ATOM     31  C   UNL     1      -6.808  -0.818 125.189  0.00  0.00    +0.000 A 
ATOM     32  C   UNL     1      -6.841  -2.198 124.973  0.00  0.00    +0.000 A 
ATOM     33  C   UNL     1      -7.955  -2.937 125.344  0.00  0.00    +0.000 A 
ATOM     34  C   UNL     1      -9.064  -2.293 125.864  0.00  0.00    +0.000 A 
ATOM     35  C   UNL     1      -9.049  -0.905 126.004  0.00  0.00    +0.000 A 
ENDBRANCH  23  30
BRANCH  23  36
ATOM     36  O   UNL     1      -9.239   1.580 126.460  0.00  0.00    +0.000 OA
ATOM     37  H   UNL     1      -9.896   1.329 125.803  0.00  0.00    +0.000 HD
ENDBRANCH  23  36
ENDBRANCH   4  23
TORSDOF 11
ENDMDL
MODEL 5
REMARK VINA RESULT:      -9.1      1.102      3.533
REMARK  Name = Terfenadine
REMARK  14 active torsions:
REMARK  status: ('A' for Active; 'I' for Inactive)
REMARK    1  A    between atoms: C_1  and  C_2
REMARK    2  A    between atoms: C_2  and  C_3
REMARK    3  A    between atoms: C_2  and  C_4
REMARK    4  A    between atoms: C_2  and  C_5
REMARK    5  A    between atoms: C_8  and  C_11
REMARK    6  A    between atoms: C_11  and  O_12
REMARK    7  A    between atoms: C_11  and  C_13
REMARK    8  A    between atoms: C_13  and  C_14
REMARK    9  A    between atoms: C_14  and  C_15
REMARK   10  A    between atoms: C_15  and  N_16
REMARK   11  A    between atoms: C_19  and  C_22
REMARK   12  A    between atoms: C_22  and  O_23
REMARK   13  A    between atoms: C_22  and  C_24
REMARK   14  A    between atoms: C_22  and  C_30
REMARK                            x       y       z     vdW  Elec       q    Type
REMARK                         _______ _______ _______ _____ _____    ______ ____
ROOT
ATOM      1  N   UNL     1      -7.359   1.709 131.981  0.00  0.00    +0.000 NA
ATOM      2  C   UNL     1      -8.187   1.100 130.928  0.00  0.00    +0.000 C 
ATOM      3  C   UNL     1      -8.856  -0.178 131.379  0.00  0.00    +0.000 C 
ATOM      4  C   UNL     1      -7.802  -1.214 131.806  0.00  0.00    +0.000 C 
ATOM      5  C   UNL     1      -7.054  -0.550 132.992  0.00  0.00    +0.000 C 
ATOM      6  C   UNL     1      -6.423   0.790 132.632  0.00  0.00    +0.000 C 
ENDROOT
BRANCH   1   7
ATOM      7  C   UNL     1      -6.634   2.884 131.486  0.00  0.00    +0.000 C 
BRANCH   7   8
ATOM      8  C   UNL     1      -7.549   4.073 131.207  0.00  0.00    +0.000 C 
BRANCH   8   9
ATOM      9  C   UNL     1      -8.395   4.374 132.397  0.00  0.00    +0.000 C 
BRANCH   9  10
ATOM     10  C   UNL     1      -8.496   5.881 132.604  0.00  0.00    +0.000 C 
BRANCH  10  14
ATOM     11  C   UNL     1     -11.298   7.425 129.731  0.00  0.00    +0.000 A 
ATOM     12  C   UNL     1     -11.737   6.772 130.900  0.00  0.00    +0.000 A 
ATOM     13  C   UNL     1     -10.832   6.331 131.858  0.00  0.00    +0.000 A 
ATOM     14  C   UNL     1      -9.467   6.488 131.636  0.00  0.00    +0.000 A 
ATOM     15  C   UNL     1      -9.031   7.164 130.491  0.00  0.00    +0.000 A 
ATOM     16  C   UNL     1      -9.931   7.623 129.553  0.00  0.00    +0.000 A 
BRANCH  11  18
ATOM     17  C   UNL     1     -12.844   9.282 129.133  0.00  0.00    +0.000 C 
ATOM     18  C   UNL     1     -12.303   7.911 128.694  0.00  0.00    +0.000 C 
ATOM     19  C   UNL     1     -13.501   6.950 128.526  0.00  0.00    +0.000 C 
ATOM     20  C   UNL     1     -11.587   8.020 127.336  0.00  0.00    +0.000 C 
ENDBRANCH  11  18
ENDBRANCH  10  14
BRANCH  10  21
ATOM     21  O   UNL     1      -8.953   6.141 133.932  0.00  0.00    +0.000 OA
ATOM     22  H   UNL     1      -9.642   6.824 133.867  0.00  0.00    +0.000 HD
ENDBRANCH  10  21
ENDBRANCH   9  10
ENDBRANCH   8   9
ENDBRANCH   7   8
ENDBRANCH   1   7
BRANCH   4  23
ATOM     23  C   UNL     1      -6.821  -1.792 130.681  0.00  0.00    +0.000 C 
BRANCH  23  24
ATOM     24  C   UNL     1      -5.985  -2.925 131.329  0.00  0.00    +0.000 A 
ATOM     25  C   UNL     1      -6.517  -3.836 132.262  0.00  0.00    +0.000 A 
ATOM     26  C   UNL     1      -5.688  -4.727 132.940  0.00  0.00    +0.000 A 
ATOM     27  C   UNL     1      -4.320  -4.745 132.686  0.00  0.00    +0.000 A 
ATOM     28  C   UNL     1      -3.780  -3.897 131.724  0.00  0.00    +0.000 A 
ATOM     29  C   UNL     1      -4.608  -3.019 131.033  0.00  0.00    +0.000 A 
ENDBRANCH  23  24
BRANCH  23  30
ATOM     30  C   UNL     1      -7.539  -2.244 129.387  0.00  0.00    +0.000 A 
ATOM     31  C   UNL     1      -8.300  -3.421 129.307  0.00  0.00    +0.000 A 
ATOM     32  C   UNL     1      -8.877  -3.842 128.106  0.00  0.00    +0.000 A 
ATOM     33  C   UNL     1      -8.742  -3.073 126.959  0.00  0.00    +0.000 A 
ATOM     34  C   UNL     1      -7.972  -1.923 126.990  0.00  0.00    +0.000 A 
ATOM     35  C   UNL     1      -7.338  -1.554 128.176  0.00  0.00    +0.000 A 
ENDBRANCH  23  30
BRANCH  23  36
ATOM     36  O   UNL     1      -5.947  -0.792 130.157  0.00  0.00    +0.000 OA
ATOM     37  H   UNL     1      -5.678  -1.029 129.265  0.00  0.00    +0.000 HD
ENDBRANCH  23  36
ENDBRANCH   4  23
TORSDOF 11
ENDMDL
MODEL 6
REMARK VINA RESULT:      -9.1      1.318      1.844
REMARK  Name = Terfenadine
REMARK  14 active torsions:
REMARK  status: ('A' for Active; 'I' for Inactive)
REMARK    1  A    between atoms: C_1  and  C_2
REMARK    2  A    between atoms: C_2  and  C_3
REMARK    3  A    between atoms: C_2  and  C_4
REMARK    4  A    between atoms: C_2  and  C_5
REMARK    5  A    between atoms: C_8  and  C_11
REMARK    6  A    between atoms: C_11  and  O_12
REMARK    7  A    between atoms: C_11  and  C_13
REMARK    8  A    between atoms: C_13  and  C_14
REMARK    9  A    between atoms: C_14  and  C_15
REMARK   10  A    between atoms: C_15  and  N_16
REMARK   11  A    between atoms: C_19  and  C_22
REMARK   12  A    between atoms: C_22  and  O_23
REMARK   13  A    between atoms: C_22  and  C_24
REMARK   14  A    between atoms: C_22  and  C_30
REMARK                            x       y       z     vdW  Elec       q    Type
REMARK                         _______ _______ _______ _____ _____    ______ ____
ROOT
ATOM      1  N   UNL     1      -7.508   1.584 130.444  0.00  0.00    +0.000 NA
ATOM      2  C   UNL     1      -6.385   0.666 130.688  0.00  0.00    +0.000 C 
ATOM      3  C   UNL     1      -5.535   0.448 129.459  0.00  0.00    +0.000 C 
ATOM      4  C   UNL     1      -6.382  -0.140 128.317  0.00  0.00    +0.000 C 
ATOM      5  C   UNL     1      -7.466   0.933 128.038  0.00  0.00    +0.000 C 
ATOM      6  C   UNL     1      -8.311   1.269 129.261  0.00  0.00    +0.000 C 
ENDROOT
BRANCH   1   7
ATOM      7  C   UNL     1      -8.381   1.694 131.618  0.00  0.00    +0.000 C 
BRANCH   7   8
ATOM      8  C   UNL     1      -9.151   3.011 131.666  0.00  0.00    +0.000 C 
BRANCH   8   9
ATOM      9  C   UNL     1      -8.235   4.142 131.986  0.00  0.00    +0.000 C 
BRANCH   9  10
ATOM     10  C   UNL     1      -8.987   5.231 132.742  0.00  0.00    +0.000 C 
BRANCH  10  14
ATOM     11  C   UNL     1     -11.411   7.412 129.938  0.00  0.00    +0.000 A 
ATOM     12  C   UNL     1     -11.984   6.777 131.057  0.00  0.00    +0.000 A 
ATOM     13  C   UNL     1     -11.192   6.128 131.997  0.00  0.00    +0.000 A 
ATOM     14  C   UNL     1      -9.816   6.056 131.801  0.00  0.00    +0.000 A 
ATOM     15  C   UNL     1      -9.242   6.713 130.708  0.00  0.00    +0.000 A 
ATOM     16  C   UNL     1     -10.027   7.378 129.789  0.00  0.00    +0.000 A 
BRANCH  11  18
ATOM     17  C   UNL     1     -12.817   9.429 129.550  0.00  0.00    +0.000 C 
ATOM     18  C   UNL     1     -12.291   8.128 128.920  0.00  0.00    +0.000 C 
ATOM     19  C   UNL     1     -13.505   7.280 128.479  0.00  0.00    +0.000 C 
ATOM     20  C   UNL     1     -11.445   8.432 127.672  0.00  0.00    +0.000 C 
ENDBRANCH  11  18
ENDBRANCH  10  14
BRANCH  10  21
ATOM     21  O   UNL     1      -9.855   4.623 133.700  0.00  0.00    +0.000 OA
ATOM     22  H   UNL     1     -10.452   4.034 133.210  0.00  0.00    +0.000 HD
ENDBRANCH  10  21
ENDBRANCH   9  10
ENDBRANCH   8   9
ENDBRANCH   7   8
ENDBRANCH   1   7
BRANCH   4  23
ATOM     23  C   UNL     1      -6.980  -1.612 128.510  0.00  0.00    +0.000 C 
BRANCH  23  24
ATOM     24  C   UNL     1      -7.414  -2.126 127.113  0.00  0.00    +0.000 A 
ATOM     25  C   UNL     1      -8.687  -2.669 126.855  0.00  0.00    +0.000 A 
ATOM     26  C   UNL     1      -8.970  -3.269 125.630  0.00  0.00    +0.000 A 
ATOM     27  C   UNL     1      -8.002  -3.318 124.632  0.00  0.00    +0.000 A 
ATOM     28  C   UNL     1      -6.757  -2.733 124.841  0.00  0.00    +0.000 A 
ATOM     29  C   UNL     1      -6.478  -2.117 126.056  0.00  0.00    +0.000 A 
ENDBRANCH  23  24
BRANCH  23  30
ATOM     30  C   UNL     1      -6.031  -2.591 129.239  0.00  0.00    +0.000 A 
ATOM     31  C   UNL     1      -4.675  -2.734 128.902  0.00  0.00    +0.000 A 
ATOM     32  C   UNL     1      -3.859  -3.679 129.530  0.00  0.00    +0.000 A 
ATOM     33  C   UNL     1      -4.367  -4.480 130.541  0.00  0.00    +0.000 A 
ATOM     34  C   UNL     1      -5.706  -4.392 130.880  0.00  0.00    +0.000 A 
ATOM     35  C   UNL     1      -6.530  -3.499 130.193  0.00  0.00    +0.000 A 
ENDBRANCH  23  30
BRANCH  23  36
ATOM     36  O   UNL     1      -8.101  -1.630 129.395  0.00  0.00    +0.000 OA
ATOM     37  H   UNL     1      -8.693  -0.900 129.186  0.00  0.00    +0.000 HD
ENDBRANCH  23  36
ENDBRANCH   4  23
TORSDOF 11
ENDMDL
MODEL 7
REMARK VINA RESULT:      -9.0      4.892      7.382
REMARK  Name = Terfenadine
REMARK  14 active torsions:
REMARK  status: ('A' for Active; 'I' for Inactive)
REMARK    1  A    between atoms: C_1  and  C_2
REMARK    2  A    between atoms: C_2  and  C_3
REMARK    3  A    between atoms: C_2  and  C_4
REMARK    4  A    between atoms: C_2  and  C_5
REMARK    5  A    between atoms: C_8  and  C_11
REMARK    6  A    between atoms: C_11  and  O_12
REMARK    7  A    between atoms: C_11  and  C_13
REMARK    8  A    between atoms: C_13  and  C_14
REMARK    9  A    between atoms: C_14  and  C_15
REMARK   10  A    between atoms: C_15  and  N_16
REMARK   11  A    between atoms: C_19  and  C_22
REMARK   12  A    between atoms: C_22  and  O_23
REMARK   13  A    between atoms: C_22  and  C_24
REMARK   14  A    between atoms: C_22  and  C_30
REMARK                            x       y       z     vdW  Elec       q    Type
REMARK                         _______ _______ _______ _____ _____    ______ ____
ROOT
ATOM      1  N   UNL     1      -7.462   2.866 127.044  0.00  0.00    +0.000 NA
ATOM      2  C   UNL     1      -8.072   2.086 125.956  0.00  0.00    +0.000 C 
ATOM      3  C   UNL     1      -9.017   1.022 126.462  0.00  0.00    +0.000 C 
ATOM      4  C   UNL     1      -8.275   0.039 127.384  0.00  0.00    +0.000 C 
ATOM      5  C   UNL     1      -7.766   0.910 128.561  0.00  0.00    +0.000 C 
ATOM      6  C   UNL     1      -6.872   2.062 128.117  0.00  0.00    +0.000 C 
ENDROOT
BRANCH   1   7
ATOM      7  C   UNL     1      -6.467   3.817 126.536  0.00  0.00    +0.000 C 
BRANCH   7   8
ATOM      8  C   UNL     1      -5.439   3.167 125.615  0.00  0.00    +0.000 C 
BRANCH   8   9
ATOM      9  C   UNL     1      -4.155   3.924 125.645  0.00  0.00    +0.000 C 
BRANCH   9  10
ATOM     10  C   UNL     1      -3.186   3.282 126.630  0.00  0.00    +0.000 C 
BRANCH  10  14
ATOM     11  C   UNL     1      -2.703   5.546 130.254  0.00  0.00    +0.000 A 
ATOM     12  C   UNL     1      -2.327   6.079 129.005  0.00  0.00    +0.000 A 
ATOM     13  C   UNL     1      -2.543   5.372 127.828  0.00  0.00    +0.000 A 
ATOM     14  C   UNL     1      -3.090   4.094 127.888  0.00  0.00    +0.000 A 
ATOM     15  C   UNL     1      -3.494   3.576 129.123  0.00  0.00    +0.000 A 
ATOM     16  C   UNL     1      -3.301   4.289 130.288  0.00  0.00    +0.000 A 
BRANCH  11  18
ATOM     17  C   UNL     1      -0.953   6.496 131.746  0.00  0.00    +0.000 C 
ATOM     18  C   UNL     1      -2.468   6.337 131.535  0.00  0.00    +0.000 C 
ATOM     19  C   UNL     1      -3.058   5.643 132.782  0.00  0.00    +0.000 C 
ATOM     20  C   UNL     1      -3.143   7.711 131.390  0.00  0.00    +0.000 C 
ENDBRANCH  11  18
ENDBRANCH  10  14
BRANCH  10  21
ATOM     21  O   UNL     1      -3.656   1.975 126.965  0.00  0.00    +0.000 OA
ATOM     22  H   UNL     1      -3.983   1.571 126.144  0.00  0.00    +0.000 HD
ENDBRANCH  10  21
ENDBRANCH   9  10
ENDBRANCH   8   9
ENDBRANCH   7   8
ENDBRANCH   1   7
BRANCH   4  23
ATOM     23  C   UNL     1      -7.136  -0.881 126.737  0.00  0.00    +0.000 C 
BRANCH  23  24
ATOM     24  C   UNL     1      -6.749  -1.953 127.788  0.00  0.00    +0.000 A 
ATOM     25  C   UNL     1      -7.699  -2.665 128.544  0.00  0.00    +0.000 A 
ATOM     26  C   UNL     1      -7.299  -3.494 129.591  0.00  0.00    +0.000 A 
ATOM     27  C   UNL     1      -5.949  -3.646 129.889  0.00  0.00    +0.000 A 
ATOM     28  C   UNL     1      -4.988  -3.001 129.116  0.00  0.00    +0.000 A 
ATOM     29  C   UNL     1      -5.383  -2.187 128.059  0.00  0.00    +0.000 A 
ENDBRANCH  23  24
BRANCH  23  30
ATOM     30  C   UNL     1      -7.519  -1.495 125.369  0.00  0.00    +0.000 A 
ATOM     31  C   UNL     1      -6.878  -1.147 124.169  0.00  0.00    +0.000 A 
ATOM     32  C   UNL     1      -7.293  -1.663 122.939  0.00  0.00    +0.000 A 
ATOM     33  C   UNL     1      -8.337  -2.574 122.881  0.00  0.00    +0.000 A 
ATOM     34  C   UNL     1      -9.015  -2.918 124.037  0.00  0.00    +0.000 A 
ATOM     35  C   UNL     1      -8.641  -2.337 125.249  0.00  0.00    +0.000 A 
ENDBRANCH  23  30
BRANCH  23  36
ATOM     36  O   UNL     1      -5.977  -0.131 126.369  0.00  0.00    +0.000 OA
ATOM     37  H   UNL     1      -5.214  -0.447 126.863  0.00  0.00    +0.000 HD
ENDBRANCH  23  36
ENDBRANCH   4  23
TORSDOF 11
ENDMDL
MODEL 8
REMARK VINA RESULT:      -8.9      5.672      8.718
REMARK  Name = Terfenadine
REMARK  14 active torsions:
REMARK  status: ('A' for Active; 'I' for Inactive)
REMARK    1  A    between atoms: C_1  and  C_2
REMARK    2  A    between atoms: C_2  and  C_3
REMARK    3  A    between atoms: C_2  and  C_4
REMARK    4  A    between atoms: C_2  and  C_5
REMARK    5  A    between atoms: C_8  and  C_11
REMARK    6  A    between atoms: C_11  and  O_12
REMARK    7  A    between atoms: C_11  and  C_13
REMARK    8  A    between atoms: C_13  and  C_14
REMARK    9  A    between atoms: C_14  and  C_15
REMARK   10  A    between atoms: C_15  and  N_16
REMARK   11  A    between atoms: C_19  and  C_22
REMARK   12  A    between atoms: C_22  and  O_23
REMARK   13  A    between atoms: C_22  and  C_24
REMARK   14  A    between atoms: C_22  and  C_30
REMARK                            x       y       z     vdW  Elec       q    Type
REMARK                         _______ _______ _______ _____ _____    ______ ____
ROOT
ATOM      1  N   UNL     1      -4.501   3.797 133.944  0.00  0.00    +0.000 NA
ATOM      2  C   UNL     1      -3.892   3.839 132.606  0.00  0.00    +0.000 C 
ATOM      3  C   UNL     1      -2.422   4.185 132.646  0.00  0.00    +0.000 C 
ATOM      4  C   UNL     1      -2.212   5.561 133.301  0.00  0.00    +0.000 C 
ATOM      5  C   UNL     1      -2.766   5.402 134.740  0.00  0.00    +0.000 C 
ATOM      6  C   UNL     1      -4.227   4.969 134.778  0.00  0.00    +0.000 C 
ENDROOT
BRANCH   1   7
ATOM      7  C   UNL     1      -5.948   3.569 133.872  0.00  0.00    +0.000 C 
BRANCH   7   8
ATOM      8  C   UNL     1      -6.760   4.855 133.991  0.00  0.00    +0.000 C 
BRANCH   8   9
ATOM      9  C   UNL     1      -7.663   5.016 132.816  0.00  0.00    +0.000 C 
BRANCH   9  10
ATOM     10  C   UNL     1      -9.033   5.508 133.267  0.00  0.00    +0.000 C 
BRANCH  10  14
ATOM     11  C   UNL     1     -11.111   7.322 129.969  0.00  0.00    +0.000 A 
ATOM     12  C   UNL     1     -11.806   6.863 131.105  0.00  0.00    +0.000 A 
ATOM     13  C   UNL     1     -11.127   6.337 132.197  0.00  0.00    +0.000 A 
ATOM     14  C   UNL     1      -9.743   6.209 132.147  0.00  0.00    +0.000 A 
ATOM     15  C   UNL     1      -9.048   6.693 131.033  0.00  0.00    +0.000 A 
ATOM     16  C   UNL     1      -9.721   7.238 129.960  0.00  0.00    +0.000 A 
BRANCH  11  18
ATOM     17  C   UNL     1     -12.850   6.847 128.253  0.00  0.00    +0.000 C 
ATOM     18  C   UNL     1     -11.869   7.906 128.782  0.00  0.00    +0.000 C 
ATOM     19  C   UNL     1     -10.936   8.321 127.623  0.00  0.00    +0.000 C 
ATOM     20  C   UNL     1     -12.626   9.159 129.256  0.00  0.00    +0.000 C 
ENDBRANCH  11  18
ENDBRANCH  10  14
BRANCH  10  21
ATOM     21  O   UNL     1      -9.821   4.389 133.676  0.00  0.00    +0.000 OA
ATOM     22  H   UNL     1      -9.926   4.451 134.641  0.00  0.00    +0.000 HD
ENDBRANCH  10  21
ENDBRANCH   9  10
ENDBRANCH   8   9
ENDBRANCH   7   8
ENDBRANCH   1   7
BRANCH   4  23
ATOM     23  C   UNL     1      -2.782   6.848 132.539  0.00  0.00    +0.000 C 
BRANCH  23  24
ATOM     24  C   UNL     1      -1.880   8.052 132.917  0.00  0.00    +0.000 A 
ATOM     25  C   UNL     1      -2.311   9.390 132.835  0.00  0.00    +0.000 A 
ATOM     26  C   UNL     1      -1.414  10.439 133.024  0.00  0.00    +0.000 A 
ATOM     27  C   UNL     1      -0.080  10.178 133.321  0.00  0.00    +0.000 A 
ATOM     28  C   UNL     1       0.355   8.864 133.468  0.00  0.00    +0.000 A 
ATOM     29  C   UNL     1      -0.542   7.815 133.298  0.00  0.00    +0.000 A 
ENDBRANCH  23  24
BRANCH  23  30
ATOM     30  C   UNL     1      -2.927   6.667 131.010  0.00  0.00    +0.000 A 
ATOM     31  C   UNL     1      -1.826   6.550 130.146  0.00  0.00    +0.000 A 
ATOM     32  C   UNL     1      -1.986   6.460 128.761  0.00  0.00    +0.000 A 
ATOM     33  C   UNL     1      -3.256   6.443 128.205  0.00  0.00    +0.000 A 
ATOM     34  C   UNL     1      -4.366   6.588 129.019  0.00  0.00    +0.000 A 
ATOM     35  C   UNL     1      -4.190   6.755 130.393  0.00  0.00    +0.000 A 
ENDBRANCH  23  30
BRANCH  23  36
ATOM     36  O   UNL     1      -4.135   7.134 132.896  0.00  0.00    +0.000 OA
ATOM     37  H   UNL     1      -4.165   7.518 133.778  0.00  0.00    +0.000 HD
ENDBRANCH  23  36
ENDBRANCH   4  23
TORSDOF 11
ENDMDL
MODEL 9
REMARK VINA RESULT:      -8.6      2.730      4.517
REMARK  Name = Terfenadine
REMARK  14 active torsions:
REMARK  status: ('A' for Active; 'I' for Inactive)
REMARK    1  A    between atoms: C_1  and  C_2
REMARK    2  A    between atoms: C_2  and  C_3
REMARK    3  A    between atoms: C_2  and  C_4
REMARK    4  A    between atoms: C_2  and  C_5
REMARK    5  A    between atoms: C_8  and  C_11
REMARK    6  A    between atoms: C_11  and  O_12
REMARK    7  A    between atoms: C_11  and  C_13
REMARK    8  A    between atoms: C_13  and  C_14
REMARK    9  A    between atoms: C_14  and  C_15
REMARK   10  A    between atoms: C_15  and  N_16
REMARK   11  A    between atoms: C_19  and  C_22
REMARK   12  A    between atoms: C_22  and  O_23
REMARK   13  A    between atoms: C_22  and  C_24
REMARK   14  A    between atoms: C_22  and  C_30
REMARK                            x       y       z     vdW  Elec       q    Type
REMARK                         _______ _______ _______ _____ _____    ______ ____
ROOT
ATOM      1  N   UNL     1      -7.764   2.643 131.193  0.00  0.00    +0.000 NA
ATOM      2  C   UNL     1      -7.718   3.319 129.888  0.00  0.00    +0.000 C 
ATOM      3  C   UNL     1      -8.575   2.636 128.848  0.00  0.00    +0.000 C 
ATOM      4  C   UNL     1      -8.112   1.184 128.641  0.00  0.00    +0.000 C 
ATOM      5  C   UNL     1      -8.302   0.508 130.023  0.00  0.00    +0.000 C 
ATOM      6  C   UNL     1      -7.532   1.198 131.142  0.00  0.00    +0.000 C 
ENDROOT
BRANCH   1   7
ATOM      7  C   UNL     1      -6.841   3.258 132.153  0.00  0.00    +0.000 C 
BRANCH   7   8
ATOM      8  C   UNL     1      -7.460   3.452 133.534  0.00  0.00    +0.000 C 
BRANCH   8   9
ATOM      9  C   UNL     1      -8.773   4.149 133.426  0.00  0.00    +0.000 C 
BRANCH   9  10
ATOM     10  C   UNL     1      -8.561   5.641 133.202  0.00  0.00    +0.000 C 
BRANCH  10  14
ATOM     11  C   UNL     1     -11.070   7.283 130.119  0.00  0.00    +0.000 A 
ATOM     12  C   UNL     1      -9.666   7.291 129.998  0.00  0.00    +0.000 A 
ATOM     13  C   UNL     1      -8.860   6.703 130.965  0.00  0.00    +0.000 A 
ATOM     14  C   UNL     1      -9.444   6.144 132.098  0.00  0.00    +0.000 A 
ATOM     15  C   UNL     1     -10.838   6.107 132.204  0.00  0.00    +0.000 A 
ATOM     16  C   UNL     1     -11.638   6.670 131.232  0.00  0.00    +0.000 A 
BRANCH  11  18
ATOM     17  C   UNL     1     -11.043   8.372 127.881  0.00  0.00    +0.000 C 
ATOM     18  C   UNL     1     -11.942   7.925 129.046  0.00  0.00    +0.000 C 
ATOM     19  C   UNL     1     -12.712   9.160 129.563  0.00  0.00    +0.000 C 
ATOM     20  C   UNL     1     -12.972   6.887 128.570  0.00  0.00    +0.000 C 
ENDBRANCH  11  18
ENDBRANCH  10  14
BRANCH  10  21
ATOM     21  O   UNL     1      -8.885   6.346 134.401  0.00  0.00    +0.000 OA
ATOM     22  H   UNL     1      -8.242   6.070 135.076  0.00  0.00    +0.000 HD
ENDBRANCH  10  21
ENDBRANCH   9  10
ENDBRANCH   8   9
ENDBRANCH   7   8
ENDBRANCH   1   7
BRANCH   4  23
ATOM     23  C   UNL     1      -6.660   0.943 128.011  0.00  0.00    +0.000 C 
BRANCH  23  24
ATOM     24  C   UNL     1      -6.708  -0.393 127.225  0.00  0.00    +0.000 A 
ATOM     25  C   UNL     1      -5.559  -1.150 126.927  0.00  0.00    +0.000 A 
ATOM     26  C   UNL     1      -5.634  -2.252 126.078  0.00  0.00    +0.000 A 
ATOM     27  C   UNL     1      -6.854  -2.635 125.530  0.00  0.00    +0.000 A 
ATOM     28  C   UNL     1      -8.013  -1.939 125.859  0.00  0.00    +0.000 A 
ATOM     29  C   UNL     1      -7.945  -0.849 126.721  0.00  0.00    +0.000 A 
ENDBRANCH  23  24
BRANCH  23  30
ATOM     30  C   UNL     1      -6.138   2.122 127.155  0.00  0.00    +0.000 A 
ATOM     31  C   UNL     1      -6.682   2.458 125.905  0.00  0.00    +0.000 A 
ATOM     32  C   UNL     1      -6.142   3.482 125.122  0.00  0.00    +0.000 A 
ATOM     33  C   UNL     1      -5.068   4.225 125.587  0.00  0.00    +0.000 A 
ATOM     34  C   UNL     1      -4.483   3.903 126.799  0.00  0.00    +0.000 A 
ATOM     35  C   UNL     1      -4.982   2.829 127.537  0.00  0.00    +0.000 A 
ENDBRANCH  23  30
BRANCH  23  36
ATOM     36  O   UNL     1      -5.641   0.875 129.009  0.00  0.00    +0.000 OA
ATOM     37  H   UNL     1      -4.947   1.511 128.810  0.00  0.00    +0.000 HD
ENDBRANCH  23  36
ENDBRANCH   4  23
TORSDOF 11
ENDMDL
