MODEL 1
REMARK VINA RESULT:      -6.5      0.000      0.000
REMARK  Name = Teriflunomide
REMARK  6 active torsions:
REMARK  status: ('A' for Active; 'I' for Inactive)
REMARK    1  A    between atoms: C_1  and  C_2
REMARK    2  A    between atoms: C_2  and  O_3
REMARK    3  A    between atoms: C_4  and  C_5
REMARK    4  A    between atoms: C_4  and  C_7
REMARK    5  A    between atoms: N_9  and  C_10
REMARK    6  A    between atoms: C_13  and  C_16
REMARK                            x       y       z     vdW  Elec       q    Type
REMARK                         _______ _______ _______ _____ _____    ______ ____
ROOT
ATOM      1  C   UNL     1     -10.167   6.643 128.932  0.00  0.00    +0.000 C 
ATOM      2  O   UNL     1      -9.471   5.693 128.551  0.00  0.00    +0.000 OA
ATOM      3  N   UNL     1      -9.954   7.221 130.180  0.00  0.00    +0.000 N 
ATOM      4  H   UNL     1     -10.637   7.843 130.592  0.00  0.00    +0.000 HD
ENDROOT
BRANCH   3   5
ATOM      5  C   UNL     1      -8.858   6.838 131.009  0.00  0.00    +0.000 A 
ATOM      6  C   UNL     1      -7.548   7.170 130.652  0.00  0.00    +0.000 A 
ATOM      7  C   UNL     1      -6.468   6.760 131.455  0.00  0.00    +0.000 A 
ATOM      8  C   UNL     1      -6.683   6.042 132.644  0.00  0.00    +0.000 A 
ATOM      9  C   UNL     1      -7.993   5.689 132.980  0.00  0.00    +0.000 A 
ATOM     10  C   UNL     1      -9.064   6.088 132.175  0.00  0.00    +0.000 A 
BRANCH   8  11
ATOM     11  C   UNL     1      -5.536   5.714 133.569  0.00  0.00    +0.000 C 
ATOM     12  F   UNL     1      -5.849   5.883 134.883  0.00  0.00    +0.000 F 
ATOM     13  F   UNL     1      -5.130   4.419 133.445  0.00  0.00    +0.000 F 
ATOM     14  F   UNL     1      -4.423   6.471 133.351  0.00  0.00    +0.000 F 
ENDBRANCH   8  11
ENDBRANCH   3   5
BRANCH   1  17
ATOM     15  C   UNL     1     -13.745   7.685 127.770  0.00  0.00    +0.000 C 
ATOM     16  C   UNL     1     -12.572   7.197 128.570  0.00  0.00    +0.000 C 
ATOM     17  C   UNL     1     -11.312   7.153 128.073  0.00  0.00    +0.000 C 
BRANCH  16  18
ATOM     18  O   UNL     1     -12.859   6.791 129.861  0.00  0.00    +0.000 OA
ATOM     19  H   UNL     1     -12.068   6.512 130.346  0.00  0.00    +0.000 HD
ENDBRANCH  16  18
BRANCH  17  20
ATOM     20  C   UNL     1     -11.062   7.609 126.645  0.00  0.00    +0.000 C 
ATOM     21  N   UNL     1     -10.854   7.988 125.459  0.00  0.00    +0.000 NA
ENDBRANCH  17  20
ENDBRANCH   1  17
TORSDOF 5
ENDMDL
MODEL 2
REMARK VINA RESULT:      -6.2      9.299     10.647
REMARK  Name = Teriflunomide
REMARK  6 active torsions:
REMARK  status: ('A' for Active; 'I' for Inactive)
REMARK    1  A    between atoms: C_1  and  C_2
REMARK    2  A    between atoms: C_2  and  O_3
REMARK    3  A    between atoms: C_4  and  C_5
REMARK    4  A    between atoms: C_4  and  C_7
REMARK    5  A    between atoms: N_9  and  C_10
REMARK    6  A    between atoms: C_13  and  C_16
REMARK                            x       y       z     vdW  Elec       q    Type
REMARK                         _______ _______ _______ _____ _____    ______ ____
ROOT
ATOM      1  C   UNL     1      -6.851   2.587 123.149  0.00  0.00    +0.000 C 
ATOM      2  O   UNL     1      -7.878   2.451 122.472  0.00  0.00    +0.000 OA
ATOM      3  N   UNL     1      -6.478   1.616 124.073  0.00  0.00    +0.000 N 
ATOM      4  H   UNL     1      -5.775   1.804 124.776  0.00  0.00    +0.000 HD
ENDROOT
BRANCH   3   5
ATOM      5  C   UNL     1      -7.179   0.379 124.188  0.00  0.00    +0.000 A 
ATOM      6  C   UNL     1      -6.863  -0.696 123.351  0.00  0.00    +0.000 A 
ATOM      7  C   UNL     1      -7.580  -1.903 123.445  0.00  0.00    +0.000 A 
ATOM      8  C   UNL     1      -8.599  -2.065 124.398  0.00  0.00    +0.000 A 
ATOM      9  C   UNL     1      -8.929  -0.978 125.212  0.00  0.00    +0.000 A 
ATOM     10  C   UNL     1      -8.222   0.224 125.110  0.00  0.00    +0.000 A 
BRANCH   8  11
ATOM     11  C   UNL     1      -9.280  -3.400 124.584  0.00  0.00    +0.000 C 
ATOM     12  F   UNL     1     -10.129  -3.419 125.649  0.00  0.00    +0.000 F 
ATOM     13  F   UNL     1     -10.031  -3.749 123.502  0.00  0.00    +0.000 F 
ATOM     14  F   UNL     1      -8.414  -4.434 124.779  0.00  0.00    +0.000 F 
ENDBRANCH   8  11
ENDBRANCH   3   5
BRANCH   1  17
ATOM     15  C   UNL     1      -4.422   5.303 121.746  0.00  0.00    +0.000 C 
ATOM     16  C   UNL     1      -5.275   4.079 121.920  0.00  0.00    +0.000 C 
ATOM     17  C   UNL     1      -6.013   3.850 123.032  0.00  0.00    +0.000 C 
BRANCH  16  18
ATOM     18  O   UNL     1      -5.260   3.188 120.860  0.00  0.00    +0.000 OA
ATOM     19  H   UNL     1      -4.361   2.979 120.566  0.00  0.00    +0.000 HD
ENDBRANCH  16  18
BRANCH  17  20
ATOM     20  C   UNL     1      -5.983   4.864 124.164  0.00  0.00    +0.000 C 
ATOM     21  N   UNL     1      -5.959   5.706 125.103  0.00  0.00    +0.000 NA
ENDBRANCH  17  20
ENDBRANCH   1  17
TORSDOF 5
ENDMDL
MODEL 3
REMARK VINA RESULT:      -6.2      4.605      5.463
REMARK  Name = Teriflunomide
REMARK  6 active torsions:
REMARK  status: ('A' for Active; 'I' for Inactive)
REMARK    1  A    between atoms: C_1  and  C_2
REMARK    2  A    between atoms: C_2  and  O_3
REMARK    3  A    between atoms: C_4  and  C_5
REMARK    4  A    between atoms: C_4  and  C_7
REMARK    5  A    between atoms: N_9  and  C_10
REMARK    6  A    between atoms: C_13  and  C_16
REMARK                            x       y       z     vdW  Elec       q    Type
REMARK                         _______ _______ _______ _____ _____    ______ ____
ROOT
ATOM      1  C   UNL     1     -10.856   4.577 130.157  0.00  0.00    +0.000 C 
ATOM      2  O   UNL     1     -11.729   3.707 130.046  0.00  0.00    +0.000 OA
ATOM      3  N   UNL     1      -9.553   4.232 130.501  0.00  0.00    +0.000 N 
ATOM      4  H   UNL     1      -8.887   4.933 130.802  0.00  0.00    +0.000 HD
ENDROOT
BRANCH   3   5
ATOM      5  C   UNL     1      -9.140   2.872 130.615  0.00  0.00    +0.000 A 
ATOM      6  C   UNL     1      -8.484   2.238 129.554  0.00  0.00    +0.000 A 
ATOM      7  C   UNL     1      -8.110   0.886 129.657  0.00  0.00    +0.000 A 
ATOM      8  C   UNL     1      -8.353   0.156 130.834  0.00  0.00    +0.000 A 
ATOM      9  C   UNL     1      -9.034   0.787 131.879  0.00  0.00    +0.000 A 
ATOM     10  C   UNL     1      -9.414   2.128 131.770  0.00  0.00    +0.000 A 
BRANCH   8  11
ATOM     11  C   UNL     1      -7.838  -1.254 130.992  0.00  0.00    +0.000 C 
ATOM     12  F   UNL     1      -8.388  -2.123 130.100  0.00  0.00    +0.000 F 
ATOM     13  F   UNL     1      -6.490  -1.332 130.806  0.00  0.00    +0.000 F 
ATOM     14  F   UNL     1      -8.070  -1.787 132.224  0.00  0.00    +0.000 F 
ENDBRANCH   8  11
ENDBRANCH   3   5
BRANCH   1  17
ATOM     15  C   UNL     1     -10.899   8.236 128.797  0.00  0.00    +0.000 C 
ATOM     16  C   UNL     1     -10.602   6.780 129.016  0.00  0.00    +0.000 C 
ATOM     17  C   UNL     1     -11.205   6.046 129.982  0.00  0.00    +0.000 C 
BRANCH  16  18
ATOM     18  O   UNL     1      -9.664   6.229 128.161  0.00  0.00    +0.000 OA
ATOM     19  H   UNL     1      -9.429   6.827 127.435  0.00  0.00    +0.000 HD
ENDBRANCH  16  18
BRANCH  17  20
ATOM     20  C   UNL     1     -12.223   6.711 130.893  0.00  0.00    +0.000 C 
ATOM     21  N   UNL     1     -13.068   7.263 131.650  0.00  0.00    +0.000 NA
ENDBRANCH  17  20
ENDBRANCH   1  17
TORSDOF 5
ENDMDL
MODEL 4
REMARK VINA RESULT:      -6.2      2.380      2.985
REMARK  Name = Teriflunomide
REMARK  6 active torsions:
REMARK  status: ('A' for Active; 'I' for Inactive)
REMARK    1  A    between atoms: C_1  and  C_2
REMARK    2  A    between atoms: C_2  and  O_3
REMARK    3  A    between atoms: C_4  and  C_5
REMARK    4  A    between atoms: C_4  and  C_7
REMARK    5  A    between atoms: N_9  and  C_10
REMARK    6  A    between atoms: C_13  and  C_16
REMARK                            x       y       z     vdW  Elec       q    Type
REMARK                         _______ _______ _______ _____ _____    ______ ____
ROOT
ATOM      1  C   UNL     1      -9.972   6.997 129.726  0.00  0.00    +0.000 C 
ATOM      2  O   UNL     1      -9.474   6.533 128.693  0.00  0.00    +0.000 OA
ATOM      3  N   UNL     1      -9.322   6.863 130.949  0.00  0.00    +0.000 N 
ATOM      4  H   UNL     1      -9.803   7.041 131.821  0.00  0.00    +0.000 HD
ENDROOT
BRANCH   3   5
ATOM      5  C   UNL     1      -8.011   6.308 131.046  0.00  0.00    +0.000 A 
ATOM      6  C   UNL     1      -7.835   4.934 131.240  0.00  0.00    +0.000 A 
ATOM      7  C   UNL     1      -6.541   4.396 131.370  0.00  0.00    +0.000 A 
ATOM      8  C   UNL     1      -5.404   5.217 131.275  0.00  0.00    +0.000 A 
ATOM      9  C   UNL     1      -5.589   6.593 131.110  0.00  0.00    +0.000 A 
ATOM     10  C   UNL     1      -6.876   7.126 130.990  0.00  0.00    +0.000 A 
BRANCH   8  11
ATOM     11  C   UNL     1      -4.016   4.622 131.286  0.00  0.00    +0.000 C 
ATOM     12  F   UNL     1      -3.079   5.472 131.790  0.00  0.00    +0.000 F 
ATOM     13  F   UNL     1      -3.947   3.495 132.049  0.00  0.00    +0.000 F 
ATOM     14  F   UNL     1      -3.566   4.260 130.052  0.00  0.00    +0.000 F 
ENDBRANCH   8  11
ENDBRANCH   3   5
BRANCH   1  17
ATOM     15  C   UNL     1     -12.977   9.223 128.604  0.00  0.00    +0.000 C 
ATOM     16  C   UNL     1     -11.650   8.526 128.692  0.00  0.00    +0.000 C 
ATOM     17  C   UNL     1     -11.337   7.666 129.691  0.00  0.00    +0.000 C 
BRANCH  16  18
ATOM     18  O   UNL     1     -10.755   8.821 127.678  0.00  0.00    +0.000 OA
ATOM     19  H   UNL     1      -9.911   9.156 128.016  0.00  0.00    +0.000 HD
ENDBRANCH  16  18
BRANCH  17  20
ATOM     20  C   UNL     1     -12.361   7.388 130.778  0.00  0.00    +0.000 C 
ATOM     21  N   UNL     1     -13.212   7.157 131.681  0.00  0.00    +0.000 NA
ENDBRANCH  17  20
ENDBRANCH   1  17
TORSDOF 5
ENDMDL
MODEL 5
REMARK VINA RESULT:      -6.2      5.023      7.433
REMARK  Name = Teriflunomide
REMARK  6 active torsions:
REMARK  status: ('A' for Active; 'I' for Inactive)
REMARK    1  A    between atoms: C_1  and  C_2
REMARK    2  A    between atoms: C_2  and  O_3
REMARK    3  A    between atoms: C_4  and  C_5
REMARK    4  A    between atoms: C_4  and  C_7
REMARK    5  A    between atoms: N_9  and  C_10
REMARK    6  A    between atoms: C_13  and  C_16
REMARK                            x       y       z     vdW  Elec       q    Type
REMARK                         _______ _______ _______ _____ _____    ______ ____
ROOT
ATOM      1  C   UNL     1      -8.971   4.777 132.681  0.00  0.00    +0.000 C 
ATOM      2  O   UNL     1      -9.584   3.878 132.093  0.00  0.00    +0.000 OA
ATOM      3  N   UNL     1      -9.110   6.104 132.287  0.00  0.00    +0.000 N 
ATOM      4  H   UNL     1      -8.466   6.816 132.606  0.00  0.00    +0.000 HD
ENDROOT
BRANCH   3   5
ATOM      5  C   UNL     1     -10.049   6.497 131.288  0.00  0.00    +0.000 A 
ATOM      6  C   UNL     1      -9.613   6.917 130.028  0.00  0.00    +0.000 A 
ATOM      7  C   UNL     1     -10.541   7.337 129.058  0.00  0.00    +0.000 A 
ATOM      8  C   UNL     1     -11.921   7.311 129.320  0.00  0.00    +0.000 A 
ATOM      9  C   UNL     1     -12.350   6.918 130.591  0.00  0.00    +0.000 A 
ATOM     10  C   UNL     1     -11.424   6.511 131.557  0.00  0.00    +0.000 A 
BRANCH   8  11
ATOM     11  C   UNL     1     -12.922   7.639 128.238  0.00  0.00    +0.000 C 
ATOM     12  F   UNL     1     -12.355   7.745 127.005  0.00  0.00    +0.000 F 
ATOM     13  F   UNL     1     -13.887   6.684 128.125  0.00  0.00    +0.000 F 
ATOM     14  F   UNL     1     -13.587   8.811 128.445  0.00  0.00    +0.000 F 
ENDBRANCH   8  11
ENDBRANCH   3   5
BRANCH   1  17
ATOM     15  C   UNL     1      -6.927   5.008 136.000  0.00  0.00    +0.000 C 
ATOM     16  C   UNL     1      -7.870   5.278 134.863  0.00  0.00    +0.000 C 
ATOM     17  C   UNL     1      -8.002   4.443 133.804  0.00  0.00    +0.000 C 
BRANCH  16  18
ATOM     18  O   UNL     1      -8.604   6.447 134.964  0.00  0.00    +0.000 OA
ATOM     19  H   UNL     1      -8.167   7.197 134.533  0.00  0.00    +0.000 HD
ENDBRANCH  16  18
BRANCH  17  20
ATOM     20  C   UNL     1      -7.163   3.178 133.748  0.00  0.00    +0.000 C 
ATOM     21  N   UNL     1      -6.466   2.127 133.701  0.00  0.00    +0.000 NA
ENDBRANCH  17  20
ENDBRANCH   1  17
TORSDOF 5
ENDMDL
MODEL 6
REMARK VINA RESULT:      -6.1      1.847      2.204
REMARK  Name = Teriflunomide
REMARK  6 active torsions:
REMARK  status: ('A' for Active; 'I' for Inactive)
REMARK    1  A    between atoms: C_1  and  C_2
REMARK    2  A    between atoms: C_2  and  O_3
REMARK    3  A    between atoms: C_4  and  C_5
REMARK    4  A    between atoms: C_4  and  C_7
REMARK    5  A    between atoms: N_9  and  C_10
REMARK    6  A    between atoms: C_13  and  C_16
REMARK                            x       y       z     vdW  Elec       q    Type
REMARK                         _______ _______ _______ _____ _____    ______ ____
ROOT
ATOM      1  C   UNL     1     -10.282   7.315 129.525  0.00  0.00    +0.000 C 
ATOM      2  O   UNL     1      -9.135   7.773 129.603  0.00  0.00    +0.000 OA
ATOM      3  N   UNL     1     -10.640   6.176 130.240  0.00  0.00    +0.000 N 
ATOM      4  H   UNL     1     -11.490   5.670 130.028  0.00  0.00    +0.000 HD
ENDROOT
BRANCH   3   5
ATOM      5  C   UNL     1      -9.756   5.571 131.181  0.00  0.00    +0.000 A 
ATOM      6  C   UNL     1      -9.594   6.119 132.457  0.00  0.00    +0.000 A 
ATOM      7  C   UNL     1      -8.695   5.539 133.371  0.00  0.00    +0.000 A 
ATOM      8  C   UNL     1      -7.970   4.383 133.035  0.00  0.00    +0.000 A 
ATOM      9  C   UNL     1      -8.115   3.856 131.749  0.00  0.00    +0.000 A 
ATOM     10  C   UNL     1      -9.001   4.441 130.839  0.00  0.00    +0.000 A 
BRANCH   8  11
ATOM     11  C   UNL     1      -7.103   3.687 134.058  0.00  0.00    +0.000 C 
ATOM     12  F   UNL     1      -7.345   2.349 134.137  0.00  0.00    +0.000 F 
ATOM     13  F   UNL     1      -5.776   3.811 133.776  0.00  0.00    +0.000 F 
ATOM     14  F   UNL     1      -7.257   4.169 135.324  0.00  0.00    +0.000 F 
ENDBRANCH   8  11
ENDBRANCH   3   5
BRANCH   1  17
ATOM     15  C   UNL     1     -13.483   9.135 128.228  0.00  0.00    +0.000 C 
ATOM     16  C   UNL     1     -12.433   8.500 129.095  0.00  0.00    +0.000 C 
ATOM     17  C   UNL     1     -11.303   7.948 128.593  0.00  0.00    +0.000 C 
BRANCH  16  18
ATOM     18  O   UNL     1     -12.696   8.515 130.453  0.00  0.00    +0.000 OA
ATOM     19  H   UNL     1     -11.889   8.448 130.987  0.00  0.00    +0.000 HD
ENDBRANCH  16  18
BRANCH  17  20
ATOM     20  C   UNL     1     -11.075   7.959 127.091  0.00  0.00    +0.000 C 
ATOM     21  N   UNL     1     -10.885   7.968 125.844  0.00  0.00    +0.000 NA
ENDBRANCH  17  20
ENDBRANCH   1  17
TORSDOF 5
ENDMDL
MODEL 7
REMARK VINA RESULT:      -6.1      9.458     11.265
REMARK  Name = Teriflunomide
REMARK  6 active torsions:
REMARK  status: ('A' for Active; 'I' for Inactive)
REMARK    1  A    between atoms: C_1  and  C_2
REMARK    2  A    between atoms: C_2  and  O_3
REMARK    3  A    between atoms: C_4  and  C_5
REMARK    4  A    between atoms: C_4  and  C_7
REMARK    5  A    between atoms: N_9  and  C_10
REMARK    6  A    between atoms: C_13  and  C_16
REMARK                            x       y       z     vdW  Elec       q    Type
REMARK                         _______ _______ _______ _____ _____    ______ ____
ROOT
ATOM      1  C   UNL     1      -7.229   0.886 124.201  0.00  0.00    +0.000 C 
ATOM      2  O   UNL     1      -7.229   0.113 123.235  0.00  0.00    +0.000 OA
ATOM      3  N   UNL     1      -7.206   2.263 124.007  0.00  0.00    +0.000 N 
ATOM      4  H   UNL     1      -6.992   2.896 124.766  0.00  0.00    +0.000 HD
ENDROOT
BRANCH   3   5
ATOM      5  C   UNL     1      -7.311   2.840 122.707  0.00  0.00    +0.000 A 
ATOM      6  C   UNL     1      -6.164   3.213 122.000  0.00  0.00    +0.000 A 
ATOM      7  C   UNL     1      -6.274   3.814 120.733  0.00  0.00    +0.000 A 
ATOM      8  C   UNL     1      -7.530   4.021 120.138  0.00  0.00    +0.000 A 
ATOM      9  C   UNL     1      -8.674   3.673 120.862  0.00  0.00    +0.000 A 
ATOM     10  C   UNL     1      -8.562   3.085 122.126  0.00  0.00    +0.000 A 
BRANCH   8  11
ATOM     11  C   UNL     1      -7.643   4.548 118.727  0.00  0.00    +0.000 C 
ATOM     12  F   UNL     1      -8.907   4.939 118.406  0.00  0.00    +0.000 F 
ATOM     13  F   UNL     1      -6.851   5.637 118.522  0.00  0.00    +0.000 F 
ATOM     14  F   UNL     1      -7.279   3.643 117.775  0.00  0.00    +0.000 F 
ENDBRANCH   8  11
ENDBRANCH   3   5
BRANCH   1  17
ATOM     15  C   UNL     1      -7.925   0.441 128.017  0.00  0.00    +0.000 C 
ATOM     16  C   UNL     1      -7.928   0.925 126.595  0.00  0.00    +0.000 C 
ATOM     17  C   UNL     1      -7.187   0.344 125.621  0.00  0.00    +0.000 C 
BRANCH  16  18
ATOM     18  O   UNL     1      -8.743   2.013 126.338  0.00  0.00    +0.000 OA
ATOM     19  H   UNL     1      -8.943   2.523 127.138  0.00  0.00    +0.000 HD
ENDBRANCH  16  18
BRANCH  17  20
ATOM     20  C   UNL     1      -6.307  -0.845 125.968  0.00  0.00    +0.000 C 
ATOM     21  N   UNL     1      -5.576  -1.832 126.256  0.00  0.00    +0.000 NA
ENDBRANCH  17  20
ENDBRANCH   1  17
TORSDOF 5
ENDMDL
MODEL 8
REMARK VINA RESULT:      -6.1      4.849      7.193
REMARK  Name = Teriflunomide
REMARK  6 active torsions:
REMARK  status: ('A' for Active; 'I' for Inactive)
REMARK    1  A    between atoms: C_1  and  C_2
REMARK    2  A    between atoms: C_2  and  O_3
REMARK    3  A    between atoms: C_4  and  C_5
REMARK    4  A    between atoms: C_4  and  C_7
REMARK    5  A    between atoms: N_9  and  C_10
REMARK    6  A    between atoms: C_13  and  C_16
REMARK                            x       y       z     vdW  Elec       q    Type
REMARK                         _______ _______ _______ _____ _____    ______ ____
ROOT
ATOM      1  C   UNL     1      -8.305   4.453 131.700  0.00  0.00    +0.000 C 
ATOM      2  O   UNL     1      -8.773   3.869 130.714  0.00  0.00    +0.000 OA
ATOM      3  N   UNL     1      -8.678   5.761 131.991  0.00  0.00    +0.000 N 
ATOM      4  H   UNL     1      -8.156   6.320 132.653  0.00  0.00    +0.000 HD
ENDROOT
BRANCH   3   5
ATOM      5  C   UNL     1      -9.697   6.435 131.254  0.00  0.00    +0.000 A 
ATOM      6  C   UNL     1      -9.380   7.150 130.095  0.00  0.00    +0.000 A 
ATOM      7  C   UNL     1     -10.383   7.841 129.391  0.00  0.00    +0.000 A 
ATOM      8  C   UNL     1     -11.722   7.800 129.814  0.00  0.00    +0.000 A 
ATOM      9  C   UNL     1     -12.028   7.107 130.989  0.00  0.00    +0.000 A 
ATOM     10  C   UNL     1     -11.027   6.429 131.693  0.00  0.00    +0.000 A 
BRANCH   8  11
ATOM     11  C   UNL     1     -12.816   8.434 128.989  0.00  0.00    +0.000 C 
ATOM     12  F   UNL     1     -13.321   9.565 129.555  0.00  0.00    +0.000 F 
ATOM     13  F   UNL     1     -12.379   8.799 127.751  0.00  0.00    +0.000 F 
ATOM     14  F   UNL     1     -13.884   7.615 128.775  0.00  0.00    +0.000 F 
ENDBRANCH   8  11
ENDBRANCH   3   5
BRANCH   1  17
ATOM     15  C   UNL     1      -6.555   1.869 134.046  0.00  0.00    +0.000 C 
ATOM     16  C   UNL     1      -7.538   2.587 133.166  0.00  0.00    +0.000 C 
ATOM     17  C   UNL     1      -7.264   3.775 132.576  0.00  0.00    +0.000 C 
BRANCH  16  18
ATOM     18  O   UNL     1      -8.756   1.952 132.994  0.00  0.00    +0.000 OA
ATOM     19  H   UNL     1      -9.305   1.982 133.792  0.00  0.00    +0.000 HD
ENDBRANCH  16  18
BRANCH  17  20
ATOM     20  C   UNL     1      -5.910   4.424 132.809  0.00  0.00    +0.000 C 
ATOM     21  N   UNL     1      -4.786   4.963 133.002  0.00  0.00    +0.000 NA
ENDBRANCH  17  20
ENDBRANCH   1  17
TORSDOF 5
ENDMDL
MODEL 9
REMARK VINA RESULT:      -6.1      9.040     10.408
REMARK  Name = Teriflunomide
REMARK  6 active torsions:
REMARK  status: ('A' for Active; 'I' for Inactive)
REMARK    1  A    between atoms: C_1  and  C_2
REMARK    2  A    between atoms: C_2  and  O_3
REMARK    3  A    between atoms: C_4  and  C_5
REMARK    4  A    between atoms: C_4  and  C_7
REMARK    5  A    between atoms: N_9  and  C_10
REMARK    6  A    between atoms: C_13  and  C_16
REMARK                            x       y       z     vdW  Elec       q    Type
REMARK                         _______ _______ _______ _____ _____    ______ ____
ROOT
ATOM      1  C   UNL     1      -4.960   2.189 126.111  0.00  0.00    +0.000 C 
ATOM      2  O   UNL     1      -5.766   2.487 125.220  0.00  0.00    +0.000 OA
ATOM      3  N   UNL     1      -4.974   0.921 126.683  0.00  0.00    +0.000 N 
ATOM      4  H   UNL     1      -4.478   0.729 127.544  0.00  0.00    +0.000 HD
ENDROOT
BRANCH   3   5
ATOM      5  C   UNL     1      -5.816  -0.118 126.188  0.00  0.00    +0.000 A 
ATOM      6  C   UNL     1      -7.121  -0.264 126.669  0.00  0.00    +0.000 A 
ATOM      7  C   UNL     1      -7.937  -1.312 126.204  0.00  0.00    +0.000 A 
ATOM      8  C   UNL     1      -7.473  -2.209 125.226  0.00  0.00    +0.000 A 
ATOM      9  C   UNL     1      -6.158  -2.075 124.771  0.00  0.00    +0.000 A 
ATOM     10  C   UNL     1      -5.346  -1.039 125.242  0.00  0.00    +0.000 A 
BRANCH   8  11
ATOM     11  C   UNL     1      -8.390  -3.253 124.635  0.00  0.00    +0.000 C 
ATOM     12  F   UNL     1      -8.600  -3.080 123.300  0.00  0.00    +0.000 F 
ATOM     13  F   UNL     1      -7.890  -4.513 124.774  0.00  0.00    +0.000 F 
ATOM     14  F   UNL     1      -9.626  -3.281 125.206  0.00  0.00    +0.000 F 
ENDBRANCH   8  11
ENDBRANCH   3   5
BRANCH   1  17
ATOM     15  C   UNL     1      -3.520   5.479 127.642  0.00  0.00    +0.000 C 
ATOM     16  C   UNL     1      -4.435   4.413 127.109  0.00  0.00    +0.000 C 
ATOM     17  C   UNL     1      -3.983   3.224 126.643  0.00  0.00    +0.000 C 
BRANCH  16  18
ATOM     18  O   UNL     1      -5.783   4.725 127.123  0.00  0.00    +0.000 OA
ATOM     19  H   UNL     1      -6.190   4.645 126.247  0.00  0.00    +0.000 HD
ENDBRANCH  16  18
BRANCH  17  20
ATOM     20  C   UNL     1      -2.489   2.944 126.650  0.00  0.00    +0.000 C 
ATOM     21  N   UNL     1      -1.249   2.712 126.655  0.00  0.00    +0.000 NA
ENDBRANCH  17  20
ENDBRANCH   1  17
TORSDOF 5
ENDMDL
