MODEL 1
REMARK VINA RESULT:      -7.5      0.000      0.000
REMARK  Name = Terizidone
REMARK  4 active torsions:
REMARK  status: ('A' for Active; 'I' for Inactive)
REMARK    1  A    between atoms: C_6  and  N_7
REMARK    2  A    between atoms: C_8  and  C_9
REMARK    3  A    between atoms: C_12  and  C_13
REMARK    4  A    between atoms: N_14  and  C_15
REMARK                            x       y       z     vdW  Elec       q    Type
REMARK                         _______ _______ _______ _____ _____    ______ ____
ROOT
ATOM      1  C   UNL     1      -6.022   3.948 124.464  0.00  0.00    +0.000 A 
ATOM      2  C   UNL     1      -5.207   3.708 125.572  0.00  0.00    +0.000 A 
ATOM      3  C   UNL     1      -5.779   3.717 126.853  0.00  0.00    +0.000 A 
ATOM      4  C   UNL     1      -7.139   4.021 127.007  0.00  0.00    +0.000 A 
ATOM      5  C   UNL     1      -7.951   4.227 125.891  0.00  0.00    +0.000 A 
ATOM      6  C   UNL     1      -7.390   4.189 124.620  0.00  0.00    +0.000 A 
ENDROOT
BRANCH   1   8
ATOM      7  N   UNL     1      -6.260   4.338 122.126  0.00  0.00    +0.000 NA
ATOM      8  C   UNL     1      -5.492   3.955 123.088  0.00  0.00    +0.000 C 
BRANCH   7  14
ATOM      9  O   UNL     1      -4.271   6.193 120.775  0.00  0.00    +0.000 OA
ATOM     10  C   UNL     1      -5.112   5.487 120.226  0.00  0.00    +0.000 C 
ATOM     11  N   UNL     1      -5.563   5.647 118.946  0.00  0.00    +0.000 N 
ATOM     12  O   UNL     1      -6.742   4.917 118.699  0.00  0.00    +0.000 OA
ATOM     13  C   UNL     1      -6.838   3.958 119.761  0.00  0.00    +0.000 C 
ATOM     14  C   UNL     1      -5.720   4.226 120.767  0.00  0.00    +0.000 C 
ATOM     15  H   UNL     1      -5.201   6.283 118.250  0.00  0.00    +0.000 HD
ENDBRANCH   7  14
ENDBRANCH   1   8
BRANCH   4  16
ATOM     16  C   UNL     1      -7.692   4.218 128.364  0.00  0.00    +0.000 C 
ATOM     17  N   UNL     1      -8.730   4.945 128.568  0.00  0.00    +0.000 NA
BRANCH  17  18
ATOM     18  C   UNL     1      -9.214   5.189 129.936  0.00  0.00    +0.000 C 
ATOM     19  C   UNL     1      -9.581   6.664 130.074  0.00  0.00    +0.000 C 
ATOM     20  O   UNL     1     -10.551   6.748 131.125  0.00  0.00    +0.000 OA
ATOM     21  N   UNL     1     -11.199   5.495 131.111  0.00  0.00    +0.000 N 
ATOM     22  C   UNL     1     -10.531   4.576 130.345  0.00  0.00    +0.000 C 
ATOM     23  O   UNL     1     -10.942   3.442 130.131  0.00  0.00    +0.000 OA
ATOM     24  H   UNL     1     -12.155   5.401 131.426  0.00  0.00    +0.000 HD
ENDBRANCH  17  18
ENDBRANCH   4  16
TORSDOF 4
ENDMDL
MODEL 2
REMARK VINA RESULT:      -7.5      0.433      9.276
REMARK  Name = Terizidone
REMARK  4 active torsions:
REMARK  status: ('A' for Active; 'I' for Inactive)
REMARK    1  A    between atoms: C_6  and  N_7
REMARK    2  A    between atoms: C_8  and  C_9
REMARK    3  A    between atoms: C_12  and  C_13
REMARK    4  A    between atoms: N_14  and  C_15
REMARK                            x       y       z     vdW  Elec       q    Type
REMARK                         _______ _______ _______ _____ _____    ______ ____
ROOT
ATOM      1  C   UNL     1      -7.101   3.930 126.885  0.00  0.00    +0.000 A 
ATOM      2  C   UNL     1      -7.916   3.467 125.849  0.00  0.00    +0.000 A 
ATOM      3  C   UNL     1      -7.392   3.391 124.551  0.00  0.00    +0.000 A 
ATOM      4  C   UNL     1      -6.084   3.830 124.300  0.00  0.00    +0.000 A 
ATOM      5  C   UNL     1      -5.268   4.260 125.347  0.00  0.00    +0.000 A 
ATOM      6  C   UNL     1      -5.778   4.307 126.639  0.00  0.00    +0.000 A 
ENDROOT
BRANCH   1   8
ATOM      7  N   UNL     1      -8.554   4.843 128.536  0.00  0.00    +0.000 NA
ATOM      8  C   UNL     1      -7.583   4.038 128.273  0.00  0.00    +0.000 C 
BRANCH   7  14
ATOM      9  O   UNL     1     -10.960   3.642 129.947  0.00  0.00    +0.000 OA
ATOM     10  C   UNL     1     -10.354   4.662 130.261  0.00  0.00    +0.000 C 
ATOM     11  N   UNL     1     -10.836   5.646 131.078  0.00  0.00    +0.000 N 
ATOM     12  O   UNL     1     -10.074   6.828 130.998  0.00  0.00    +0.000 OA
ATOM     13  C   UNL     1      -8.836   6.455 130.378  0.00  0.00    +0.000 C 
ATOM     14  C   UNL     1      -8.924   4.992 129.948  0.00  0.00    +0.000 C 
ATOM     15  H   UNL     1     -11.691   5.624 131.615  0.00  0.00    +0.000 HD
ENDBRANCH   7  14
ENDBRANCH   1   8
BRANCH   4  16
ATOM     16  C   UNL     1      -5.604   3.928 122.906  0.00  0.00    +0.000 C 
ATOM     17  N   UNL     1      -6.403   4.195 121.937  0.00  0.00    +0.000 NA
BRANCH  17  18
ATOM     18  C   UNL     1      -5.915   4.211 120.549  0.00  0.00    +0.000 C 
ATOM     19  C   UNL     1      -7.113   4.170 119.604  0.00  0.00    +0.000 C 
ATOM     20  O   UNL     1      -6.684   4.764 118.373  0.00  0.00    +0.000 OA
ATOM     21  N   UNL     1      -5.665   5.663 118.748  0.00  0.00    +0.000 N 
ATOM     22  C   UNL     1      -5.253   5.468 120.041  0.00  0.00    +0.000 C 
ATOM     23  O   UNL     1      -4.428   6.176 120.605  0.00  0.00    +0.000 OA
ATOM     24  H   UNL     1      -5.473   6.489 118.198  0.00  0.00    +0.000 HD
ENDBRANCH  17  18
ENDBRANCH   4  16
TORSDOF 4
ENDMDL
MODEL 3
REMARK VINA RESULT:      -7.1      6.577      8.649
REMARK  Name = Terizidone
REMARK  4 active torsions:
REMARK  status: ('A' for Active; 'I' for Inactive)
REMARK    1  A    between atoms: C_6  and  N_7
REMARK    2  A    between atoms: C_8  and  C_9
REMARK    3  A    between atoms: C_12  and  C_13
REMARK    4  A    between atoms: N_14  and  C_15
REMARK                            x       y       z     vdW  Elec       q    Type
REMARK                         _______ _______ _______ _____ _____    ______ ____
ROOT
ATOM      1  C   UNL     1      -9.100   6.621 130.976  0.00  0.00    +0.000 A 
ATOM      2  C   UNL     1      -9.591   6.085 132.169  0.00  0.00    +0.000 A 
ATOM      3  C   UNL     1      -8.691   5.769 133.196  0.00  0.00    +0.000 A 
ATOM      4  C   UNL     1      -7.314   5.942 132.994  0.00  0.00    +0.000 A 
ATOM      5  C   UNL     1      -6.836   6.508 131.811  0.00  0.00    +0.000 A 
ATOM      6  C   UNL     1      -7.732   6.849 130.805  0.00  0.00    +0.000 A 
ENDROOT
BRANCH   1   8
ATOM      7  N   UNL     1      -9.700   8.010 129.136  0.00  0.00    +0.000 NA
ATOM      8  C   UNL     1      -9.985   6.977 129.852  0.00  0.00    +0.000 C 
BRANCH   7  14
ATOM      9  O   UNL     1     -12.510   9.090 129.538  0.00  0.00    +0.000 OA
ATOM     10  C   UNL     1     -12.091   8.467 128.567  0.00  0.00    +0.000 C 
ATOM     11  N   UNL     1     -12.870   7.832 127.641  0.00  0.00    +0.000 N 
ATOM     12  O   UNL     1     -12.130   6.938 126.843  0.00  0.00    +0.000 OA
ATOM     13  C   UNL     1     -10.754   7.296 127.026  0.00  0.00    +0.000 C 
ATOM     14  C   UNL     1     -10.668   8.381 128.099  0.00  0.00    +0.000 C 
ATOM     15  H   UNL     1     -13.876   7.875 127.563  0.00  0.00    +0.000 HD
ENDBRANCH   7  14
ENDBRANCH   1   8
BRANCH   4  16
ATOM     16  C   UNL     1      -6.361   5.430 134.001  0.00  0.00    +0.000 C 
ATOM     17  N   UNL     1      -5.119   5.755 133.978  0.00  0.00    +0.000 NA
BRANCH  17  18
ATOM     18  C   UNL     1      -4.176   5.171 134.945  0.00  0.00    +0.000 C 
ATOM     19  C   UNL     1      -4.945   4.754 136.195  0.00  0.00    +0.000 C 
ATOM     20  O   UNL     1      -4.183   3.712 136.816  0.00  0.00    +0.000 OA
ATOM     21  N   UNL     1      -3.484   3.102 135.754  0.00  0.00    +0.000 N 
ATOM     22  C   UNL     1      -3.538   3.847 134.605  0.00  0.00    +0.000 C 
ATOM     23  O   UNL     1      -3.061   3.483 133.536  0.00  0.00    +0.000 OA
ATOM     24  H   UNL     1      -3.213   2.130 135.802  0.00  0.00    +0.000 HD
ENDBRANCH  17  18
ENDBRANCH   4  16
TORSDOF 4
ENDMDL
MODEL 4
REMARK VINA RESULT:      -7.0      6.547      8.645
REMARK  Name = Terizidone
REMARK  4 active torsions:
REMARK  status: ('A' for Active; 'I' for Inactive)
REMARK    1  A    between atoms: C_6  and  N_7
REMARK    2  A    between atoms: C_8  and  C_9
REMARK    3  A    between atoms: C_12  and  C_13
REMARK    4  A    between atoms: N_14  and  C_15
REMARK                            x       y       z     vdW  Elec       q    Type
REMARK                         _______ _______ _______ _____ _____    ______ ____
ROOT
ATOM      1  C   UNL     1      -9.185   6.587 130.847  0.00  0.00    +0.000 A 
ATOM      2  C   UNL     1      -7.798   6.750 130.812  0.00  0.00    +0.000 A 
ATOM      3  C   UNL     1      -7.039   6.381 131.931  0.00  0.00    +0.000 A 
ATOM      4  C   UNL     1      -7.683   5.909 133.085  0.00  0.00    +0.000 A 
ATOM      5  C   UNL     1      -9.065   5.720 133.099  0.00  0.00    +0.000 A 
ATOM      6  C   UNL     1      -9.814   6.058 131.978  0.00  0.00    +0.000 A 
ENDROOT
BRANCH   1   8
ATOM      7  N   UNL     1      -9.784   8.028 129.048  0.00  0.00    +0.000 NA
ATOM      8  C   UNL     1     -10.047   6.954 129.709  0.00  0.00    +0.000 C 
BRANCH   7  14
ATOM      9  O   UNL     1     -12.609   9.083 129.402  0.00  0.00    +0.000 OA
ATOM     10  C   UNL     1     -12.166   8.473 128.433  0.00  0.00    +0.000 C 
ATOM     11  N   UNL     1     -12.920   7.842 127.484  0.00  0.00    +0.000 N 
ATOM     12  O   UNL     1     -12.157   6.963 126.692  0.00  0.00    +0.000 OA
ATOM     13  C   UNL     1     -10.787   7.330 126.908  0.00  0.00    +0.000 C 
ATOM     14  C   UNL     1     -10.733   8.403 127.994  0.00  0.00    +0.000 C 
ATOM     15  H   UNL     1     -13.924   7.878 127.385  0.00  0.00    +0.000 HD
ENDBRANCH   7  14
ENDBRANCH   1   8
BRANCH   4  16
ATOM     16  C   UNL     1      -6.900   5.704 134.322  0.00  0.00    +0.000 C 
ATOM     17  N   UNL     1      -7.443   5.791 135.482  0.00  0.00    +0.000 NA
BRANCH  17  18
ATOM     18  C   UNL     1      -6.627   5.661 136.700  0.00  0.00    +0.000 C 
ATOM     19  C   UNL     1      -5.289   6.359 136.475  0.00  0.00    +0.000 C 
ATOM     20  O   UNL     1      -4.797   6.729 137.768  0.00  0.00    +0.000 OA
ATOM     21  N   UNL     1      -5.956   6.896 138.554  0.00  0.00    +0.000 N 
ATOM     22  C   UNL     1      -7.074   6.398 137.939  0.00  0.00    +0.000 C 
ATOM     23  O   UNL     1      -8.205   6.492 138.402  0.00  0.00    +0.000 OA
ATOM     24  H   UNL     1      -5.963   7.531 139.341  0.00  0.00    +0.000 HD
ENDBRANCH  17  18
ENDBRANCH   4  16
TORSDOF 4
ENDMDL
MODEL 5
REMARK VINA RESULT:      -6.9      7.399      9.408
REMARK  Name = Terizidone
REMARK  4 active torsions:
REMARK  status: ('A' for Active; 'I' for Inactive)
REMARK    1  A    between atoms: C_6  and  N_7
REMARK    2  A    between atoms: C_8  and  C_9
REMARK    3  A    between atoms: C_12  and  C_13
REMARK    4  A    between atoms: N_14  and  C_15
REMARK                            x       y       z     vdW  Elec       q    Type
REMARK                         _______ _______ _______ _____ _____    ______ ____
ROOT
ATOM      1  C   UNL     1      -9.253   6.483 131.487  0.00  0.00    +0.000 A 
ATOM      2  C   UNL     1      -8.189   6.942 130.708  0.00  0.00    +0.000 A 
ATOM      3  C   UNL     1      -6.877   6.752 131.166  0.00  0.00    +0.000 A 
ATOM      4  C   UNL     1      -6.655   6.160 132.418  0.00  0.00    +0.000 A 
ATOM      5  C   UNL     1      -7.723   5.677 133.173  0.00  0.00    +0.000 A 
ATOM      6  C   UNL     1      -9.022   5.837 132.705  0.00  0.00    +0.000 A 
ENDROOT
BRANCH   1   8
ATOM      7  N   UNL     1     -10.928   7.428 130.082  0.00  0.00    +0.000 NA
ATOM      8  C   UNL     1     -10.658   6.647 131.071  0.00  0.00    +0.000 C 
BRANCH   7  14
ATOM      9  O   UNL     1     -12.455   6.439 127.650  0.00  0.00    +0.000 OA
ATOM     10  C   UNL     1     -12.720   7.421 128.339  0.00  0.00    +0.000 C 
ATOM     11  N   UNL     1     -13.527   8.456 127.960  0.00  0.00    +0.000 N 
ATOM     12  O   UNL     1     -13.388   9.578 128.800  0.00  0.00    +0.000 OA
ATOM     13  C   UNL     1     -12.735   9.101 129.984  0.00  0.00    +0.000 C 
ATOM     14  C   UNL     1     -12.347   7.638 129.776  0.00  0.00    +0.000 C 
ATOM     15  H   UNL     1     -14.093   8.510 127.126  0.00  0.00    +0.000 HD
ENDBRANCH   7  14
ENDBRANCH   1   8
BRANCH   4  16
ATOM     16  C   UNL     1      -5.288   6.137 132.980  0.00  0.00    +0.000 C 
ATOM     17  N   UNL     1      -4.281   6.576 132.316  0.00  0.00    +0.000 NA
BRANCH  17  18
ATOM     18  C   UNL     1      -2.920   6.471 132.866  0.00  0.00    +0.000 C 
ATOM     19  C   UNL     1      -2.183   5.344 132.148  0.00  0.00    +0.000 C 
ATOM     20  O   UNL     1      -0.785   5.638 132.249  0.00  0.00    +0.000 OA
ATOM     21  N   UNL     1      -0.724   7.044 132.349  0.00  0.00    +0.000 N 
ATOM     22  C   UNL     1      -1.953   7.598 132.594  0.00  0.00    +0.000 C 
ATOM     23  O   UNL     1      -2.156   8.805 132.651  0.00  0.00    +0.000 OA
ATOM     24  H   UNL     1       0.086   7.553 132.023  0.00  0.00    +0.000 HD
ENDBRANCH  17  18
ENDBRANCH   4  16
TORSDOF 4
ENDMDL
MODEL 6
REMARK VINA RESULT:      -6.7      7.084      9.531
REMARK  Name = Terizidone
REMARK  4 active torsions:
REMARK  status: ('A' for Active; 'I' for Inactive)
REMARK    1  A    between atoms: C_6  and  N_7
REMARK    2  A    between atoms: C_8  and  C_9
REMARK    3  A    between atoms: C_12  and  C_13
REMARK    4  A    between atoms: N_14  and  C_15
REMARK                            x       y       z     vdW  Elec       q    Type
REMARK                         _______ _______ _______ _____ _____    ______ ____
ROOT
ATOM      1  C   UNL     1      -7.305   5.826 132.690  0.00  0.00    +0.000 A 
ATOM      2  C   UNL     1      -6.969   6.530 131.532  0.00  0.00    +0.000 A 
ATOM      3  C   UNL     1      -7.994   7.027 130.714  0.00  0.00    +0.000 A 
ATOM      4  C   UNL     1      -9.333   6.765 131.038  0.00  0.00    +0.000 A 
ATOM      5  C   UNL     1      -9.659   6.088 132.213  0.00  0.00    +0.000 A 
ATOM      6  C   UNL     1      -8.643   5.622 133.039  0.00  0.00    +0.000 A 
ENDROOT
BRANCH   1   8
ATOM      7  N   UNL     1      -5.042   5.532 133.369  0.00  0.00    +0.000 NA
ATOM      8  C   UNL     1      -6.283   5.274 133.597  0.00  0.00    +0.000 C 
BRANCH   7  14
ATOM      9  O   UNL     1      -2.426   4.232 132.538  0.00  0.00    +0.000 OA
ATOM     10  C   UNL     1      -3.102   3.962 133.526  0.00  0.00    +0.000 C 
ATOM     11  N   UNL     1      -3.013   2.808 134.252  0.00  0.00    +0.000 N 
ATOM     12  O   UNL     1      -4.115   2.630 135.111  0.00  0.00    +0.000 OA
ATOM     13  C   UNL     1      -4.750   3.912 135.203  0.00  0.00    +0.000 C 
ATOM     14  C   UNL     1      -4.060   4.873 134.237  0.00  0.00    +0.000 C 
ATOM     15  H   UNL     1      -2.321   2.079 134.150  0.00  0.00    +0.000 HD
ENDBRANCH   7  14
ENDBRANCH   1   8
BRANCH   4  16
ATOM     16  C   UNL     1     -10.397   7.122 130.076  0.00  0.00    +0.000 C 
ATOM     17  N   UNL     1     -10.191   7.960 129.126  0.00  0.00    +0.000 NA
BRANCH  17  18
ATOM     18  C   UNL     1     -11.288   8.359 128.230  0.00  0.00    +0.000 C 
ATOM     19  C   UNL     1     -11.785   7.126 127.479  0.00  0.00    +0.000 C 
ATOM     20  O   UNL     1     -13.143   7.392 127.109  0.00  0.00    +0.000 OA
ATOM     21  N   UNL     1     -13.610   8.289 128.092  0.00  0.00    +0.000 N 
ATOM     22  C   UNL     1     -12.591   8.800 128.852  0.00  0.00    +0.000 C 
ATOM     23  O   UNL     1     -12.764   9.545 129.809  0.00  0.00    +0.000 OA
ATOM     24  H   UNL     1     -14.590   8.326 128.337  0.00  0.00    +0.000 HD
ENDBRANCH  17  18
ENDBRANCH   4  16
TORSDOF 4
ENDMDL
MODEL 7
REMARK VINA RESULT:      -6.7      6.168      9.086
REMARK  Name = Terizidone
REMARK  4 active torsions:
REMARK  status: ('A' for Active; 'I' for Inactive)
REMARK    1  A    between atoms: C_6  and  N_7
REMARK    2  A    between atoms: C_8  and  C_9
REMARK    3  A    between atoms: C_12  and  C_13
REMARK    4  A    between atoms: N_14  and  C_15
REMARK                            x       y       z     vdW  Elec       q    Type
REMARK                         _______ _______ _______ _____ _____    ______ ____
ROOT
ATOM      1  C   UNL     1      -7.738   6.565 131.371  0.00  0.00    +0.000 A 
ATOM      2  C   UNL     1      -6.541   7.035 130.825  0.00  0.00    +0.000 A 
ATOM      3  C   UNL     1      -5.341   6.803 131.512  0.00  0.00    +0.000 A 
ATOM      4  C   UNL     1      -5.364   6.156 132.756  0.00  0.00    +0.000 A 
ATOM      5  C   UNL     1      -6.560   5.662 133.277  0.00  0.00    +0.000 A 
ATOM      6  C   UNL     1      -7.746   5.866 132.581  0.00  0.00    +0.000 A 
ENDROOT
BRANCH   1   8
ATOM      7  N   UNL     1      -9.186   6.377 129.490  0.00  0.00    +0.000 NA
ATOM      8  C   UNL     1      -9.037   6.772 130.707  0.00  0.00    +0.000 C 
BRANCH   7  14
ATOM      9  O   UNL     1      -9.788   6.396 126.513  0.00  0.00    +0.000 OA
ATOM     10  C   UNL     1     -10.357   7.046 127.385  0.00  0.00    +0.000 C 
ATOM     11  N   UNL     1     -11.125   8.155 127.167  0.00  0.00    +0.000 N 
ATOM     12  O   UNL     1     -11.373   8.875 128.353  0.00  0.00    +0.000 OA
ATOM     13  C   UNL     1     -11.057   7.979 129.427  0.00  0.00    +0.000 C 
ATOM     14  C   UNL     1     -10.462   6.700 128.841  0.00  0.00    +0.000 C 
ATOM     15  H   UNL     1     -11.416   8.526 126.274  0.00  0.00    +0.000 HD
ENDBRANCH   7  14
ENDBRANCH   1   8
BRANCH   4  16
ATOM     16  C   UNL     1      -4.127   6.085 133.562  0.00  0.00    +0.000 C 
ATOM     17  N   UNL     1      -3.062   6.711 133.215  0.00  0.00    +0.000 NA
BRANCH  17  18
ATOM     18  C   UNL     1      -1.820   6.562 133.992  0.00  0.00    +0.000 C 
ATOM     19  C   UNL     1      -0.630   6.842 133.078  0.00  0.00    +0.000 C 
ATOM     20  O   UNL     1       0.445   7.267 133.925  0.00  0.00    +0.000 OA
ATOM     21  N   UNL     1      -0.192   7.851 135.040  0.00  0.00    +0.000 N 
ATOM     22  C   UNL     1      -1.533   7.573 135.075  0.00  0.00    +0.000 C 
ATOM     23  O   UNL     1      -2.301   8.030 135.912  0.00  0.00    +0.000 OA
ATOM     24  H   UNL     1       0.263   8.579 135.575  0.00  0.00    +0.000 HD
ENDBRANCH  17  18
ENDBRANCH   4  16
TORSDOF 4
ENDMDL
MODEL 8
REMARK VINA RESULT:      -6.7      7.725     11.044
REMARK  Name = Terizidone
REMARK  4 active torsions:
REMARK  status: ('A' for Active; 'I' for Inactive)
REMARK    1  A    between atoms: C_6  and  N_7
REMARK    2  A    between atoms: C_8  and  C_9
REMARK    3  A    between atoms: C_12  and  C_13
REMARK    4  A    between atoms: N_14  and  C_15
REMARK                            x       y       z     vdW  Elec       q    Type
REMARK                         _______ _______ _______ _____ _____    ______ ____
ROOT
ATOM      1  C   UNL     1      -7.132  -3.115 129.184  0.00  0.00    +0.000 A 
ATOM      2  C   UNL     1      -8.334  -3.575 128.642  0.00  0.00    +0.000 A 
ATOM      3  C   UNL     1      -8.717  -3.139 127.366  0.00  0.00    +0.000 A 
ATOM      4  C   UNL     1      -7.923  -2.211 126.678  0.00  0.00    +0.000 A 
ATOM      5  C   UNL     1      -6.708  -1.782 127.214  0.00  0.00    +0.000 A 
ATOM      6  C   UNL     1      -6.314  -2.237 128.467  0.00  0.00    +0.000 A 
ENDROOT
BRANCH   1   8
ATOM      7  N   UNL     1      -5.868  -2.750 131.169  0.00  0.00    +0.000 NA
ATOM      8  C   UNL     1      -6.664  -3.528 130.519  0.00  0.00    +0.000 C 
BRANCH   7  14
ATOM      9  O   UNL     1      -3.091  -3.846 131.725  0.00  0.00    +0.000 OA
ATOM     10  C   UNL     1      -4.125  -4.114 132.331  0.00  0.00    +0.000 C 
ATOM     11  N   UNL     1      -4.308  -5.204 133.134  0.00  0.00    +0.000 N 
ATOM     12  O   UNL     1      -5.667  -5.430 133.426  0.00  0.00    +0.000 OA
ATOM     13  C   UNL     1      -6.347  -4.211 133.095  0.00  0.00    +0.000 C 
ATOM     14  C   UNL     1      -5.349  -3.254 132.445  0.00  0.00    +0.000 C 
ATOM     15  H   UNL     1      -3.606  -5.869 133.425  0.00  0.00    +0.000 HD
ENDBRANCH   7  14
ENDBRANCH   1   8
BRANCH   4  16
ATOM     16  C   UNL     1      -8.425  -1.611 125.424  0.00  0.00    +0.000 C 
ATOM     17  N   UNL     1      -7.983  -0.486 124.993  0.00  0.00    +0.000 NA
BRANCH  17  18
ATOM     18  C   UNL     1      -8.554   0.128 123.783  0.00  0.00    +0.000 C 
ATOM     19  C   UNL     1      -9.377  -0.921 123.040  0.00  0.00    +0.000 C 
ATOM     20  O   UNL     1     -10.350  -0.206 122.267  0.00  0.00    +0.000 OA
ATOM     21  N   UNL     1     -10.561   0.991 122.983  0.00  0.00    +0.000 N 
ATOM     22  C   UNL     1      -9.616   1.186 123.955  0.00  0.00    +0.000 C 
ATOM     23  O   UNL     1      -9.637   2.121 124.746  0.00  0.00    +0.000 OA
ATOM     24  H   UNL     1     -11.445   1.478 122.929  0.00  0.00    +0.000 HD
ENDBRANCH  17  18
ENDBRANCH   4  16
TORSDOF 4
ENDMDL
MODEL 9
REMARK VINA RESULT:      -6.7      7.213      7.977
REMARK  Name = Terizidone
REMARK  4 active torsions:
REMARK  status: ('A' for Active; 'I' for Inactive)
REMARK    1  A    between atoms: C_6  and  N_7
REMARK    2  A    between atoms: C_8  and  C_9
REMARK    3  A    between atoms: C_12  and  C_13
REMARK    4  A    between atoms: N_14  and  C_15
REMARK                            x       y       z     vdW  Elec       q    Type
REMARK                         _______ _______ _______ _____ _____    ______ ____
ROOT
ATOM      1  C   UNL     1      -8.432  -1.995 126.634  0.00  0.00    +0.000 A 
ATOM      2  C   UNL     1      -8.771  -3.290 127.033  0.00  0.00    +0.000 A 
ATOM      3  C   UNL     1      -8.494  -3.692 128.347  0.00  0.00    +0.000 A 
ATOM      4  C   UNL     1      -7.835  -2.816 129.221  0.00  0.00    +0.000 A 
ATOM      5  C   UNL     1      -7.530  -1.514 128.823  0.00  0.00    +0.000 A 
ATOM      6  C   UNL     1      -7.832  -1.105 127.529  0.00  0.00    +0.000 A 
ENDROOT
BRANCH   1   8
ATOM      7  N   UNL     1      -8.111  -0.420 124.877  0.00  0.00    +0.000 NA
ATOM      8  C   UNL     1      -8.691  -1.501 125.270  0.00  0.00    +0.000 C 
BRANCH   7  14
ATOM      9  O   UNL     1      -9.253   2.311 124.199  0.00  0.00    +0.000 OA
ATOM     10  C   UNL     1      -9.402   1.270 123.564  0.00  0.00    +0.000 C 
ATOM     11  N   UNL     1     -10.381   1.045 122.638  0.00  0.00    +0.000 N 
ATOM     12  O   UNL     1     -10.511  -0.321 122.319  0.00  0.00    +0.000 OA
ATOM     13  C   UNL     1      -9.311  -0.949 122.791  0.00  0.00    +0.000 C 
ATOM     14  C   UNL     1      -8.483   0.085 123.551  0.00  0.00    +0.000 C 
ATOM     15  H   UNL     1     -11.037   1.720 122.271  0.00  0.00    +0.000 HD
ENDBRANCH   7  14
ENDBRANCH   1   8
BRANCH   4  16
ATOM     16  C   UNL     1      -7.376  -3.308 130.537  0.00  0.00    +0.000 C 
ATOM     17  N   UNL     1      -7.523  -2.611 131.604  0.00  0.00    +0.000 NA
BRANCH  17  18
ATOM     18  C   UNL     1      -6.987  -3.089 132.889  0.00  0.00    +0.000 C 
ATOM     19  C   UNL     1      -5.729  -3.911 132.624  0.00  0.00    +0.000 C 
ATOM     20  O   UNL     1      -4.940  -3.851 133.819  0.00  0.00    +0.000 OA
ATOM     21  N   UNL     1      -5.294  -2.622 134.415  0.00  0.00    +0.000 N 
ATOM     22  C   UNL     1      -6.411  -2.072 133.843  0.00  0.00    +0.000 C 
ATOM     23  O   UNL     1      -6.863  -0.976 134.151  0.00  0.00    +0.000 OA
ATOM     24  H   UNL     1      -4.641  -2.125 135.006  0.00  0.00    +0.000 HD
ENDBRANCH  17  18
ENDBRANCH   4  16
TORSDOF 4
ENDMDL
