MODEL 1
REMARK VINA RESULT:      -8.3      0.000      0.000
REMARK  Name = Testosterone undecanoate
REMARK  14 active torsions:
REMARK  status: ('A' for Active; 'I' for Inactive)
REMARK    1  A    between atoms: C_1  and  C_2
REMARK    2  A    between atoms: C_2  and  C_3
REMARK    3  A    between atoms: C_3  and  C_4
REMARK    4  A    between atoms: C_4  and  C_5
REMARK    5  A    between atoms: C_5  and  C_6
REMARK    6  A    between atoms: C_6  and  C_7
REMARK    7  A    between atoms: C_7  and  C_8
REMARK    8  A    between atoms: C_8  and  C_9
REMARK    9  A    between atoms: C_9  and  C_10
REMARK   10  A    between atoms: C_10  and  C_11
REMARK   11  A    between atoms: C_11  and  O_13
REMARK   12  A    between atoms: O_13  and  C_14
REMARK   13  A    between atoms: C_27  and  C_28
REMARK   14  A    between atoms: C_32  and  C_33
REMARK                            x       y       z     vdW  Elec       q    Type
REMARK                         _______ _______ _______ _____ _____    ______ ____
ROOT
ATOM      1  C   UNL     1      -9.130  -0.970 124.392  0.00  0.00    +0.000 C 
ATOM      2  C   UNL     1      -9.007  -2.494 124.123  0.00  0.00    +0.000 C 
ATOM      3  C   UNL     1      -8.458  -3.157 125.379  0.00  0.00    +0.000 C 
ATOM      4  C   UNL     1      -8.516  -2.059 126.425  0.00  0.00    +0.000 C 
ATOM      5  C   UNL     1      -7.644  -2.242 127.670  0.00  0.00    +0.000 C 
ATOM      6  C   UNL     1      -7.987  -3.554 128.392  0.00  0.00    +0.000 C 
ATOM      7  C   UNL     1      -7.205  -3.742 129.685  0.00  0.00    +0.000 C 
ATOM      8  C   UNL     1      -7.223  -2.527 130.579  0.00  0.00    +0.000 C 
ATOM      9  C   UNL     1      -7.464  -2.683 131.893  0.00  0.00    +0.000 C 
ATOM     10  C   UNL     1      -7.278  -1.567 132.846  0.00  0.00    +0.000 C 
ATOM     11  O   UNL     1      -7.496  -1.747 134.042  0.00  0.00    +0.000 OA
ATOM     12  C   UNL     1      -6.699  -0.282 132.312  0.00  0.00    +0.000 C 
ATOM     13  C   UNL     1      -7.236  -0.019 130.909  0.00  0.00    +0.000 C 
ATOM     14  C   UNL     1      -6.928  -1.174 129.913  0.00  0.00    +0.000 C 
ATOM     15  C   UNL     1      -5.429  -1.120 129.539  0.00  0.00    +0.000 C 
ATOM     16  C   UNL     1      -7.853  -1.043 128.638  0.00  0.00    +0.000 C 
ATOM     17  C   UNL     1      -7.775   0.328 127.911  0.00  0.00    +0.000 C 
ATOM     18  C   UNL     1      -8.548   0.398 126.570  0.00  0.00    +0.000 C 
ATOM     19  C   UNL     1      -8.200  -0.770 125.631  0.00  0.00    +0.000 C 
ATOM     20  C   UNL     1      -6.730  -0.653 125.168  0.00  0.00    +0.000 C 
ENDROOT
BRANCH   1  21
ATOM     21  O   UNL     1      -8.766  -0.195 123.221  0.00  0.00    +0.000 OA
BRANCH  21  22
ATOM     22  C   UNL     1      -9.717   0.696 122.795  0.00  0.00    +0.000 C 
ATOM     23  O   UNL     1     -10.914   0.438 122.686  0.00  0.00    +0.000 OA
BRANCH  22  24
ATOM     24  C   UNL     1      -9.147   2.054 122.456  0.00  0.00    +0.000 C 
BRANCH  24  25
ATOM     25  C   UNL     1      -8.586   2.698 123.733  0.00  0.00    +0.000 C 
BRANCH  25  26
ATOM     26  C   UNL     1      -7.070   2.611 123.812  0.00  0.00    +0.000 C 
BRANCH  26  27
ATOM     27  C   UNL     1      -6.480   3.959 124.218  0.00  0.00    +0.000 C 
BRANCH  27  28
ATOM     28  C   UNL     1      -5.475   4.427 123.177  0.00  0.00    +0.000 C 
BRANCH  28  29
ATOM     29  C   UNL     1      -5.558   3.559 121.931  0.00  0.00    +0.000 C 
BRANCH  29  30
ATOM     30  C   UNL     1      -5.749   4.430 120.699  0.00  0.00    +0.000 C 
BRANCH  30  31
ATOM     31  C   UNL     1      -6.947   3.952 119.896  0.00  0.00    +0.000 C 
BRANCH  31  33
ATOM     32  C   UNL     1      -5.939   5.715 118.446  0.00  0.00    +0.000 C 
ATOM     33  C   UNL     1      -7.143   4.819 118.660  0.00  0.00    +0.000 C 
ENDBRANCH  31  33
ENDBRANCH  30  31
ENDBRANCH  29  30
ENDBRANCH  28  29
ENDBRANCH  27  28
ENDBRANCH  26  27
ENDBRANCH  25  26
ENDBRANCH  24  25
ENDBRANCH  22  24
ENDBRANCH  21  22
ENDBRANCH   1  21
TORSDOF 11
ENDMDL
MODEL 2
REMARK VINA RESULT:      -8.2      1.535      2.948
REMARK  Name = Testosterone undecanoate
REMARK  14 active torsions:
REMARK  status: ('A' for Active; 'I' for Inactive)
REMARK    1  A    between atoms: C_1  and  C_2
REMARK    2  A    between atoms: C_2  and  C_3
REMARK    3  A    between atoms: C_3  and  C_4
REMARK    4  A    between atoms: C_4  and  C_5
REMARK    5  A    between atoms: C_5  and  C_6
REMARK    6  A    between atoms: C_6  and  C_7
REMARK    7  A    between atoms: C_7  and  C_8
REMARK    8  A    between atoms: C_8  and  C_9
REMARK    9  A    between atoms: C_9  and  C_10
REMARK   10  A    between atoms: C_10  and  C_11
REMARK   11  A    between atoms: C_11  and  O_13
REMARK   12  A    between atoms: O_13  and  C_14
REMARK   13  A    between atoms: C_27  and  C_28
REMARK   14  A    between atoms: C_32  and  C_33
REMARK                            x       y       z     vdW  Elec       q    Type
REMARK                         _______ _______ _______ _____ _____    ______ ____
ROOT
ATOM      1  C   UNL     1      -9.053  -1.040 124.559  0.00  0.00    +0.000 C 
ATOM      2  C   UNL     1      -8.883  -2.564 124.323  0.00  0.00    +0.000 C 
ATOM      3  C   UNL     1      -8.302  -3.181 125.589  0.00  0.00    +0.000 C 
ATOM      4  C   UNL     1      -8.388  -2.062 126.611  0.00  0.00    +0.000 C 
ATOM      5  C   UNL     1      -7.501  -2.188 127.852  0.00  0.00    +0.000 C 
ATOM      6  C   UNL     1      -7.795  -3.494 128.606  0.00  0.00    +0.000 C 
ATOM      7  C   UNL     1      -6.996  -3.627 129.896  0.00  0.00    +0.000 C 
ATOM      8  C   UNL     1      -7.048  -2.393 130.763  0.00  0.00    +0.000 C 
ATOM      9  C   UNL     1      -7.273  -2.528 132.082  0.00  0.00    +0.000 C 
ATOM     10  C   UNL     1      -7.117  -1.384 133.009  0.00  0.00    +0.000 C 
ATOM     11  O   UNL     1      -7.319  -1.545 134.210  0.00  0.00    +0.000 OA
ATOM     12  C   UNL     1      -6.585  -0.094 132.441  0.00  0.00    +0.000 C 
ATOM     13  C   UNL     1      -7.141   0.119 131.037  0.00  0.00    +0.000 C 
ATOM     14  C   UNL     1      -6.803  -1.047 130.064  0.00  0.00    +0.000 C 
ATOM     15  C   UNL     1      -5.309  -0.952 129.677  0.00  0.00    +0.000 C 
ATOM     16  C   UNL     1      -7.742  -0.975 128.795  0.00  0.00    +0.000 C 
ATOM     17  C   UNL     1      -7.715   0.381 128.036  0.00  0.00    +0.000 C 
ATOM     18  C   UNL     1      -8.500   0.395 126.701  0.00  0.00    +0.000 C 
ATOM     19  C   UNL     1      -8.121  -0.782 125.786  0.00  0.00    +0.000 C 
ATOM     20  C   UNL     1      -6.660  -0.627 125.308  0.00  0.00    +0.000 C 
ENDROOT
BRANCH   1  21
ATOM     21  O   UNL     1      -8.725  -0.280 123.369  0.00  0.00    +0.000 OA
BRANCH  21  22
ATOM     22  C   UNL     1      -9.652   0.663 123.006  0.00  0.00    +0.000 C 
ATOM     23  O   UNL     1     -10.646   0.434 122.319  0.00  0.00    +0.000 OA
BRANCH  22  24
ATOM     24  C   UNL     1      -9.331   2.042 123.533  0.00  0.00    +0.000 C 
BRANCH  24  25
ATOM     25  C   UNL     1      -8.568   2.828 122.456  0.00  0.00    +0.000 C 
BRANCH  25  26
ATOM     26  C   UNL     1      -7.061   2.677 122.581  0.00  0.00    +0.000 C 
BRANCH  26  27
ATOM     27  C   UNL     1      -6.628   2.841 124.035  0.00  0.00    +0.000 C 
BRANCH  27  28
ATOM     28  C   UNL     1      -5.875   4.150 124.214  0.00  0.00    +0.000 C 
BRANCH  28  29
ATOM     29  C   UNL     1      -5.345   4.267 125.634  0.00  0.00    +0.000 C 
BRANCH  29  30
ATOM     30  C   UNL     1      -5.357   2.905 126.310  0.00  0.00    +0.000 C 
BRANCH  30  31
ATOM     31  C   UNL     1      -3.941   2.365 126.433  0.00  0.00    +0.000 C 
BRANCH  31  33
ATOM     32  C   UNL     1      -1.546   2.983 126.760  0.00  0.00    +0.000 C 
ATOM     33  C   UNL     1      -2.931   3.504 126.430  0.00  0.00    +0.000 C 
ENDBRANCH  31  33
ENDBRANCH  30  31
ENDBRANCH  29  30
ENDBRANCH  28  29
ENDBRANCH  27  28
ENDBRANCH  26  27
ENDBRANCH  25  26
ENDBRANCH  24  25
ENDBRANCH  22  24
ENDBRANCH  21  22
ENDBRANCH   1  21
TORSDOF 11
ENDMDL
MODEL 3
REMARK VINA RESULT:      -7.9      4.584      8.504
REMARK  Name = Testosterone undecanoate
REMARK  14 active torsions:
REMARK  status: ('A' for Active; 'I' for Inactive)
REMARK    1  A    between atoms: C_1  and  C_2
REMARK    2  A    between atoms: C_2  and  C_3
REMARK    3  A    between atoms: C_3  and  C_4
REMARK    4  A    between atoms: C_4  and  C_5
REMARK    5  A    between atoms: C_5  and  C_6
REMARK    6  A    between atoms: C_6  and  C_7
REMARK    7  A    between atoms: C_7  and  C_8
REMARK    8  A    between atoms: C_8  and  C_9
REMARK    9  A    between atoms: C_9  and  C_10
REMARK   10  A    between atoms: C_10  and  C_11
REMARK   11  A    between atoms: C_11  and  O_13
REMARK   12  A    between atoms: O_13  and  C_14
REMARK   13  A    between atoms: C_27  and  C_28
REMARK   14  A    between atoms: C_32  and  C_33
REMARK                            x       y       z     vdW  Elec       q    Type
REMARK                         _______ _______ _______ _____ _____    ______ ____
ROOT
ATOM      1  C   UNL     1      -6.880  -0.521 132.913  0.00  0.00    +0.000 C 
ATOM      2  C   UNL     1      -6.011   0.182 133.990  0.00  0.00    +0.000 C 
ATOM      3  C   UNL     1      -6.378   1.660 134.009  0.00  0.00    +0.000 C 
ATOM      4  C   UNL     1      -7.619   1.738 133.138  0.00  0.00    +0.000 C 
ATOM      5  C   UNL     1      -7.993   3.116 132.587  0.00  0.00    +0.000 C 
ATOM      6  C   UNL     1      -8.194   4.126 133.727  0.00  0.00    +0.000 C 
ATOM      7  C   UNL     1      -8.650   5.493 133.235  0.00  0.00    +0.000 C 
ATOM      8  C   UNL     1      -9.803   5.427 132.264  0.00  0.00    +0.000 C 
ATOM      9  C   UNL     1     -10.843   6.263 132.424  0.00  0.00    +0.000 C 
ATOM     10  C   UNL     1     -11.890   6.395 131.385  0.00  0.00    +0.000 C 
ATOM     11  O   UNL     1     -12.821   7.177 131.558  0.00  0.00    +0.000 OA
ATOM     12  C   UNL     1     -11.689   5.647 130.093  0.00  0.00    +0.000 C 
ATOM     13  C   UNL     1     -11.047   4.292 130.377  0.00  0.00    +0.000 C 
ATOM     14  C   UNL     1      -9.685   4.407 131.120  0.00  0.00    +0.000 C 
ATOM     15  C   UNL     1      -8.615   4.902 130.120  0.00  0.00    +0.000 C 
ATOM     16  C   UNL     1      -9.297   3.009 131.748  0.00  0.00    +0.000 C 
ATOM     17  C   UNL     1      -9.260   1.827 130.740  0.00  0.00    +0.000 C 
ATOM     18  C   UNL     1      -8.717   0.497 131.317  0.00  0.00    +0.000 C 
ATOM     19  C   UNL     1      -7.370   0.678 132.039  0.00  0.00    +0.000 C 
ATOM     20  C   UNL     1      -6.274   1.064 131.021  0.00  0.00    +0.000 C 
ENDROOT
BRANCH   1  21
ATOM     21  O   UNL     1      -6.124  -1.531 132.199  0.00  0.00    +0.000 OA
BRANCH  21  22
ATOM     22  C   UNL     1      -6.722  -2.763 132.126  0.00  0.00    +0.000 C 
ATOM     23  O   UNL     1      -7.503  -3.209 132.964  0.00  0.00    +0.000 OA
BRANCH  22  24
ATOM     24  C   UNL     1      -6.320  -3.544 130.896  0.00  0.00    +0.000 C 
BRANCH  24  25
ATOM     25  C   UNL     1      -6.718  -2.750 129.642  0.00  0.00    +0.000 C 
BRANCH  25  26
ATOM     26  C   UNL     1      -8.222  -2.710 129.430  0.00  0.00    +0.000 C 
BRANCH  26  27
ATOM     27  C   UNL     1      -8.613  -3.564 128.227  0.00  0.00    +0.000 C 
BRANCH  27  28
ATOM     28  C   UNL     1      -8.346  -2.806 126.935  0.00  0.00    +0.000 C 
BRANCH  28  29
ATOM     29  C   UNL     1      -9.357  -3.200 125.871  0.00  0.00    +0.000 C 
BRANCH  29  30
ATOM     30  C   UNL     1      -8.638  -3.629 124.600  0.00  0.00    +0.000 C 
BRANCH  30  31
ATOM     31  C   UNL     1      -9.349  -3.069 123.379  0.00  0.00    +0.000 C 
BRANCH  31  33
ATOM     32  C   UNL     1      -7.119  -2.039 122.939  0.00  0.00    +0.000 C 
ATOM     33  C   UNL     1      -8.620  -1.842 122.850  0.00  0.00    +0.000 C 
ENDBRANCH  31  33
ENDBRANCH  30  31
ENDBRANCH  29  30
ENDBRANCH  28  29
ENDBRANCH  27  28
ENDBRANCH  26  27
ENDBRANCH  25  26
ENDBRANCH  24  25
ENDBRANCH  22  24
ENDBRANCH  21  22
ENDBRANCH   1  21
TORSDOF 11
ENDMDL
MODEL 4
REMARK VINA RESULT:      -7.5      5.020      7.702
REMARK  Name = Testosterone undecanoate
REMARK  14 active torsions:
REMARK  status: ('A' for Active; 'I' for Inactive)
REMARK    1  A    between atoms: C_1  and  C_2
REMARK    2  A    between atoms: C_2  and  C_3
REMARK    3  A    between atoms: C_3  and  C_4
REMARK    4  A    between atoms: C_4  and  C_5
REMARK    5  A    between atoms: C_5  and  C_6
REMARK    6  A    between atoms: C_6  and  C_7
REMARK    7  A    between atoms: C_7  and  C_8
REMARK    8  A    between atoms: C_8  and  C_9
REMARK    9  A    between atoms: C_9  and  C_10
REMARK   10  A    between atoms: C_10  and  C_11
REMARK   11  A    between atoms: C_11  and  O_13
REMARK   12  A    between atoms: O_13  and  C_14
REMARK   13  A    between atoms: C_27  and  C_28
REMARK   14  A    between atoms: C_32  and  C_33
REMARK                            x       y       z     vdW  Elec       q    Type
REMARK                         _______ _______ _______ _____ _____    ______ ____
ROOT
ATOM      1  C   UNL     1      -5.236   0.536 127.544  0.00  0.00    +0.000 C 
ATOM      2  C   UNL     1      -5.056   1.338 126.228  0.00  0.00    +0.000 C 
ATOM      3  C   UNL     1      -4.475   2.702 126.577  0.00  0.00    +0.000 C 
ATOM      4  C   UNL     1      -4.092   2.572 128.039  0.00  0.00    +0.000 C 
ATOM      5  C   UNL     1      -3.889   3.872 128.821  0.00  0.00    +0.000 C 
ATOM      6  C   UNL     1      -2.811   4.745 128.162  0.00  0.00    +0.000 C 
ATOM      7  C   UNL     1      -2.512   6.014 128.950  0.00  0.00    +0.000 C 
ATOM      8  C   UNL     1      -2.286   5.767 130.421  0.00  0.00    +0.000 C 
ATOM      9  C   UNL     1      -1.243   6.355 131.032  0.00  0.00    +0.000 C 
ATOM     10  C   UNL     1      -1.099   6.327 132.505  0.00  0.00    +0.000 C 
ATOM     11  O   UNL     1      -0.140   6.885 133.032  0.00  0.00    +0.000 OA
ATOM     12  C   UNL     1      -2.222   5.718 133.304  0.00  0.00    +0.000 C 
ATOM     13  C   UNL     1      -2.790   4.514 132.560  0.00  0.00    +0.000 C 
ATOM     14  C   UNL     1      -3.306   4.867 131.135  0.00  0.00    +0.000 C 
ATOM     15  C   UNL     1      -4.641   5.635 131.268  0.00  0.00    +0.000 C 
ATOM     16  C   UNL     1      -3.474   3.545 130.284  0.00  0.00    +0.000 C 
ATOM     17  C   UNL     1      -4.381   2.461 130.930  0.00  0.00    +0.000 C 
ATOM     18  C   UNL     1      -4.683   1.242 130.025  0.00  0.00    +0.000 C 
ATOM     19  C   UNL     1      -5.189   1.657 128.632  0.00  0.00    +0.000 C 
ATOM     20  C   UNL     1      -6.577   2.326 128.754  0.00  0.00    +0.000 C 
ENDROOT
BRANCH   1  21
ATOM     21  O   UNL     1      -6.456  -0.247 127.524  0.00  0.00    +0.000 OA
BRANCH  21  22
ATOM     22  C   UNL     1      -6.314  -1.556 127.906  0.00  0.00    +0.000 C 
ATOM     23  O   UNL     1      -5.234  -2.126 128.050  0.00  0.00    +0.000 OA
BRANCH  22  24
ATOM     24  C   UNL     1      -7.635  -2.255 128.131  0.00  0.00    +0.000 C 
BRANCH  24  25
ATOM     25  C   UNL     1      -7.929  -3.174 126.936  0.00  0.00    +0.000 C 
BRANCH  25  26
ATOM     26  C   UNL     1      -9.251  -2.847 126.260  0.00  0.00    +0.000 C 
BRANCH  26  27
ATOM     27  C   UNL     1      -9.020  -1.963 125.038  0.00  0.00    +0.000 C 
BRANCH  27  28
ATOM     28  C   UNL     1      -9.068  -2.798 123.768  0.00  0.00    +0.000 C 
BRANCH  28  29
ATOM     29  C   UNL     1      -8.242  -2.146 122.672  0.00  0.00    +0.000 C 
BRANCH  29  30
ATOM     30  C   UNL     1      -6.976  -1.543 123.261  0.00  0.00    +0.000 C 
BRANCH  30  31
ATOM     31  C   UNL     1      -5.779  -2.428 122.955  0.00  0.00    +0.000 C 
BRANCH  31  33
ATOM     32  C   UNL     1      -4.527  -4.411 123.809  0.00  0.00    +0.000 C 
ATOM     33  C   UNL     1      -5.351  -3.199 124.196  0.00  0.00    +0.000 C 
ENDBRANCH  31  33
ENDBRANCH  30  31
ENDBRANCH  29  30
ENDBRANCH  28  29
ENDBRANCH  27  28
ENDBRANCH  26  27
ENDBRANCH  25  26
ENDBRANCH  24  25
ENDBRANCH  22  24
ENDBRANCH  21  22
ENDBRANCH   1  21
TORSDOF 11
ENDMDL
MODEL 5
REMARK VINA RESULT:      -7.5      4.984      8.026
REMARK  Name = Testosterone undecanoate
REMARK  14 active torsions:
REMARK  status: ('A' for Active; 'I' for Inactive)
REMARK    1  A    between atoms: C_1  and  C_2
REMARK    2  A    between atoms: C_2  and  C_3
REMARK    3  A    between atoms: C_3  and  C_4
REMARK    4  A    between atoms: C_4  and  C_5
REMARK    5  A    between atoms: C_5  and  C_6
REMARK    6  A    between atoms: C_6  and  C_7
REMARK    7  A    between atoms: C_7  and  C_8
REMARK    8  A    between atoms: C_8  and  C_9
REMARK    9  A    between atoms: C_9  and  C_10
REMARK   10  A    between atoms: C_10  and  C_11
REMARK   11  A    between atoms: C_11  and  O_13
REMARK   12  A    between atoms: O_13  and  C_14
REMARK   13  A    between atoms: C_27  and  C_28
REMARK   14  A    between atoms: C_32  and  C_33
REMARK                            x       y       z     vdW  Elec       q    Type
REMARK                         _______ _______ _______ _____ _____    ______ ____
ROOT
ATOM      1  C   UNL     1      -5.964   4.085 127.820  0.00  0.00    +0.000 C 
ATOM      2  C   UNL     1      -5.333   4.659 126.524  0.00  0.00    +0.000 C 
ATOM      3  C   UNL     1      -5.471   3.615 125.424  0.00  0.00    +0.000 C 
ATOM      4  C   UNL     1      -6.397   2.573 126.024  0.00  0.00    +0.000 C 
ATOM      5  C   UNL     1      -6.400   1.189 125.371  0.00  0.00    +0.000 C 
ATOM      6  C   UNL     1      -6.757   1.286 123.881  0.00  0.00    +0.000 C 
ATOM      7  C   UNL     1      -6.855  -0.075 123.204  0.00  0.00    +0.000 C 
ATOM      8  C   UNL     1      -7.691  -1.068 123.973  0.00  0.00    +0.000 C 
ATOM      9  C   UNL     1      -8.602  -1.806 123.314  0.00  0.00    +0.000 C 
ATOM     10  C   UNL     1      -9.291  -2.941 123.969  0.00  0.00    +0.000 C 
ATOM     11  O   UNL     1     -10.108  -3.603 123.334  0.00  0.00    +0.000 OA
ATOM     12  C   UNL     1      -8.852  -3.313 125.361  0.00  0.00    +0.000 C 
ATOM     13  C   UNL     1      -8.519  -2.051 126.151  0.00  0.00    +0.000 C 
ATOM     14  C   UNL     1      -7.413  -1.187 125.479  0.00  0.00    +0.000 C 
ATOM     15  C   UNL     1      -6.048  -1.884 125.680  0.00  0.00    +0.000 C 
ATOM     16  C   UNL     1      -7.423   0.269 126.096  0.00  0.00    +0.000 C 
ATOM     17  C   UNL     1      -7.282   0.325 127.642  0.00  0.00    +0.000 C 
ATOM     18  C   UNL     1      -7.120   1.749 128.229  0.00  0.00    +0.000 C 
ATOM     19  C   UNL     1      -6.013   2.552 127.522  0.00  0.00    +0.000 C 
ATOM     20  C   UNL     1      -4.635   1.918 127.816  0.00  0.00    +0.000 C 
ENDROOT
BRANCH   1  21
ATOM     21  O   UNL     1      -5.196   4.457 128.993  0.00  0.00    +0.000 OA
BRANCH  21  22
ATOM     22  C   UNL     1      -5.783   5.400 129.797  0.00  0.00    +0.000 C 
ATOM     23  O   UNL     1      -5.304   6.507 130.035  0.00  0.00    +0.000 OA
BRANCH  22  24
ATOM     24  C   UNL     1      -7.097   4.942 130.386  0.00  0.00    +0.000 C 
BRANCH  24  25
ATOM     25  C   UNL     1      -7.834   6.153 130.976  0.00  0.00    +0.000 C 
BRANCH  25  26
ATOM     26  C   UNL     1      -9.241   6.307 130.419  0.00  0.00    +0.000 C 
BRANCH  26  27
ATOM     27  C   UNL     1     -10.246   6.482 131.554  0.00  0.00    +0.000 C 
BRANCH  27  28
ATOM     28  C   UNL     1     -11.634   6.062 131.095  0.00  0.00    +0.000 C 
BRANCH  28  29
ATOM     29  C   UNL     1     -12.491   7.285 130.810  0.00  0.00    +0.000 C 
BRANCH  29  30
ATOM     30  C   UNL     1     -13.056   7.210 129.400  0.00  0.00    +0.000 C 
BRANCH  30  31
ATOM     31  C   UNL     1     -12.764   8.498 128.647  0.00  0.00    +0.000 C 
BRANCH  31  33
ATOM     32  C   UNL     1     -10.837   7.728 127.261  0.00  0.00    +0.000 C 
ATOM     33  C   UNL     1     -11.270   8.641 128.391  0.00  0.00    +0.000 C 
ENDBRANCH  31  33
ENDBRANCH  30  31
ENDBRANCH  29  30
ENDBRANCH  28  29
ENDBRANCH  27  28
ENDBRANCH  26  27
ENDBRANCH  25  26
ENDBRANCH  24  25
ENDBRANCH  22  24
ENDBRANCH  21  22
ENDBRANCH   1  21
TORSDOF 11
ENDMDL
MODEL 6
REMARK VINA RESULT:      -7.4      3.232      5.419
REMARK  Name = Testosterone undecanoate
REMARK  14 active torsions:
REMARK  status: ('A' for Active; 'I' for Inactive)
REMARK    1  A    between atoms: C_1  and  C_2
REMARK    2  A    between atoms: C_2  and  C_3
REMARK    3  A    between atoms: C_3  and  C_4
REMARK    4  A    between atoms: C_4  and  C_5
REMARK    5  A    between atoms: C_5  and  C_6
REMARK    6  A    between atoms: C_6  and  C_7
REMARK    7  A    between atoms: C_7  and  C_8
REMARK    8  A    between atoms: C_8  and  C_9
REMARK    9  A    between atoms: C_9  and  C_10
REMARK   10  A    between atoms: C_10  and  C_11
REMARK   11  A    between atoms: C_11  and  O_13
REMARK   12  A    between atoms: O_13  and  C_14
REMARK   13  A    between atoms: C_27  and  C_28
REMARK   14  A    between atoms: C_32  and  C_33
REMARK                            x       y       z     vdW  Elec       q    Type
REMARK                         _______ _______ _______ _____ _____    ______ ____
ROOT
ATOM      1  C   UNL     1      -7.060  -0.303 127.624  0.00  0.00    +0.000 C 
ATOM      2  C   UNL     1      -6.047  -1.207 126.873  0.00  0.00    +0.000 C 
ATOM      3  C   UNL     1      -5.488  -2.220 127.863  0.00  0.00    +0.000 C 
ATOM      4  C   UNL     1      -6.367  -2.054 129.089  0.00  0.00    +0.000 C 
ATOM      5  C   UNL     1      -5.820  -2.594 130.413  0.00  0.00    +0.000 C 
ATOM      6  C   UNL     1      -5.498  -4.092 130.303  0.00  0.00    +0.000 C 
ATOM      7  C   UNL     1      -5.029  -4.697 131.619  0.00  0.00    +0.000 C 
ATOM      8  C   UNL     1      -5.912  -4.343 132.791  0.00  0.00    +0.000 C 
ATOM      9  C   UNL     1      -6.283  -5.310 133.648  0.00  0.00    +0.000 C 
ATOM     10  C   UNL     1      -6.959  -4.988 134.925  0.00  0.00    +0.000 C 
ATOM     11  O   UNL     1      -7.274  -5.895 135.691  0.00  0.00    +0.000 OA
ATOM     12  C   UNL     1      -7.114  -3.533 135.284  0.00  0.00    +0.000 C 
ATOM     13  C   UNL     1      -7.407  -2.720 134.027  0.00  0.00    +0.000 C 
ATOM     14  C   UNL     1      -6.306  -2.865 132.937  0.00  0.00    +0.000 C 
ATOM     15  C   UNL     1      -5.062  -2.060 133.380  0.00  0.00    +0.000 C 
ATOM     16  C   UNL     1      -6.861  -2.364 131.544  0.00  0.00    +0.000 C 
ATOM     17  C   UNL     1      -7.426  -0.917 131.547  0.00  0.00    +0.000 C 
ATOM     18  C   UNL     1      -7.811  -0.367 130.151  0.00  0.00    +0.000 C 
ATOM     19  C   UNL     1      -6.682  -0.540 129.121  0.00  0.00    +0.000 C 
ATOM     20  C   UNL     1      -5.479   0.351 129.503  0.00  0.00    +0.000 C 
ENDROOT
BRANCH   1  21
ATOM     21  O   UNL     1      -6.971   1.075 127.180  0.00  0.00    +0.000 OA
BRANCH  21  22
ATOM     22  C   UNL     1      -8.169   1.669 126.879  0.00  0.00    +0.000 C 
ATOM     23  O   UNL     1      -9.116   1.760 127.659  0.00  0.00    +0.000 OA
BRANCH  22  24
ATOM     24  C   UNL     1      -8.227   2.206 125.468  0.00  0.00    +0.000 C 
BRANCH  24  25
ATOM     25  C   UNL     1      -9.460   1.627 124.758  0.00  0.00    +0.000 C 
BRANCH  25  26
ATOM     26  C   UNL     1      -9.313   0.145 124.450  0.00  0.00    +0.000 C 
BRANCH  26  27
ATOM     27  C   UNL     1      -8.128  -0.089 123.517  0.00  0.00    +0.000 C 
BRANCH  27  28
ATOM     28  C   UNL     1      -7.617  -1.514 123.665  0.00  0.00    +0.000 C 
BRANCH  28  29
ATOM     29  C   UNL     1      -8.494  -2.476 122.879  0.00  0.00    +0.000 C 
BRANCH  29  30
ATOM     30  C   UNL     1      -9.308  -3.339 123.831  0.00  0.00    +0.000 C 
BRANCH  30  31
ATOM     31  C   UNL     1      -8.530  -3.586 125.114  0.00  0.00    +0.000 C 
BRANCH  31  33
ATOM     32  C   UNL     1      -8.892  -3.866 127.567  0.00  0.00    +0.000 C 
ATOM     33  C   UNL     1      -9.330  -3.119 126.323  0.00  0.00    +0.000 C 
ENDBRANCH  31  33
ENDBRANCH  30  31
ENDBRANCH  29  30
ENDBRANCH  28  29
ENDBRANCH  27  28
ENDBRANCH  26  27
ENDBRANCH  25  26
ENDBRANCH  24  25
ENDBRANCH  22  24
ENDBRANCH  21  22
ENDBRANCH   1  21
TORSDOF 11
ENDMDL
MODEL 7
REMARK VINA RESULT:      -7.4      3.040      4.853
REMARK  Name = Testosterone undecanoate
REMARK  14 active torsions:
REMARK  status: ('A' for Active; 'I' for Inactive)
REMARK    1  A    between atoms: C_1  and  C_2
REMARK    2  A    between atoms: C_2  and  C_3
REMARK    3  A    between atoms: C_3  and  C_4
REMARK    4  A    between atoms: C_4  and  C_5
REMARK    5  A    between atoms: C_5  and  C_6
REMARK    6  A    between atoms: C_6  and  C_7
REMARK    7  A    between atoms: C_7  and  C_8
REMARK    8  A    between atoms: C_8  and  C_9
REMARK    9  A    between atoms: C_9  and  C_10
REMARK   10  A    between atoms: C_10  and  C_11
REMARK   11  A    between atoms: C_11  and  O_13
REMARK   12  A    between atoms: O_13  and  C_14
REMARK   13  A    between atoms: C_27  and  C_28
REMARK   14  A    between atoms: C_32  and  C_33
REMARK                            x       y       z     vdW  Elec       q    Type
REMARK                         _______ _______ _______ _____ _____    ______ ____
ROOT
ATOM      1  C   UNL     1      -7.174   1.199 126.224  0.00  0.00    +0.000 C 
ATOM      2  C   UNL     1      -6.038   0.633 125.331  0.00  0.00    +0.000 C 
ATOM      3  C   UNL     1      -5.253  -0.386 126.147  0.00  0.00    +0.000 C 
ATOM      4  C   UNL     1      -6.095  -0.579 127.395  0.00  0.00    +0.000 C 
ATOM      5  C   UNL     1      -5.398  -1.191 128.613  0.00  0.00    +0.000 C 
ATOM      6  C   UNL     1      -4.800  -2.563 128.271  0.00  0.00    +0.000 C 
ATOM      7  C   UNL     1      -4.168  -3.251 129.474  0.00  0.00    +0.000 C 
ATOM      8  C   UNL     1      -5.053  -3.255 130.696  0.00  0.00    +0.000 C 
ATOM      9  C   UNL     1      -5.194  -4.392 131.400  0.00  0.00    +0.000 C 
ATOM     10  C   UNL     1      -5.865  -4.401 132.719  0.00  0.00    +0.000 C 
ATOM     11  O   UNL     1      -5.967  -5.455 133.341  0.00  0.00    +0.000 OA
ATOM     12  C   UNL     1      -6.282  -3.074 133.299  0.00  0.00    +0.000 C 
ATOM     13  C   UNL     1      -6.778  -2.158 132.185  0.00  0.00    +0.000 C 
ATOM     14  C   UNL     1      -5.717  -1.921 131.073  0.00  0.00    +0.000 C 
ATOM     15  C   UNL     1      -4.633  -0.962 131.617  0.00  0.00    +0.000 C 
ATOM     16  C   UNL     1      -6.416  -1.340 129.779  0.00  0.00    +0.000 C 
ATOM     17  C   UNL     1      -7.248  -0.048 130.011  0.00  0.00    +0.000 C 
ATOM     18  C   UNL     1      -7.791   0.616 128.721  0.00  0.00    +0.000 C 
ATOM     19  C   UNL     1      -6.694   0.822 127.662  0.00  0.00    +0.000 C 
ATOM     20  C   UNL     1      -5.670   1.866 128.161  0.00  0.00    +0.000 C 
ENDROOT
BRANCH   1  21
ATOM     21  O   UNL     1      -7.369   2.617 125.995  0.00  0.00    +0.000 OA
BRANCH  21  22
ATOM     22  C   UNL     1      -8.505   2.944 125.299  0.00  0.00    +0.000 C 
ATOM     23  O   UNL     1      -8.819   4.087 124.975  0.00  0.00    +0.000 OA
BRANCH  22  24
ATOM     24  C   UNL     1      -9.360   1.743 124.966  0.00  0.00    +0.000 C 
BRANCH  24  25
ATOM     25  C   UNL     1      -9.589   1.693 123.448  0.00  0.00    +0.000 C 
BRANCH  25  26
ATOM     26  C   UNL     1      -9.850   0.282 122.944  0.00  0.00    +0.000 C 
BRANCH  26  27
ATOM     27  C   UNL     1      -8.612  -0.589 123.136  0.00  0.00    +0.000 C 
BRANCH  27  28
ATOM     28  C   UNL     1      -8.841  -1.589 124.260  0.00  0.00    +0.000 C 
BRANCH  28  29
ATOM     29  C   UNL     1      -8.940  -2.999 123.703  0.00  0.00    +0.000 C 
BRANCH  29  30
ATOM     30  C   UNL     1      -7.907  -3.897 124.367  0.00  0.00    +0.000 C 
BRANCH  30  31
ATOM     31  C   UNL     1      -6.674  -3.092 124.743  0.00  0.00    +0.000 C 
BRANCH  31  33
ATOM     32  C   UNL     1      -4.589  -4.152 123.872  0.00  0.00    +0.000 C 
ATOM     33  C   UNL     1      -5.657  -3.109 123.609  0.00  0.00    +0.000 C 
ENDBRANCH  31  33
ENDBRANCH  30  31
ENDBRANCH  29  30
ENDBRANCH  28  29
ENDBRANCH  27  28
ENDBRANCH  26  27
ENDBRANCH  25  26
ENDBRANCH  24  25
ENDBRANCH  22  24
ENDBRANCH  21  22
ENDBRANCH   1  21
TORSDOF 11
ENDMDL
MODEL 8
REMARK VINA RESULT:      -7.3      3.511      5.551
REMARK  Name = Testosterone undecanoate
REMARK  14 active torsions:
REMARK  status: ('A' for Active; 'I' for Inactive)
REMARK    1  A    between atoms: C_1  and  C_2
REMARK    2  A    between atoms: C_2  and  C_3
REMARK    3  A    between atoms: C_3  and  C_4
REMARK    4  A    between atoms: C_4  and  C_5
REMARK    5  A    between atoms: C_5  and  C_6
REMARK    6  A    between atoms: C_6  and  C_7
REMARK    7  A    between atoms: C_7  and  C_8
REMARK    8  A    between atoms: C_8  and  C_9
REMARK    9  A    between atoms: C_9  and  C_10
REMARK   10  A    between atoms: C_10  and  C_11
REMARK   11  A    between atoms: C_11  and  O_13
REMARK   12  A    between atoms: O_13  and  C_14
REMARK   13  A    between atoms: C_27  and  C_28
REMARK   14  A    between atoms: C_32  and  C_33
REMARK                            x       y       z     vdW  Elec       q    Type
REMARK                         _______ _______ _______ _____ _____    ______ ____
ROOT
ATOM      1  C   UNL     1      -7.822  -1.809 128.070  0.00  0.00    +0.000 C 
ATOM      2  C   UNL     1      -7.586  -2.620 129.372  0.00  0.00    +0.000 C 
ATOM      3  C   UNL     1      -7.594  -1.650 130.546  0.00  0.00    +0.000 C 
ATOM      4  C   UNL     1      -8.087  -0.349 129.940  0.00  0.00    +0.000 C 
ATOM      5  C   UNL     1      -7.802   0.933 130.725  0.00  0.00    +0.000 C 
ATOM      6  C   UNL     1      -8.398   0.855 132.138  0.00  0.00    +0.000 C 
ATOM      7  C   UNL     1      -8.213   2.141 132.933  0.00  0.00    +0.000 C 
ATOM      8  C   UNL     1      -8.609   3.380 132.167  0.00  0.00    +0.000 C 
ATOM      9  C   UNL     1      -9.366   4.311 132.774  0.00  0.00    +0.000 C 
ATOM     10  C   UNL     1      -9.599   5.636 132.154  0.00  0.00    +0.000 C 
ATOM     11  O   UNL     1     -10.287   6.467 132.741  0.00  0.00    +0.000 OA
ATOM     12  C   UNL     1      -8.864   5.946 130.876  0.00  0.00    +0.000 C 
ATOM     13  C   UNL     1      -8.780   4.692 130.012  0.00  0.00    +0.000 C 
ATOM     14  C   UNL     1      -8.079   3.504 130.730  0.00  0.00    +0.000 C 
ATOM     15  C   UNL     1      -6.559   3.782 130.782  0.00  0.00    +0.000 C 
ATOM     16  C   UNL     1      -8.401   2.154 129.972  0.00  0.00    +0.000 C 
ATOM     17  C   UNL     1      -8.044   2.153 128.459  0.00  0.00    +0.000 C 
ATOM     18  C   UNL     1      -8.199   0.782 127.756  0.00  0.00    +0.000 C 
ATOM     19  C   UNL     1      -7.485  -0.350 128.515  0.00  0.00    +0.000 C 
ATOM     20  C   UNL     1      -5.956  -0.131 128.471  0.00  0.00    +0.000 C 
ENDROOT
BRANCH   1  21
ATOM     21  O   UNL     1      -7.018  -2.318 126.976  0.00  0.00    +0.000 OA
BRANCH  21  22
ATOM     22  C   UNL     1      -7.724  -2.708 125.867  0.00  0.00    +0.000 C 
ATOM     23  O   UNL     1      -8.853  -3.193 125.896  0.00  0.00    +0.000 OA
BRANCH  22  24
ATOM     24  C   UNL     1      -6.968  -2.489 124.577  0.00  0.00    +0.000 C 
BRANCH  24  25
ATOM     25  C   UNL     1      -6.616  -1.000 124.445  0.00  0.00    +0.000 C 
BRANCH  25  26
ATOM     26  C   UNL     1      -7.769  -0.176 123.894  0.00  0.00    +0.000 C 
BRANCH  26  27
ATOM     27  C   UNL     1      -7.557   1.305 124.197  0.00  0.00    +0.000 C 
BRANCH  27  28
ATOM     28  C   UNL     1      -6.239   1.508 124.928  0.00  0.00    +0.000 C 
BRANCH  28  29
ATOM     29  C   UNL     1      -5.968   2.990 125.131  0.00  0.00    +0.000 C 
BRANCH  29  30
ATOM     30  C   UNL     1      -5.247   3.214 126.451  0.00  0.00    +0.000 C 
BRANCH  30  31
ATOM     31  C   UNL     1      -3.947   2.427 126.482  0.00  0.00    +0.000 C 
BRANCH  31  33
ATOM     32  C   UNL     1      -1.518   2.982 126.608  0.00  0.00    +0.000 C 
ATOM     33  C   UNL     1      -2.876   3.191 127.248  0.00  0.00    +0.000 C 
ENDBRANCH  31  33
ENDBRANCH  30  31
ENDBRANCH  29  30
ENDBRANCH  28  29
ENDBRANCH  27  28
ENDBRANCH  26  27
ENDBRANCH  25  26
ENDBRANCH  24  25
ENDBRANCH  22  24
ENDBRANCH  21  22
ENDBRANCH   1  21
TORSDOF 11
ENDMDL
MODEL 9
REMARK VINA RESULT:      -7.3      5.773      9.274
REMARK  Name = Testosterone undecanoate
REMARK  14 active torsions:
REMARK  status: ('A' for Active; 'I' for Inactive)
REMARK    1  A    between atoms: C_1  and  C_2
REMARK    2  A    between atoms: C_2  and  C_3
REMARK    3  A    between atoms: C_3  and  C_4
REMARK    4  A    between atoms: C_4  and  C_5
REMARK    5  A    between atoms: C_5  and  C_6
REMARK    6  A    between atoms: C_6  and  C_7
REMARK    7  A    between atoms: C_7  and  C_8
REMARK    8  A    between atoms: C_8  and  C_9
REMARK    9  A    between atoms: C_9  and  C_10
REMARK   10  A    between atoms: C_10  and  C_11
REMARK   11  A    between atoms: C_11  and  O_13
REMARK   12  A    between atoms: O_13  and  C_14
REMARK   13  A    between atoms: C_27  and  C_28
REMARK   14  A    between atoms: C_32  and  C_33
REMARK                            x       y       z     vdW  Elec       q    Type
REMARK                         _______ _______ _______ _____ _____    ______ ____
ROOT
ATOM      1  C   UNL     1      -6.717  -0.311 133.263  0.00  0.00    +0.000 C 
ATOM      2  C   UNL     1      -5.874   0.471 134.305  0.00  0.00    +0.000 C 
ATOM      3  C   UNL     1      -6.282   1.937 134.245  0.00  0.00    +0.000 C 
ATOM      4  C   UNL     1      -7.519   1.935 133.367  0.00  0.00    +0.000 C 
ATOM      5  C   UNL     1      -7.929   3.272 132.743  0.00  0.00    +0.000 C 
ATOM      6  C   UNL     1      -8.163   4.334 133.828  0.00  0.00    +0.000 C 
ATOM      7  C   UNL     1      -8.654   5.660 133.264  0.00  0.00    +0.000 C 
ATOM      8  C   UNL     1      -9.800   5.511 132.292  0.00  0.00    +0.000 C 
ATOM      9  C   UNL     1     -10.864   6.325 132.404  0.00  0.00    +0.000 C 
ATOM     10  C   UNL     1     -11.909   6.374 131.357  0.00  0.00    +0.000 C 
ATOM     11  O   UNL     1     -12.862   7.138 131.485  0.00  0.00    +0.000 OA
ATOM     12  C   UNL     1     -11.680   5.565 130.106  0.00  0.00    +0.000 C 
ATOM     13  C   UNL     1     -11.002   4.246 130.462  0.00  0.00    +0.000 C 
ATOM     14  C   UNL     1      -9.648   4.437 131.204  0.00  0.00    +0.000 C 
ATOM     15  C   UNL     1      -8.587   4.909 130.184  0.00  0.00    +0.000 C 
ATOM     16  C   UNL     1      -9.225   3.085 131.905  0.00  0.00    +0.000 C 
ATOM     17  C   UNL     1      -9.150   1.854 130.961  0.00  0.00    +0.000 C 
ATOM     18  C   UNL     1      -8.573   0.571 131.609  0.00  0.00    +0.000 C 
ATOM     19  C   UNL     1      -7.236   0.827 132.326  0.00  0.00    +0.000 C 
ATOM     20  C   UNL     1      -6.146   1.190 131.292  0.00  0.00    +0.000 C 
ENDROOT
BRANCH   1  21
ATOM     21  O   UNL     1      -5.930  -1.335 132.605  0.00  0.00    +0.000 OA
BRANCH  21  22
ATOM     22  C   UNL     1      -6.280  -2.625 132.912  0.00  0.00    +0.000 C 
ATOM     23  O   UNL     1      -6.367  -3.071 134.054  0.00  0.00    +0.000 OA
BRANCH  22  24
ATOM     24  C   UNL     1      -6.549  -3.472 131.689  0.00  0.00    +0.000 C 
BRANCH  24  25
ATOM     25  C   UNL     1      -7.518  -2.724 130.761  0.00  0.00    +0.000 C 
BRANCH  25  26
ATOM     26  C   UNL     1      -8.022  -3.595 129.621  0.00  0.00    +0.000 C 
BRANCH  26  27
ATOM     27  C   UNL     1      -8.254  -2.752 128.370  0.00  0.00    +0.000 C 
BRANCH  27  28
ATOM     28  C   UNL     1      -7.241  -1.619 128.304  0.00  0.00    +0.000 C 
BRANCH  28  29
ATOM     29  C   UNL     1      -6.060  -2.014 127.433  0.00  0.00    +0.000 C 
BRANCH  29  30
ATOM     30  C   UNL     1      -4.764  -1.887 128.221  0.00  0.00    +0.000 C 
BRANCH  30  31
ATOM     31  C   UNL     1      -4.292  -3.257 128.682  0.00  0.00    +0.000 C 
BRANCH  31  33
ATOM     32  C   UNL     1      -3.381  -1.698 130.404  0.00  0.00    +0.000 C 
ATOM     33  C   UNL     1      -3.394  -3.129 129.905  0.00  0.00    +0.000 C 
ENDBRANCH  31  33
ENDBRANCH  30  31
ENDBRANCH  29  30
ENDBRANCH  28  29
ENDBRANCH  27  28
ENDBRANCH  26  27
ENDBRANCH  25  26
ENDBRANCH  24  25
ENDBRANCH  22  24
ENDBRANCH  21  22
ENDBRANCH   1  21
TORSDOF 11
ENDMDL
