MODEL 1
REMARK VINA RESULT:      -8.1      0.000      0.000
REMARK  Name = Testosterone
REMARK  3 active torsions:
REMARK  status: ('A' for Active; 'I' for Inactive)
REMARK    1  A    between atoms: C_5  and  O_6
REMARK    2  A    between atoms: C_7  and  C_8
REMARK    3  A    between atoms: C_23  and  C_24
REMARK                            x       y       z     vdW  Elec       q    Type
REMARK                         _______ _______ _______ _____ _____    ______ ____
ROOT
ATOM      1  C   UNL     1      -6.992  -3.287 130.529  0.00  0.00    +0.000 C 
ATOM      2  C   UNL     1      -6.132  -4.406 130.348  0.00  0.00    +0.000 C 
ATOM      3  C   UNL     1      -5.519  -3.204 129.705  0.00  0.00    +0.000 C 
ATOM      4  C   UNL     1      -6.479  -1.472 130.285  0.00  0.00    +0.000 C 
ATOM      5  C   UNL     1      -5.589  -2.197 131.051  0.00  0.00    +0.000 C 
ATOM      6  C   UNL     1      -5.247  -2.280 132.470  0.00  0.00    +0.000 C 
ATOM      7  C   UNL     1      -4.512  -1.295 129.788  0.00  0.00    +0.000 C 
ATOM      8  C   UNL     1      -5.427  -1.011 128.276  0.00  0.00    +0.000 C 
ATOM      9  C   UNL     1      -6.500  -2.174 127.687  0.00  0.00    +0.000 C 
ATOM     10  C   UNL     1      -7.650  -2.799 128.859  0.00  0.00    +0.000 C 
ATOM     11  C   UNL     1      -8.412  -3.977 128.324  0.00  0.00    +0.000 C 
ATOM     12  C   UNL     1      -9.013  -3.663 126.981  0.00  0.00    +0.000 C 
ATOM     13  C   UNL     1      -8.086  -3.083 125.950  0.00  0.00    +0.000 C 
ATOM     14  C   UNL     1      -8.150  -3.524 124.687  0.00  0.00    +0.000 C 
ATOM     15  C   UNL     1      -7.477  -2.653 123.725  0.00  0.00    +0.000 C 
ATOM     16  O   UNL     1      -7.902  -1.570 123.326  0.00  0.00    +0.000 OA
ATOM     17  C   UNL     1      -6.058  -2.912 123.672  0.00  0.00    +0.000 C 
ATOM     18  C   UNL     1      -5.872  -1.952 125.058  0.00  0.00    +0.000 C 
ATOM     19  C   UNL     1      -7.144  -1.925 126.292  0.00  0.00    +0.000 C 
ATOM     20  C   UNL     1      -8.021  -0.672 126.541  0.00  0.00    +0.000 C 
ENDROOT
BRANCH   4  21
ATOM     21  O   UNL     1      -6.221  -0.154 130.881  0.00  0.00    +0.000 OA
ATOM     22  H   UNL     1      -6.301  -0.054 131.846  0.00  0.00    +0.000 HD
ENDBRANCH   4  21
TORSDOF 1
ENDMDL
MODEL 2
REMARK VINA RESULT:      -7.5      3.618      6.365
REMARK  Name = Testosterone
REMARK  3 active torsions:
REMARK  status: ('A' for Active; 'I' for Inactive)
REMARK    1  A    between atoms: C_5  and  O_6
REMARK    2  A    between atoms: C_7  and  C_8
REMARK    3  A    between atoms: C_23  and  C_24
REMARK                            x       y       z     vdW  Elec       q    Type
REMARK                         _______ _______ _______ _____ _____    ______ ____
ROOT
ATOM      1  C   UNL     1      -7.604  -1.178 123.518  0.00  0.00    +0.000 C 
ATOM      2  C   UNL     1      -6.382  -1.516 122.870  0.00  0.00    +0.000 C 
ATOM      3  C   UNL     1      -6.155  -1.442 124.346  0.00  0.00    +0.000 C 
ATOM      4  C   UNL     1      -7.938  -1.384 125.379  0.00  0.00    +0.000 C 
ATOM      5  C   UNL     1      -7.380  -2.501 124.794  0.00  0.00    +0.000 C 
ATOM      6  C   UNL     1      -7.854  -3.825 124.390  0.00  0.00    +0.000 C 
ATOM      7  C   UNL     1      -6.354  -2.212 126.353  0.00  0.00    +0.000 C 
ATOM      8  C   UNL     1      -6.332  -0.471 126.772  0.00  0.00    +0.000 C 
ATOM      9  C   UNL     1      -6.251   0.704 125.564  0.00  0.00    +0.000 C 
ATOM     10  C   UNL     1      -7.408   0.518 124.254  0.00  0.00    +0.000 C 
ATOM     11  C   UNL     1      -7.127   1.460 123.119  0.00  0.00    +0.000 C 
ATOM     12  C   UNL     1      -6.985   2.873 123.618  0.00  0.00    +0.000 C 
ATOM     13  C   UNL     1      -6.041   3.087 124.767  0.00  0.00    +0.000 C 
ATOM     14  C   UNL     1      -5.213   4.141 124.750  0.00  0.00    +0.000 C 
ATOM     15  C   UNL     1      -4.621   4.445 126.051  0.00  0.00    +0.000 C 
ATOM     16  O   UNL     1      -5.207   4.971 126.995  0.00  0.00    +0.000 OA
ATOM     17  C   UNL     1      -3.463   3.624 126.314  0.00  0.00    +0.000 C 
ATOM     18  C   UNL     1      -4.507   2.376 126.796  0.00  0.00    +0.000 C 
ATOM     19  C   UNL     1      -6.082   2.187 126.005  0.00  0.00    +0.000 C 
ATOM     20  C   UNL     1      -7.413   2.475 126.744  0.00  0.00    +0.000 C 
ENDROOT
BRANCH   4  21
ATOM     21  O   UNL     1      -8.675  -2.070 126.449  0.00  0.00    +0.000 OA
ATOM     22  H   UNL     1      -9.648  -2.083 126.414  0.00  0.00    +0.000 HD
ENDBRANCH   4  21
TORSDOF 1
ENDMDL
MODEL 3
REMARK VINA RESULT:      -7.4      1.303      6.016
REMARK  Name = Testosterone
REMARK  3 active torsions:
REMARK  status: ('A' for Active; 'I' for Inactive)
REMARK    1  A    between atoms: C_5  and  O_6
REMARK    2  A    between atoms: C_7  and  C_8
REMARK    3  A    between atoms: C_23  and  C_24
REMARK                            x       y       z     vdW  Elec       q    Type
REMARK                         _______ _______ _______ _____ _____    ______ ____
ROOT
ATOM      1  C   UNL     1      -6.625  -1.081 124.943  0.00  0.00    +0.000 C 
ATOM      2  C   UNL     1      -5.551  -1.920 124.533  0.00  0.00    +0.000 C 
ATOM      3  C   UNL     1      -6.583  -2.745 125.234  0.00  0.00    +0.000 C 
ATOM      4  C   UNL     1      -8.344  -1.698 125.476  0.00  0.00    +0.000 C 
ATOM      5  C   UNL     1      -7.896  -2.264 124.300  0.00  0.00    +0.000 C 
ATOM      6  C   UNL     1      -8.203  -2.117 122.878  0.00  0.00    +0.000 C 
ATOM      7  C   UNL     1      -8.506  -3.723 125.334  0.00  0.00    +0.000 C 
ATOM      8  C   UNL     1      -8.333  -3.366 127.080  0.00  0.00    +0.000 C 
ATOM      9  C   UNL     1      -6.995  -2.514 127.657  0.00  0.00    +0.000 C 
ATOM     10  C   UNL     1      -6.625  -1.025 126.802  0.00  0.00    +0.000 C 
ATOM     11  C   UNL     1      -5.305  -0.448 127.225  0.00  0.00    +0.000 C 
ATOM     12  C   UNL     1      -5.224  -0.333 128.723  0.00  0.00    +0.000 C 
ATOM     13  C   UNL     1      -5.573  -1.564 129.510  0.00  0.00    +0.000 C 
ATOM     14  C   UNL     1      -4.818  -1.907 130.563  0.00  0.00    +0.000 C 
ATOM     15  C   UNL     1      -5.451  -2.884 131.447  0.00  0.00    +0.000 C 
ATOM     16  O   UNL     1      -6.366  -2.646 132.233  0.00  0.00    +0.000 OA
ATOM     17  C   UNL     1      -5.273  -4.233 130.965  0.00  0.00    +0.000 C 
ATOM     18  C   UNL     1      -6.568  -3.980 129.899  0.00  0.00    +0.000 C 
ATOM     19  C   UNL     1      -6.836  -2.374 129.199  0.00  0.00    +0.000 C 
ATOM     20  C   UNL     1      -8.055  -1.500 129.588  0.00  0.00    +0.000 C 
ENDROOT
BRANCH   4  21
ATOM     21  O   UNL     1      -9.784  -1.783 125.199  0.00  0.00    +0.000 OA
ATOM     22  H   UNL     1     -10.363  -1.064 125.508  0.00  0.00    +0.000 HD
ENDBRANCH   4  21
TORSDOF 1
ENDMDL
MODEL 4
REMARK VINA RESULT:      -7.4      1.776      5.886
REMARK  Name = Testosterone
REMARK  3 active torsions:
REMARK  status: ('A' for Active; 'I' for Inactive)
REMARK    1  A    between atoms: C_5  and  O_6
REMARK    2  A    between atoms: C_7  and  C_8
REMARK    3  A    between atoms: C_23  and  C_24
REMARK                            x       y       z     vdW  Elec       q    Type
REMARK                         _______ _______ _______ _____ _____    ______ ____
ROOT
ATOM      1  C   UNL     1      -8.335  -3.232 125.848  0.00  0.00    +0.000 C 
ATOM      2  C   UNL     1      -9.744  -3.036 125.862  0.00  0.00    +0.000 C 
ATOM      3  C   UNL     1      -9.062  -1.709 125.779  0.00  0.00    +0.000 C 
ATOM      4  C   UNL     1      -7.061  -1.919 125.326  0.00  0.00    +0.000 C 
ATOM      5  C   UNL     1      -8.108  -2.053 124.438  0.00  0.00    +0.000 C 
ATOM      6  C   UNL     1      -8.296  -2.643 123.113  0.00  0.00    +0.000 C 
ATOM      7  C   UNL     1      -7.950  -0.192 124.717  0.00  0.00    +0.000 C 
ATOM      8  C   UNL     1      -7.298   0.141 126.351  0.00  0.00    +0.000 C 
ATOM      9  C   UNL     1      -7.760  -0.803 127.672  0.00  0.00    +0.000 C 
ATOM     10  C   UNL     1      -7.648  -2.539 127.431  0.00  0.00    +0.000 C 
ATOM     11  C   UNL     1      -8.282  -3.304 128.557  0.00  0.00    +0.000 C 
ATOM     12  C   UNL     1      -7.760  -2.833 129.887  0.00  0.00    +0.000 C 
ATOM     13  C   UNL     1      -7.790  -1.351 130.133  0.00  0.00    +0.000 C 
ATOM     14  C   UNL     1      -8.187  -0.891 131.327  0.00  0.00    +0.000 C 
ATOM     15  C   UNL     1      -7.833   0.507 131.566  0.00  0.00    +0.000 C 
ATOM     16  O   UNL     1      -6.705   0.922 131.826  0.00  0.00    +0.000 OA
ATOM     17  C   UNL     1      -8.792   1.409 130.974  0.00  0.00    +0.000 C 
ATOM     18  C   UNL     1      -8.009   1.200 129.484  0.00  0.00    +0.000 C 
ATOM     19  C   UNL     1      -7.274  -0.363 129.083  0.00  0.00    +0.000 C 
ATOM     20  C   UNL     1      -5.739  -0.548 128.986  0.00  0.00    +0.000 C 
ENDROOT
BRANCH   4  21
ATOM     21  O   UNL     1      -6.043  -1.477 124.362  0.00  0.00    +0.000 OA
ATOM     22  H   UNL     1      -5.643  -2.137 123.769  0.00  0.00    +0.000 HD
ENDBRANCH   4  21
TORSDOF 1
ENDMDL
MODEL 5
REMARK VINA RESULT:      -7.1      3.621      5.918
REMARK  Name = Testosterone
REMARK  3 active torsions:
REMARK  status: ('A' for Active; 'I' for Inactive)
REMARK    1  A    between atoms: C_5  and  O_6
REMARK    2  A    between atoms: C_7  and  C_8
REMARK    3  A    between atoms: C_23  and  C_24
REMARK                            x       y       z     vdW  Elec       q    Type
REMARK                         _______ _______ _______ _____ _____    ______ ____
ROOT
ATOM      1  C   UNL     1      -5.936   3.219 126.447  0.00  0.00    +0.000 C 
ATOM      2  C   UNL     1      -4.555   3.248 126.103  0.00  0.00    +0.000 C 
ATOM      3  C   UNL     1      -5.361   2.936 124.883  0.00  0.00    +0.000 C 
ATOM      4  C   UNL     1      -7.368   3.294 125.197  0.00  0.00    +0.000 C 
ATOM      5  C   UNL     1      -6.400   4.254 124.983  0.00  0.00    +0.000 C 
ATOM      6  C   UNL     1      -6.284   5.697 125.195  0.00  0.00    +0.000 C 
ATOM      7  C   UNL     1      -6.702   3.489 123.283  0.00  0.00    +0.000 C 
ATOM      8  C   UNL     1      -7.226   1.785 123.449  0.00  0.00    +0.000 C 
ATOM      9  C   UNL     1      -6.558   0.790 124.637  0.00  0.00    +0.000 C 
ATOM     10  C   UNL     1      -6.532   1.467 126.258  0.00  0.00    +0.000 C 
ATOM     11  C   UNL     1      -5.728   0.625 127.206  0.00  0.00    +0.000 C 
ATOM     12  C   UNL     1      -6.165  -0.814 127.147  0.00  0.00    +0.000 C 
ATOM     13  C   UNL     1      -6.248  -1.435 125.782  0.00  0.00    +0.000 C 
ATOM     14  C   UNL     1      -5.785  -2.679 125.596  0.00  0.00    +0.000 C 
ATOM     15  C   UNL     1      -6.243  -3.297 124.352  0.00  0.00    +0.000 C 
ATOM     16  O   UNL     1      -7.375  -3.731 124.147  0.00  0.00    +0.000 OA
ATOM     17  C   UNL     1      -5.430  -2.898 123.228  0.00  0.00    +0.000 C 
ATOM     18  C   UNL     1      -6.326  -1.460 123.142  0.00  0.00    +0.000 C 
ATOM     19  C   UNL     1      -6.948  -0.716 124.625  0.00  0.00    +0.000 C 
ATOM     20  C   UNL     1      -8.463  -0.677 124.952  0.00  0.00    +0.000 C 
ENDROOT
BRANCH   4  21
ATOM     21  O   UNL     1      -8.507   4.039 124.644  0.00  0.00    +0.000 OA
ATOM     22  H   UNL     1      -9.036   3.629 123.936  0.00  0.00    +0.000 HD
ENDBRANCH   4  21
TORSDOF 1
ENDMDL
MODEL 6
REMARK VINA RESULT:      -7.0      2.860      7.057
REMARK  Name = Testosterone
REMARK  3 active torsions:
REMARK  status: ('A' for Active; 'I' for Inactive)
REMARK    1  A    between atoms: C_5  and  O_6
REMARK    2  A    between atoms: C_7  and  C_8
REMARK    3  A    between atoms: C_23  and  C_24
REMARK                            x       y       z     vdW  Elec       q    Type
REMARK                         _______ _______ _______ _____ _____    ______ ____
ROOT
ATOM      1  C   UNL     1      -6.564  -2.777 129.190  0.00  0.00    +0.000 C 
ATOM      2  C   UNL     1      -7.748  -3.515 128.909  0.00  0.00    +0.000 C 
ATOM      3  C   UNL     1      -8.028  -2.525 129.994  0.00  0.00    +0.000 C 
ATOM      4  C   UNL     1      -6.507  -1.142 130.160  0.00  0.00    +0.000 C 
ATOM      5  C   UNL     1      -7.474  -1.164 129.176  0.00  0.00    +0.000 C 
ATOM      6  C   UNL     1      -7.640  -0.569 127.851  0.00  0.00    +0.000 C 
ATOM      7  C   UNL     1      -8.364  -0.516 130.711  0.00  0.00    +0.000 C 
ATOM      8  C   UNL     1      -7.607  -1.170 132.195  0.00  0.00    +0.000 C 
ATOM      9  C   UNL     1      -7.039  -2.758 132.244  0.00  0.00    +0.000 C 
ATOM     10  C   UNL     1      -6.004  -3.229 130.905  0.00  0.00    +0.000 C 
ATOM     11  C   UNL     1      -5.726  -4.705 130.902  0.00  0.00    +0.000 C 
ATOM     12  C   UNL     1      -5.233  -5.160 132.249  0.00  0.00    +0.000 C 
ATOM     13  C   UNL     1      -6.055  -4.750 133.438  0.00  0.00    +0.000 C 
ATOM     14  C   UNL     1      -6.294  -5.640 134.411  0.00  0.00    +0.000 C 
ATOM     15  C   UNL     1      -6.775  -5.038 135.653  0.00  0.00    +0.000 C 
ATOM     16  O   UNL     1      -6.086  -4.409 136.454  0.00  0.00    +0.000 OA
ATOM     17  C   UNL     1      -8.198  -4.799 135.613  0.00  0.00    +0.000 C 
ATOM     18  C   UNL     1      -7.895  -3.376 134.743  0.00  0.00    +0.000 C 
ATOM     19  C   UNL     1      -6.533  -3.305 133.611  0.00  0.00    +0.000 C 
ATOM     20  C   UNL     1      -5.282  -2.432 133.884  0.00  0.00    +0.000 C 
ENDROOT
BRANCH   4  21
ATOM     21  O   UNL     1      -6.259   0.306 130.157  0.00  0.00    +0.000 OA
ATOM     22  H   UNL     1      -6.971   0.903 129.864  0.00  0.00    +0.000 HD
ENDBRANCH   4  21
TORSDOF 1
ENDMDL
MODEL 7
REMARK VINA RESULT:      -6.9      1.739      2.176
REMARK  Name = Testosterone
REMARK  3 active torsions:
REMARK  status: ('A' for Active; 'I' for Inactive)
REMARK    1  A    between atoms: C_5  and  O_6
REMARK    2  A    between atoms: C_7  and  C_8
REMARK    3  A    between atoms: C_23  and  C_24
REMARK                            x       y       z     vdW  Elec       q    Type
REMARK                         _______ _______ _______ _____ _____    ______ ____
ROOT
ATOM      1  C   UNL     1      -6.658  -1.520 129.392  0.00  0.00    +0.000 C 
ATOM      2  C   UNL     1      -5.577  -2.376 129.044  0.00  0.00    +0.000 C 
ATOM      3  C   UNL     1      -5.554  -1.170 128.162  0.00  0.00    +0.000 C 
ATOM      4  C   UNL     1      -6.809   0.305 128.873  0.00  0.00    +0.000 C 
ATOM      5  C   UNL     1      -5.571  -0.020 129.388  0.00  0.00    +0.000 C 
ATOM      6  C   UNL     1      -4.858   0.219 130.643  0.00  0.00    +0.000 C 
ATOM      7  C   UNL     1      -5.196   0.929 127.799  0.00  0.00    +0.000 C 
ATOM      8  C   UNL     1      -6.519   0.709 126.613  0.00  0.00    +0.000 C 
ATOM      9  C   UNL     1      -7.300  -0.779 126.460  0.00  0.00    +0.000 C 
ATOM     10  C   UNL     1      -7.850  -1.500 127.964  0.00  0.00    +0.000 C 
ATOM     11  C   UNL     1      -8.327  -2.910 127.770  0.00  0.00    +0.000 C 
ATOM     12  C   UNL     1      -9.328  -2.988 126.649  0.00  0.00    +0.000 C 
ATOM     13  C   UNL     1      -8.930  -2.350 125.349  0.00  0.00    +0.000 C 
ATOM     14  C   UNL     1      -9.188  -2.986 124.198  0.00  0.00    +0.000 C 
ATOM     15  C   UNL     1      -9.094  -2.129 123.018  0.00  0.00    +0.000 C 
ATOM     16  O   UNL     1      -9.919  -1.280 122.686  0.00  0.00    +0.000 OA
ATOM     17  C   UNL     1      -7.730  -1.998 122.562  0.00  0.00    +0.000 C 
ATOM     18  C   UNL     1      -7.488  -0.816 123.754  0.00  0.00    +0.000 C 
ATOM     19  C   UNL     1      -8.333  -0.940 125.307  0.00  0.00    +0.000 C 
ATOM     20  C   UNL     1      -9.453   0.050 125.715  0.00  0.00    +0.000 C 
ENDROOT
BRANCH   4  21
ATOM     21  O   UNL     1      -6.819   1.720 129.266  0.00  0.00    +0.000 OA
ATOM     22  H   UNL     1      -6.526   2.388 128.621  0.00  0.00    +0.000 HD
ENDBRANCH   4  21
TORSDOF 1
ENDMDL
MODEL 8
REMARK VINA RESULT:      -6.8      7.317      9.094
REMARK  Name = Testosterone
REMARK  3 active torsions:
REMARK  status: ('A' for Active; 'I' for Inactive)
REMARK    1  A    between atoms: C_5  and  O_6
REMARK    2  A    between atoms: C_7  and  C_8
REMARK    3  A    between atoms: C_23  and  C_24
REMARK                            x       y       z     vdW  Elec       q    Type
REMARK                         _______ _______ _______ _____ _____    ______ ____
ROOT
ATOM      1  C   UNL     1      -6.272   3.419 130.473  0.00  0.00    +0.000 C 
ATOM      2  C   UNL     1      -6.162   3.556 129.061  0.00  0.00    +0.000 C 
ATOM      3  C   UNL     1      -6.280   4.911 129.680  0.00  0.00    +0.000 C 
ATOM      4  C   UNL     1      -6.015   4.829 131.724  0.00  0.00    +0.000 C 
ATOM      5  C   UNL     1      -5.016   4.745 130.776  0.00  0.00    +0.000 C 
ATOM      6  C   UNL     1      -3.627   4.287 130.749  0.00  0.00    +0.000 C 
ATOM      7  C   UNL     1      -5.491   6.573 130.812  0.00  0.00    +0.000 C 
ATOM      8  C   UNL     1      -7.208   6.762 131.284  0.00  0.00    +0.000 C 
ATOM      9  C   UNL     1      -8.375   5.669 130.744  0.00  0.00    +0.000 C 
ATOM     10  C   UNL     1      -7.978   3.973 130.966  0.00  0.00    +0.000 C 
ATOM     11  C   UNL     1      -8.953   3.071 130.264  0.00  0.00    +0.000 C 
ATOM     12  C   UNL     1     -10.369   3.424 130.630  0.00  0.00    +0.000 C 
ATOM     13  C   UNL     1     -10.755   4.870 130.502  0.00  0.00    +0.000 C 
ATOM     14  C   UNL     1     -11.941   5.189 129.967  0.00  0.00    +0.000 C 
ATOM     15  C   UNL     1     -12.352   6.568 130.225  0.00  0.00    +0.000 C 
ATOM     16  O   UNL     1     -12.765   6.999 131.300  0.00  0.00    +0.000 OA
ATOM     17  C   UNL     1     -11.756   7.486 129.284  0.00  0.00    +0.000 C 
ATOM     18  C   UNL     1     -10.340   7.463 130.218  0.00  0.00    +0.000 C 
ATOM     19  C   UNL     1      -9.865   5.981 131.067  0.00  0.00    +0.000 C 
ATOM     20  C   UNL     1      -9.908   5.869 132.612  0.00  0.00    +0.000 C 
ENDROOT
BRANCH   4  21
ATOM     21  O   UNL     1      -5.209   5.408 132.807  0.00  0.00    +0.000 OA
ATOM     22  H   UNL     1      -5.594   5.463 133.700  0.00  0.00    +0.000 HD
ENDBRANCH   4  21
TORSDOF 1
ENDMDL
MODEL 9
REMARK VINA RESULT:      -6.8      1.732      3.236
REMARK  Name = Testosterone
REMARK  3 active torsions:
REMARK  status: ('A' for Active; 'I' for Inactive)
REMARK    1  A    between atoms: C_5  and  O_6
REMARK    2  A    between atoms: C_7  and  C_8
REMARK    3  A    between atoms: C_23  and  C_24
REMARK                            x       y       z     vdW  Elec       q    Type
REMARK                         _______ _______ _______ _____ _____    ______ ____
ROOT
ATOM      1  C   UNL     1      -6.290  -0.893 129.840  0.00  0.00    +0.000 C 
ATOM      2  C   UNL     1      -7.354   0.034 130.019  0.00  0.00    +0.000 C 
ATOM      3  C   UNL     1      -7.887  -1.212 129.390  0.00  0.00    +0.000 C 
ATOM      4  C   UNL     1      -6.516  -2.749 129.488  0.00  0.00    +0.000 C 
ATOM      5  C   UNL     1      -7.289  -2.290 130.534  0.00  0.00    +0.000 C 
ATOM      6  C   UNL     1      -7.257  -2.396 131.993  0.00  0.00    +0.000 C 
ATOM      7  C   UNL     1      -8.479  -3.288 129.460  0.00  0.00    +0.000 C 
ATOM      8  C   UNL     1      -7.955  -3.251 127.748  0.00  0.00    +0.000 C 
ATOM      9  C   UNL     1      -7.300  -1.848 127.078  0.00  0.00    +0.000 C 
ATOM     10  C   UNL     1      -6.016  -1.096 128.011  0.00  0.00    +0.000 C 
ATOM     11  C   UNL     1      -5.644   0.254 127.470  0.00  0.00    +0.000 C 
ATOM     12  C   UNL     1      -5.369   0.182 125.992  0.00  0.00    +0.000 C 
ATOM     13  C   UNL     1      -6.413  -0.490 125.147  0.00  0.00    +0.000 C 
ATOM     14  C   UNL     1      -6.762   0.057 123.974  0.00  0.00    +0.000 C 
ATOM     15  C   UNL     1      -7.495  -0.853 123.096  0.00  0.00    +0.000 C 
ATOM     16  O   UNL     1      -7.002  -1.788 122.468  0.00  0.00    +0.000 OA
ATOM     17  C   UNL     1      -8.901  -0.889 123.420  0.00  0.00    +0.000 C 
ATOM     18  C   UNL     1      -8.543  -1.978 124.671  0.00  0.00    +0.000 C 
ATOM     19  C   UNL     1      -7.010  -1.842 125.549  0.00  0.00    +0.000 C 
ATOM     20  C   UNL     1      -5.888  -2.902 125.413  0.00  0.00    +0.000 C 
ENDROOT
BRANCH   4  21
ATOM     21  O   UNL     1      -6.368  -4.136 129.950  0.00  0.00    +0.000 OA
ATOM     22  H   UNL     1      -7.025  -4.495 130.572  0.00  0.00    +0.000 HD
ENDBRANCH   4  21
TORSDOF 1
ENDMDL
