MODEL 1
REMARK VINA RESULT:      -8.5      0.000      0.000
REMARK  Name = Testolactone
REMARK  2 active torsions:
REMARK  status: ('A' for Active; 'I' for Inactive)
REMARK    1  A    between atoms: C_11  and  C_12
REMARK    2  A    between atoms: C_17  and  C_18
REMARK                            x       y       z     vdW  Elec       q    Type
REMARK                         _______ _______ _______ _____ _____    ______ ____
ROOT
ATOM      1  C   UNL     1     -10.905   5.755 130.653  0.00  0.00    +0.000 C 
ATOM      2  C   UNL     1     -10.616   4.252 130.751  0.00  0.00    +0.000 C 
ATOM      3  C   UNL     1      -9.630   4.165 131.848  0.00  0.00    +0.000 C 
ATOM      4  C   UNL     1      -8.301   4.753 131.123  0.00  0.00    +0.000 C 
ATOM      5  C   UNL     1      -7.084   4.174 131.018  0.00  0.00    +0.000 C 
ATOM      6  C   UNL     1      -7.237   3.379 132.199  0.00  0.00    +0.000 C 
ATOM      7  O   UNL     1      -7.508   2.195 132.145  0.00  0.00    +0.000 OA
ATOM      8  C   UNL     1      -7.257   4.490 133.383  0.00  0.00    +0.000 C 
ATOM      9  C   UNL     1      -7.787   5.784 132.978  0.00  0.00    +0.000 C 
ATOM     10  C   UNL     1      -8.205   6.212 131.405  0.00  0.00    +0.000 C 
ATOM     11  C   UNL     1      -7.005   7.058 130.946  0.00  0.00    +0.000 C 
ATOM     12  C   UNL     1      -9.383   6.504 130.281  0.00  0.00    +0.000 C 
ATOM     13  C   UNL     1      -9.538   7.959 129.629  0.00  0.00    +0.000 C 
ATOM     14  C   UNL     1     -10.288   8.046 128.130  0.00  0.00    +0.000 C 
ATOM     15  C   UNL     1     -12.019   7.500 128.375  0.00  0.00    +0.000 C 
ATOM     16  C   UNL     1     -12.904   7.331 127.093  0.00  0.00    +0.000 C 
ATOM     17  O   UNL     1     -11.841   8.934 128.825  0.00  0.00    +0.000 OA
ATOM     18  C   UNL     1     -13.044   9.197 129.159  0.00  0.00    +0.000 C 
ATOM     19  O   UNL     1     -13.828   9.685 128.384  0.00  0.00    +0.000 OA
ATOM     20  C   UNL     1     -12.790   7.962 130.045  0.00  0.00    +0.000 C 
ATOM     21  C   UNL     1     -11.621   6.634 128.942  0.00  0.00    +0.000 C 
ATOM     22  C   UNL     1     -12.383   6.081 129.810  0.00  0.00    +0.000 C 
ENDROOT
TORSDOF 0
ENDMDL
MODEL 2
REMARK VINA RESULT:      -8.2      7.851     10.451
REMARK  Name = Testolactone
REMARK  2 active torsions:
REMARK  status: ('A' for Active; 'I' for Inactive)
REMARK    1  A    between atoms: C_11  and  C_12
REMARK    2  A    between atoms: C_17  and  C_18
REMARK                            x       y       z     vdW  Elec       q    Type
REMARK                         _______ _______ _______ _____ _____    ______ ____
ROOT
ATOM      1  C   UNL     1      -6.937   0.281 124.055  0.00  0.00    +0.000 C 
ATOM      2  C   UNL     1      -8.140   1.228 123.959  0.00  0.00    +0.000 C 
ATOM      3  C   UNL     1      -7.539   2.564 124.146  0.00  0.00    +0.000 C 
ATOM      4  C   UNL     1      -7.210   2.541 125.737  0.00  0.00    +0.000 C 
ATOM      5  C   UNL     1      -7.594   3.430 126.679  0.00  0.00    +0.000 C 
ATOM      6  C   UNL     1      -7.715   4.522 125.761  0.00  0.00    +0.000 C 
ATOM      7  O   UNL     1      -8.796   4.898 125.350  0.00  0.00    +0.000 OA
ATOM      8  C   UNL     1      -6.179   4.780 125.300  0.00  0.00    +0.000 C 
ATOM      9  C   UNL     1      -5.339   3.591 125.330  0.00  0.00    +0.000 C 
ATOM     10  C   UNL     1      -5.805   2.089 125.930  0.00  0.00    +0.000 C 
ATOM     11  C   UNL     1      -5.141   2.050 127.317  0.00  0.00    +0.000 C 
ATOM     12  C   UNL     1      -6.269   0.529 125.639  0.00  0.00    +0.000 C 
ATOM     13  C   UNL     1      -5.363  -0.694 126.139  0.00  0.00    +0.000 C 
ATOM     14  C   UNL     1      -6.129  -2.169 126.366  0.00  0.00    +0.000 C 
ATOM     15  C   UNL     1      -6.714  -2.717 124.718  0.00  0.00    +0.000 C 
ATOM     16  C   UNL     1      -7.613  -3.999 124.668  0.00  0.00    +0.000 C 
ATOM     17  O   UNL     1      -5.236  -2.997 124.882  0.00  0.00    +0.000 OA
ATOM     18  C   UNL     1      -5.010  -3.573 123.766  0.00  0.00    +0.000 C 
ATOM     19  O   UNL     1      -5.080  -4.770 123.642  0.00  0.00    +0.000 OA
ATOM     20  C   UNL     1      -5.599  -2.242 123.260  0.00  0.00    +0.000 C 
ATOM     21  C   UNL     1      -7.124  -1.696 124.572  0.00  0.00    +0.000 C 
ATOM     22  C   UNL     1      -7.276  -1.275 123.372  0.00  0.00    +0.000 C 
ENDROOT
TORSDOF 0
ENDMDL
MODEL 3
REMARK VINA RESULT:      -8.1      8.811     11.113
REMARK  Name = Testolactone
REMARK  2 active torsions:
REMARK  status: ('A' for Active; 'I' for Inactive)
REMARK    1  A    between atoms: C_11  and  C_12
REMARK    2  A    between atoms: C_17  and  C_18
REMARK                            x       y       z     vdW  Elec       q    Type
REMARK                         _______ _______ _______ _____ _____    ______ ____
ROOT
ATOM      1  C   UNL     1      -7.680  -3.040 127.629  0.00  0.00    +0.000 C 
ATOM      2  C   UNL     1      -8.962  -2.832 126.814  0.00  0.00    +0.000 C 
ATOM      3  C   UNL     1      -8.487  -2.865 125.416  0.00  0.00    +0.000 C 
ATOM      4  C   UNL     1      -7.739  -1.428 125.305  0.00  0.00    +0.000 C 
ATOM      5  C   UNL     1      -7.949  -0.447 124.398  0.00  0.00    +0.000 C 
ATOM      6  C   UNL     1      -8.436  -1.334 123.385  0.00  0.00    +0.000 C 
ATOM      7  O   UNL     1      -9.623  -1.442 123.144  0.00  0.00    +0.000 OA
ATOM      8  C   UNL     1      -7.122  -2.210 123.008  0.00  0.00    +0.000 C 
ATOM      9  C   UNL     1      -6.178  -2.373 124.104  0.00  0.00    +0.000 C 
ATOM     10  C   UNL     1      -6.292  -1.616 125.603  0.00  0.00    +0.000 C 
ATOM     11  C   UNL     1      -5.276  -0.466 125.487  0.00  0.00    +0.000 C 
ATOM     12  C   UNL     1      -6.640  -1.712 127.217  0.00  0.00    +0.000 C 
ATOM     13  C   UNL     1      -5.500  -1.440 128.309  0.00  0.00    +0.000 C 
ATOM     14  C   UNL     1      -6.006  -0.960 129.836  0.00  0.00    +0.000 C 
ATOM     15  C   UNL     1      -6.951  -2.361 130.542  0.00  0.00    +0.000 C 
ATOM     16  C   UNL     1      -7.680  -2.117 131.907  0.00  0.00    +0.000 C 
ATOM     17  O   UNL     1      -5.462  -2.603 130.665  0.00  0.00    +0.000 OA
ATOM     18  C   UNL     1      -5.484  -3.717 131.286  0.00  0.00    +0.000 C 
ATOM     19  O   UNL     1      -5.451  -3.776 132.490  0.00  0.00    +0.000 OA
ATOM     20  C   UNL     1      -6.334  -4.087 130.055  0.00  0.00    +0.000 C 
ATOM     21  C   UNL     1      -7.497  -2.423 129.578  0.00  0.00    +0.000 C 
ATOM     22  C   UNL     1      -8.015  -3.548 129.252  0.00  0.00    +0.000 C 
ENDROOT
TORSDOF 0
ENDMDL
MODEL 4
REMARK VINA RESULT:      -8.0      1.608      2.920
REMARK  Name = Testolactone
REMARK  2 active torsions:
REMARK  status: ('A' for Active; 'I' for Inactive)
REMARK    1  A    between atoms: C_11  and  C_12
REMARK    2  A    between atoms: C_17  and  C_18
REMARK                            x       y       z     vdW  Elec       q    Type
REMARK                         _______ _______ _______ _____ _____    ______ ____
ROOT
ATOM      1  C   UNL     1      -9.138   6.730 130.192  0.00  0.00    +0.000 C 
ATOM      2  C   UNL     1      -7.854   7.382 130.719  0.00  0.00    +0.000 C 
ATOM      3  C   UNL     1      -7.044   6.231 131.164  0.00  0.00    +0.000 C 
ATOM      4  C   UNL     1      -7.826   5.802 132.522  0.00  0.00    +0.000 C 
ATOM      5  C   UNL     1      -7.318   5.656 133.766  0.00  0.00    +0.000 C 
ATOM      6  C   UNL     1      -5.993   5.358 133.311  0.00  0.00    +0.000 C 
ATOM      7  O   UNL     1      -5.104   6.187 133.336  0.00  0.00    +0.000 OA
ATOM      8  C   UNL     1      -6.178   3.919 132.579  0.00  0.00    +0.000 C 
ATOM      9  C   UNL     1      -7.499   3.705 132.007  0.00  0.00    +0.000 C 
ATOM     10  C   UNL     1      -8.814   4.739 132.191  0.00  0.00    +0.000 C 
ATOM     11  C   UNL     1      -9.656   4.038 133.271  0.00  0.00    +0.000 C 
ATOM     12  C   UNL     1      -9.821   5.880 131.544  0.00  0.00    +0.000 C 
ATOM     13  C   UNL     1     -11.385   5.578 131.373  0.00  0.00    +0.000 C 
ATOM     14  C   UNL     1     -12.415   6.901 131.302  0.00  0.00    +0.000 C 
ATOM     15  C   UNL     1     -11.987   7.819 129.775  0.00  0.00    +0.000 C 
ATOM     16  C   UNL     1     -12.694   9.199 129.548  0.00  0.00    +0.000 C 
ATOM     17  O   UNL     1     -12.848   6.617 129.454  0.00  0.00    +0.000 OA
ATOM     18  C   UNL     1     -12.966   6.777 128.194  0.00  0.00    +0.000 C 
ATOM     19  O   UNL     1     -13.887   7.390 127.714  0.00  0.00    +0.000 OA
ATOM     20  C   UNL     1     -11.430   6.749 128.312  0.00  0.00    +0.000 C 
ATOM     21  C   UNL     1     -10.922   7.738 130.076  0.00  0.00    +0.000 C 
ATOM     22  C   UNL     1     -10.032   7.794 129.157  0.00  0.00    +0.000 C 
ENDROOT
TORSDOF 0
ENDMDL
MODEL 5
REMARK VINA RESULT:      -7.9      7.899     10.301
REMARK  Name = Testolactone
REMARK  2 active torsions:
REMARK  status: ('A' for Active; 'I' for Inactive)
REMARK    1  A    between atoms: C_11  and  C_12
REMARK    2  A    between atoms: C_17  and  C_18
REMARK                            x       y       z     vdW  Elec       q    Type
REMARK                         _______ _______ _______ _____ _____    ______ ____
ROOT
ATOM      1  C   UNL     1      -6.458   0.357 125.756  0.00  0.00    +0.000 C 
ATOM      2  C   UNL     1      -5.443   1.374 126.292  0.00  0.00    +0.000 C 
ATOM      3  C   UNL     1      -6.221   2.627 126.364  0.00  0.00    +0.000 C 
ATOM      4  C   UNL     1      -6.340   3.015 124.791  0.00  0.00    +0.000 C 
ATOM      5  C   UNL     1      -5.988   4.173 124.189  0.00  0.00    +0.000 C 
ATOM      6  C   UNL     1      -6.159   4.967 125.368  0.00  0.00    +0.000 C 
ATOM      7  O   UNL     1      -5.213   5.339 126.035  0.00  0.00    +0.000 OA
ATOM      8  C   UNL     1      -7.762   4.900 125.620  0.00  0.00    +0.000 C 
ATOM      9  C   UNL     1      -8.391   3.676 125.144  0.00  0.00    +0.000 C 
ATOM     10  C   UNL     1      -7.619   2.471 124.258  0.00  0.00    +0.000 C 
ATOM     11  C   UNL     1      -8.089   2.746 122.819  0.00  0.00    +0.000 C 
ATOM     12  C   UNL     1      -6.952   0.959 124.203  0.00  0.00    +0.000 C 
ATOM     13  C   UNL     1      -7.581  -0.171 123.259  0.00  0.00    +0.000 C 
ATOM     14  C   UNL     1      -6.566  -1.421 122.785  0.00  0.00    +0.000 C 
ATOM     15  C   UNL     1      -6.113  -2.337 124.306  0.00  0.00    +0.000 C 
ATOM     16  C   UNL     1      -5.035  -3.465 124.167  0.00  0.00    +0.000 C 
ATOM     17  O   UNL     1      -7.495  -2.734 123.833  0.00  0.00    +0.000 OA
ATOM     18  C   UNL     1      -7.765  -3.623 124.706  0.00  0.00    +0.000 C 
ATOM     19  O   UNL     1      -7.520  -4.790 124.524  0.00  0.00    +0.000 OA
ATOM     20  C   UNL     1      -7.465  -2.429 125.633  0.00  0.00    +0.000 C 
ATOM     21  C   UNL     1      -5.893  -1.357 124.778  0.00  0.00    +0.000 C 
ATOM     22  C   UNL     1      -5.963  -1.277 126.054  0.00  0.00    +0.000 C 
ENDROOT
TORSDOF 0
ENDMDL
MODEL 6
REMARK VINA RESULT:      -7.9      8.799     10.163
REMARK  Name = Testolactone
REMARK  2 active torsions:
REMARK  status: ('A' for Active; 'I' for Inactive)
REMARK    1  A    between atoms: C_11  and  C_12
REMARK    2  A    between atoms: C_17  and  C_18
REMARK                            x       y       z     vdW  Elec       q    Type
REMARK                         _______ _______ _______ _____ _____    ______ ____
ROOT
ATOM      1  C   UNL     1      -5.771  -1.481 127.204  0.00  0.00    +0.000 C 
ATOM      2  C   UNL     1      -5.517  -0.568 128.409  0.00  0.00    +0.000 C 
ATOM      3  C   UNL     1      -5.529  -1.501 129.553  0.00  0.00    +0.000 C 
ATOM      4  C   UNL     1      -7.114  -1.837 129.669  0.00  0.00    +0.000 C 
ATOM      5  C   UNL     1      -7.914  -1.715 130.751  0.00  0.00    +0.000 C 
ATOM      6  C   UNL     1      -6.850  -1.871 131.696  0.00  0.00    +0.000 C 
ATOM      7  O   UNL     1      -6.367  -0.921 132.281  0.00  0.00    +0.000 OA
ATOM      8  C   UNL     1      -6.392  -3.414 131.474  0.00  0.00    +0.000 C 
ATOM      9  C   UNL     1      -6.606  -3.912 130.123  0.00  0.00    +0.000 C 
ATOM     10  C   UNL     1      -7.399  -3.077 128.896  0.00  0.00    +0.000 C 
ATOM     11  C   UNL     1      -8.793  -3.729 128.880  0.00  0.00    +0.000 C 
ATOM     12  C   UNL     1      -7.319  -2.215 127.487  0.00  0.00    +0.000 C 
ATOM     13  C   UNL     1      -8.005  -2.776 126.153  0.00  0.00    +0.000 C 
ATOM     14  C   UNL     1      -8.419  -1.652 124.977  0.00  0.00    +0.000 C 
ATOM     15  C   UNL     1      -6.851  -0.918 124.376  0.00  0.00    +0.000 C 
ATOM     16  C   UNL     1      -6.960   0.286 123.381  0.00  0.00    +0.000 C 
ATOM     17  O   UNL     1      -7.086  -2.273 123.744  0.00  0.00    +0.000 OA
ATOM     18  C   UNL     1      -6.067  -2.323 122.978  0.00  0.00    +0.000 C 
ATOM     19  O   UNL     1      -6.109  -1.938 121.836  0.00  0.00    +0.000 OA
ATOM     20  C   UNL     1      -5.366  -2.097 124.332  0.00  0.00    +0.000 C 
ATOM     21  C   UNL     1      -6.555  -0.789 125.438  0.00  0.00    +0.000 C 
ATOM     22  C   UNL     1      -5.305  -0.735 125.711  0.00  0.00    +0.000 C 
ENDROOT
TORSDOF 0
ENDMDL
MODEL 7
REMARK VINA RESULT:      -7.7      8.847     11.255
REMARK  Name = Testolactone
REMARK  2 active torsions:
REMARK  status: ('A' for Active; 'I' for Inactive)
REMARK    1  A    between atoms: C_11  and  C_12
REMARK    2  A    between atoms: C_17  and  C_18
REMARK                            x       y       z     vdW  Elec       q    Type
REMARK                         _______ _______ _______ _____ _____    ______ ____
ROOT
ATOM      1  C   UNL     1      -6.068  -1.515 127.346  0.00  0.00    +0.000 C 
ATOM      2  C   UNL     1      -5.305  -1.653 126.023  0.00  0.00    +0.000 C 
ATOM      3  C   UNL     1      -6.266  -1.150 125.021  0.00  0.00    +0.000 C 
ATOM      4  C   UNL     1      -7.331  -2.375 124.964  0.00  0.00    +0.000 C 
ATOM      5  C   UNL     1      -7.745  -3.070 123.882  0.00  0.00    +0.000 C 
ATOM      6  C   UNL     1      -7.490  -2.004 122.961  0.00  0.00    +0.000 C 
ATOM      7  O   UNL     1      -6.507  -1.995 122.245  0.00  0.00    +0.000 OA
ATOM      8  C   UNL     1      -8.583  -0.883 123.393  0.00  0.00    +0.000 C 
ATOM      9  C   UNL     1      -8.948  -0.916 124.802  0.00  0.00    +0.000 C 
ATOM     10  C   UNL     1      -8.448  -2.084 125.905  0.00  0.00    +0.000 C 
ATOM     11  C   UNL     1      -9.679  -2.999 126.023  0.00  0.00    +0.000 C 
ATOM     12  C   UNL     1      -7.482  -2.509 127.179  0.00  0.00    +0.000 C 
ATOM     13  C   UNL     1      -8.130  -2.926 128.583  0.00  0.00    +0.000 C 
ATOM     14  C   UNL     1      -7.203  -3.894 129.593  0.00  0.00    +0.000 C 
ATOM     15  C   UNL     1      -5.739  -2.903 130.075  0.00  0.00    +0.000 C 
ATOM     16  C   UNL     1      -4.619  -3.631 130.892  0.00  0.00    +0.000 C 
ATOM     17  O   UNL     1      -6.949  -2.504 130.892  0.00  0.00    +0.000 OA
ATOM     18  C   UNL     1      -6.408  -1.632 131.650  0.00  0.00    +0.000 C 
ATOM     19  O   UNL     1      -5.950  -1.922 132.727  0.00  0.00    +0.000 OA
ATOM     20  C   UNL     1      -6.046  -1.042 130.273  0.00  0.00    +0.000 C 
ATOM     21  C   UNL     1      -5.619  -2.640 129.004  0.00  0.00    +0.000 C 
ATOM     22  C   UNL     1      -5.008  -1.551 128.717  0.00  0.00    +0.000 C 
ENDROOT
TORSDOF 0
ENDMDL
MODEL 8
REMARK VINA RESULT:      -7.6      8.856      9.881
REMARK  Name = Testolactone
REMARK  2 active torsions:
REMARK  status: ('A' for Active; 'I' for Inactive)
REMARK    1  A    between atoms: C_11  and  C_12
REMARK    2  A    between atoms: C_17  and  C_18
REMARK                            x       y       z     vdW  Elec       q    Type
REMARK                         _______ _______ _______ _____ _____    ______ ____
ROOT
ATOM      1  C   UNL     1      -7.868  -2.547 128.218  0.00  0.00    +0.000 C 
ATOM      2  C   UNL     1      -8.183  -3.663 129.223  0.00  0.00    +0.000 C 
ATOM      3  C   UNL     1      -7.527  -3.200 130.462  0.00  0.00    +0.000 C 
ATOM      4  C   UNL     1      -5.963  -3.454 130.104  0.00  0.00    +0.000 C 
ATOM      5  C   UNL     1      -5.053  -4.167 130.804  0.00  0.00    +0.000 C 
ATOM      6  C   UNL     1      -5.711  -3.984 132.062  0.00  0.00    +0.000 C 
ATOM      7  O   UNL     1      -6.387  -4.859 132.566  0.00  0.00    +0.000 OA
ATOM      8  C   UNL     1      -5.540  -2.391 132.331  0.00  0.00    +0.000 C 
ATOM      9  C   UNL     1      -5.463  -1.586 131.121  0.00  0.00    +0.000 C 
ATOM     10  C   UNL     1      -5.387  -2.196 129.554  0.00  0.00    +0.000 C 
ATOM     11  C   UNL     1      -3.895  -2.063 129.204  0.00  0.00    +0.000 C 
ATOM     12  C   UNL     1      -6.136  -2.488 128.109  0.00  0.00    +0.000 C 
ATOM     13  C   UNL     1      -5.612  -1.786 126.768  0.00  0.00    +0.000 C 
ATOM     14  C   UNL     1      -5.977  -2.545 125.316  0.00  0.00    +0.000 C 
ATOM     15  C   UNL     1      -7.800  -2.497 125.141  0.00  0.00    +0.000 C 
ATOM     16  C   UNL     1      -8.424  -3.287 123.941  0.00  0.00    +0.000 C 
ATOM     17  O   UNL     1      -7.190  -1.165 124.760  0.00  0.00    +0.000 OA
ATOM     18  C   UNL     1      -8.248  -0.545 124.410  0.00  0.00    +0.000 C 
ATOM     19  O   UNL     1      -8.633  -0.537 123.267  0.00  0.00    +0.000 OA
ATOM     20  C   UNL     1      -8.644  -0.951 125.843  0.00  0.00    +0.000 C 
ATOM     21  C   UNL     1      -7.867  -2.855 126.189  0.00  0.00    +0.000 C 
ATOM     22  C   UNL     1      -8.930  -2.583 126.850  0.00  0.00    +0.000 C 
ENDROOT
TORSDOF 0
ENDMDL
MODEL 9
REMARK VINA RESULT:      -7.5      1.333      6.421
REMARK  Name = Testolactone
REMARK  2 active torsions:
REMARK  status: ('A' for Active; 'I' for Inactive)
REMARK    1  A    between atoms: C_11  and  C_12
REMARK    2  A    between atoms: C_17  and  C_18
REMARK                            x       y       z     vdW  Elec       q    Type
REMARK                         _______ _______ _______ _____ _____    ______ ____
ROOT
ATOM      1  C   UNL     1     -10.664   5.529 131.000  0.00  0.00    +0.000 C 
ATOM      2  C   UNL     1     -11.276   6.788 131.627  0.00  0.00    +0.000 C 
ATOM      3  C   UNL     1     -12.300   7.195 130.645  0.00  0.00    +0.000 C 
ATOM      4  C   UNL     1     -11.373   7.788 129.450  0.00  0.00    +0.000 C 
ATOM      5  C   UNL     1     -11.440   9.007 128.870  0.00  0.00    +0.000 C 
ATOM      6  C   UNL     1     -12.830   9.193 129.161  0.00  0.00    +0.000 C 
ATOM      7  O   UNL     1     -13.205   9.903 130.074  0.00  0.00    +0.000 OA
ATOM      8  C   UNL     1     -13.547   8.064 128.239  0.00  0.00    +0.000 C 
ATOM      9  C   UNL     1     -12.729   6.884 127.995  0.00  0.00    +0.000 C 
ATOM     10  C   UNL     1     -11.120   6.707 128.457  0.00  0.00    +0.000 C 
ATOM     11  C   UNL     1     -10.355   6.962 127.147  0.00  0.00    +0.000 C 
ATOM     12  C   UNL     1     -10.004   6.036 129.476  0.00  0.00    +0.000 C 
ATOM     13  C   UNL     1      -8.886   5.038 128.910  0.00  0.00    +0.000 C 
ATOM     14  C   UNL     1      -7.477   4.882 129.808  0.00  0.00    +0.000 C 
ATOM     15  C   UNL     1      -7.954   4.128 131.408  0.00  0.00    +0.000 C 
ATOM     16  C   UNL     1      -6.843   4.019 132.507  0.00  0.00    +0.000 C 
ATOM     17  O   UNL     1      -7.863   3.075 130.324  0.00  0.00    +0.000 OA
ATOM     18  C   UNL     1      -8.122   2.038 131.021  0.00  0.00    +0.000 C 
ATOM     19  O   UNL     1      -7.250   1.383 131.535  0.00  0.00    +0.000 OA
ATOM     20  C   UNL     1      -9.377   2.878 131.325  0.00  0.00    +0.000 C 
ATOM     21  C   UNL     1      -8.776   4.870 131.464  0.00  0.00    +0.000 C 
ATOM     22  C   UNL     1      -9.807   4.573 132.164  0.00  0.00    +0.000 C 
ENDROOT
TORSDOF 0
ENDMDL
