MODEL 1
REMARK VINA RESULT:      -9.3      0.000      0.000
REMARK  Name = Testosterone cypionate
REMARK  7 active torsions:
REMARK  status: ('A' for Active; 'I' for Inactive)
REMARK    1  A    between atoms: C_5  and  O_6
REMARK    2  A    between atoms: O_6  and  C_7
REMARK    3  A    between atoms: C_7  and  C_9
REMARK    4  A    between atoms: C_9  and  C_10
REMARK    5  A    between atoms: C_10  and  C_11
REMARK    6  A    between atoms: C_16  and  C_17
REMARK    7  A    between atoms: C_32  and  C_33
REMARK                            x       y       z     vdW  Elec       q    Type
REMARK                         _______ _______ _______ _____ _____    ______ ____
ROOT
ATOM      1  C   UNL     1      -8.485  -1.976 126.377  0.00  0.00    +0.000 C 
ATOM      2  C   UNL     1      -8.424  -3.029 125.278  0.00  0.00    +0.000 C 
ATOM      3  C   UNL     1      -8.950  -2.297 124.027  0.00  0.00    +0.000 C 
ATOM      4  C   UNL     1      -9.076  -0.793 124.399  0.00  0.00    +0.000 C 
ATOM      5  C   UNL     1      -8.157  -0.664 125.642  0.00  0.00    +0.000 C 
ATOM      6  C   UNL     1      -6.684  -0.540 125.180  0.00  0.00    +0.000 C 
ATOM      7  C   UNL     1      -8.507   0.478 126.603  0.00  0.00    +0.000 C 
ATOM      8  C   UNL     1      -7.759   0.386 127.931  0.00  0.00    +0.000 C 
ATOM      9  C   UNL     1      -7.857  -0.987 128.621  0.00  0.00    +0.000 C 
ATOM     10  C   UNL     1      -7.625  -2.171 127.631  0.00  0.00    +0.000 C 
ATOM     11  C   UNL     1      -7.958  -3.491 128.333  0.00  0.00    +0.000 C 
ATOM     12  C   UNL     1      -7.185  -3.677 129.633  0.00  0.00    +0.000 C 
ATOM     13  C   UNL     1      -7.231  -2.473 130.542  0.00  0.00    +0.000 C 
ATOM     14  C   UNL     1      -7.488  -2.641 131.851  0.00  0.00    +0.000 C 
ATOM     15  C   UNL     1      -7.331  -1.529 132.817  0.00  0.00    +0.000 C 
ATOM     16  O   UNL     1      -7.563  -1.723 134.007  0.00  0.00    +0.000 OA
ATOM     17  C   UNL     1      -6.766  -0.232 132.302  0.00  0.00    +0.000 C 
ATOM     18  C   UNL     1      -7.288   0.034 130.895  0.00  0.00    +0.000 C 
ATOM     19  C   UNL     1      -6.947  -1.112 129.898  0.00  0.00    +0.000 C 
ATOM     20  C   UNL     1      -5.445  -1.025 129.541  0.00  0.00    +0.000 C 
ENDROOT
BRANCH   4  21
ATOM     21  O   UNL     1      -8.678   0.044 123.294  0.00  0.00    +0.000 OA
BRANCH  21  22
ATOM     22  C   UNL     1      -9.650   0.865 122.799  0.00  0.00    +0.000 C 
ATOM     23  O   UNL     1     -10.798   0.522 122.539  0.00  0.00    +0.000 OA
BRANCH  22  24
ATOM     24  C   UNL     1      -9.152   2.269 122.599  0.00  0.00    +0.000 C 
BRANCH  24  25
ATOM     25  C   UNL     1      -7.875   2.514 123.425  0.00  0.00    +0.000 C 
BRANCH  25  26
ATOM     26  C   UNL     1      -6.646   2.884 122.589  0.00  0.00    +0.000 C 
ATOM     27  C   UNL     1      -7.002   3.511 121.240  0.00  0.00    +0.000 C 
ATOM     28  C   UNL     1      -5.706   4.184 120.795  0.00  0.00    +0.000 C 
ATOM     29  C   UNL     1      -4.965   4.559 122.075  0.00  0.00    +0.000 C 
ATOM     30  C   UNL     1      -5.762   3.956 123.218  0.00  0.00    +0.000 C 
ENDBRANCH  25  26
ENDBRANCH  24  25
ENDBRANCH  22  24
ENDBRANCH  21  22
ENDBRANCH   4  21
TORSDOF 5
ENDMDL
MODEL 2
REMARK VINA RESULT:      -9.3      7.032      8.664
REMARK  Name = Testosterone cypionate
REMARK  7 active torsions:
REMARK  status: ('A' for Active; 'I' for Inactive)
REMARK    1  A    between atoms: C_5  and  O_6
REMARK    2  A    between atoms: O_6  and  C_7
REMARK    3  A    between atoms: C_7  and  C_9
REMARK    4  A    between atoms: C_9  and  C_10
REMARK    5  A    between atoms: C_10  and  C_11
REMARK    6  A    between atoms: C_16  and  C_17
REMARK    7  A    between atoms: C_32  and  C_33
REMARK                            x       y       z     vdW  Elec       q    Type
REMARK                         _______ _______ _______ _____ _____    ______ ____
ROOT
ATOM      1  C   UNL     1      -8.020   4.095 131.089  0.00  0.00    +0.000 C 
ATOM      2  C   UNL     1      -8.810   2.895 130.579  0.00  0.00    +0.000 C 
ATOM      3  C   UNL     1     -10.284   3.313 130.760  0.00  0.00    +0.000 C 
ATOM      4  C   UNL     1     -10.286   4.817 131.149  0.00  0.00    +0.000 C 
ATOM      5  C   UNL     1      -8.888   5.300 130.684  0.00  0.00    +0.000 C 
ATOM      6  C   UNL     1      -8.922   5.581 129.161  0.00  0.00    +0.000 C 
ATOM      7  C   UNL     1      -8.328   6.515 131.432  0.00  0.00    +0.000 C 
ATOM      8  C   UNL     1      -6.852   6.769 131.132  0.00  0.00    +0.000 C 
ATOM      9  C   UNL     1      -5.949   5.534 131.299  0.00  0.00    +0.000 C 
ATOM     10  C   UNL     1      -6.560   4.254 130.650  0.00  0.00    +0.000 C 
ATOM     11  C   UNL     1      -5.724   3.034 131.047  0.00  0.00    +0.000 C 
ATOM     12  C   UNL     1      -4.247   3.197 130.706  0.00  0.00    +0.000 C 
ATOM     13  C   UNL     1      -3.662   4.513 131.158  0.00  0.00    +0.000 C 
ATOM     14  C   UNL     1      -2.478   4.528 131.793  0.00  0.00    +0.000 C 
ATOM     15  C   UNL     1      -1.763   5.797 132.062  0.00  0.00    +0.000 C 
ATOM     16  O   UNL     1      -0.676   5.771 132.633  0.00  0.00    +0.000 OA
ATOM     17  C   UNL     1      -2.353   7.063 131.499  0.00  0.00    +0.000 C 
ATOM     18  C   UNL     1      -3.873   7.001 131.579  0.00  0.00    +0.000 C 
ATOM     19  C   UNL     1      -4.468   5.775 130.828  0.00  0.00    +0.000 C 
ATOM     20  C   UNL     1      -4.388   6.041 129.307  0.00  0.00    +0.000 C 
ENDROOT
BRANCH   4  21
ATOM     21  O   UNL     1     -11.380   5.510 130.513  0.00  0.00    +0.000 OA
BRANCH  21  22
ATOM     22  C   UNL     1     -11.930   6.529 131.236  0.00  0.00    +0.000 C 
ATOM     23  O   UNL     1     -11.558   6.886 132.349  0.00  0.00    +0.000 OA
BRANCH  22  24
ATOM     24  C   UNL     1     -13.069   7.184 130.507  0.00  0.00    +0.000 C 
BRANCH  24  25
ATOM     25  C   UNL     1     -12.619   8.519 129.885  0.00  0.00    +0.000 C 
BRANCH  25  26
ATOM     26  C   UNL     1     -12.399   8.464 128.370  0.00  0.00    +0.000 C 
ATOM     27  C   UNL     1     -10.929   8.303 127.979  0.00  0.00    +0.000 C 
ATOM     28  C   UNL     1     -10.983   7.835 126.528  0.00  0.00    +0.000 C 
ATOM     29  C   UNL     1     -12.299   7.079 126.378  0.00  0.00    +0.000 C 
ATOM     30  C   UNL     1     -13.045   7.262 127.688  0.00  0.00    +0.000 C 
ENDBRANCH  25  26
ENDBRANCH  24  25
ENDBRANCH  22  24
ENDBRANCH  21  22
ENDBRANCH   4  21
TORSDOF 5
ENDMDL
MODEL 3
REMARK VINA RESULT:      -8.8      1.703      2.165
REMARK  Name = Testosterone cypionate
REMARK  7 active torsions:
REMARK  status: ('A' for Active; 'I' for Inactive)
REMARK    1  A    between atoms: C_5  and  O_6
REMARK    2  A    between atoms: O_6  and  C_7
REMARK    3  A    between atoms: C_7  and  C_9
REMARK    4  A    between atoms: C_9  and  C_10
REMARK    5  A    between atoms: C_10  and  C_11
REMARK    6  A    between atoms: C_16  and  C_17
REMARK    7  A    between atoms: C_32  and  C_33
REMARK                            x       y       z     vdW  Elec       q    Type
REMARK                         _______ _______ _______ _____ _____    ______ ____
ROOT
ATOM      1  C   UNL     1      -7.953  -2.467 127.416  0.00  0.00    +0.000 C 
ATOM      2  C   UNL     1      -8.879  -3.513 126.807  0.00  0.00    +0.000 C 
ATOM      3  C   UNL     1      -9.449  -2.824 125.551  0.00  0.00    +0.000 C 
ATOM      4  C   UNL     1      -8.659  -1.500 125.359  0.00  0.00    +0.000 C 
ATOM      5  C   UNL     1      -7.372  -1.740 126.190  0.00  0.00    +0.000 C 
ATOM      6  C   UNL     1      -6.373  -2.583 125.360  0.00  0.00    +0.000 C 
ATOM      7  C   UNL     1      -6.683  -0.474 126.717  0.00  0.00    +0.000 C 
ATOM      8  C   UNL     1      -5.598  -0.775 127.749  0.00  0.00    +0.000 C 
ATOM      9  C   UNL     1      -6.053  -1.694 128.898  0.00  0.00    +0.000 C 
ATOM     10  C   UNL     1      -6.865  -2.926 128.392  0.00  0.00    +0.000 C 
ATOM     11  C   UNL     1      -7.469  -3.663 129.591  0.00  0.00    +0.000 C 
ATOM     12  C   UNL     1      -6.422  -4.056 130.627  0.00  0.00    +0.000 C 
ATOM     13  C   UNL     1      -5.492  -2.929 131.007  0.00  0.00    +0.000 C 
ATOM     14  C   UNL     1      -5.224  -2.701 132.304  0.00  0.00    +0.000 C 
ATOM     15  C   UNL     1      -4.160  -1.757 132.717  0.00  0.00    +0.000 C 
ATOM     16  O   UNL     1      -3.934  -1.583 133.911  0.00  0.00    +0.000 OA
ATOM     17  C   UNL     1      -3.310  -1.146 131.634  0.00  0.00    +0.000 C 
ATOM     18  C   UNL     1      -4.169  -0.855 130.410  0.00  0.00    +0.000 C 
ATOM     19  C   UNL     1      -4.882  -2.123 129.856  0.00  0.00    +0.000 C 
ATOM     20  C   UNL     1      -3.836  -2.997 129.125  0.00  0.00    +0.000 C 
ENDROOT
BRANCH   4  21
ATOM     21  O   UNL     1      -8.408  -1.249 123.961  0.00  0.00    +0.000 OA
BRANCH  21  22
ATOM     22  C   UNL     1      -8.979  -0.117 123.455  0.00  0.00    +0.000 C 
ATOM     23  O   UNL     1     -10.140  -0.023 123.070  0.00  0.00    +0.000 OA
BRANCH  22  24
ATOM     24  C   UNL     1      -8.011   1.032 123.418  0.00  0.00    +0.000 C 
BRANCH  24  25
ATOM     25  C   UNL     1      -8.757   2.364 123.218  0.00  0.00    +0.000 C 
BRANCH  25  26
ATOM     26  C   UNL     1      -8.028   3.363 122.314  0.00  0.00    +0.000 C 
ATOM     27  C   UNL     1      -6.605   2.929 121.959  0.00  0.00    +0.000 C 
ATOM     28  C   UNL     1      -6.249   3.790 120.751  0.00  0.00    +0.000 C 
ATOM     29  C   UNL     1      -7.567   4.091 120.044  0.00  0.00    +0.000 C 
ATOM     30  C   UNL     1      -8.663   3.539 120.938  0.00  0.00    +0.000 C 
ENDBRANCH  25  26
ENDBRANCH  24  25
ENDBRANCH  22  24
ENDBRANCH  21  22
ENDBRANCH   4  21
TORSDOF 5
ENDMDL
MODEL 4
REMARK VINA RESULT:      -8.5      4.847      8.649
REMARK  Name = Testosterone cypionate
REMARK  7 active torsions:
REMARK  status: ('A' for Active; 'I' for Inactive)
REMARK    1  A    between atoms: C_5  and  O_6
REMARK    2  A    between atoms: O_6  and  C_7
REMARK    3  A    between atoms: C_7  and  C_9
REMARK    4  A    between atoms: C_9  and  C_10
REMARK    5  A    between atoms: C_10  and  C_11
REMARK    6  A    between atoms: C_16  and  C_17
REMARK    7  A    between atoms: C_32  and  C_33
REMARK                            x       y       z     vdW  Elec       q    Type
REMARK                         _______ _______ _______ _____ _____    ______ ____
ROOT
ATOM      1  C   UNL     1      -7.595   1.925 133.241  0.00  0.00    +0.000 C 
ATOM      2  C   UNL     1      -6.347   1.844 134.111  0.00  0.00    +0.000 C 
ATOM      3  C   UNL     1      -5.966   0.350 134.084  0.00  0.00    +0.000 C 
ATOM      4  C   UNL     1      -6.870  -0.331 133.019  0.00  0.00    +0.000 C 
ATOM      5  C   UNL     1      -7.349   0.864 132.154  0.00  0.00    +0.000 C 
ATOM      6  C   UNL     1      -6.242   1.235 131.136  0.00  0.00    +0.000 C 
ATOM      7  C   UNL     1      -8.685   0.658 131.430  0.00  0.00    +0.000 C 
ATOM      8  C   UNL     1      -9.239   1.949 130.829  0.00  0.00    +0.000 C 
ATOM      9  C   UNL     1      -9.302   3.131 131.814  0.00  0.00    +0.000 C 
ATOM     10  C   UNL     1      -7.995   3.282 132.651  0.00  0.00    +0.000 C 
ATOM     11  C   UNL     1      -8.214   4.324 133.752  0.00  0.00    +0.000 C 
ATOM     12  C   UNL     1      -8.700   5.661 133.207  0.00  0.00    +0.000 C 
ATOM     13  C   UNL     1      -9.853   5.540 132.241  0.00  0.00    +0.000 C 
ATOM     14  C   UNL     1     -10.914   6.354 132.371  0.00  0.00    +0.000 C 
ATOM     15  C   UNL     1     -11.965   6.424 131.330  0.00  0.00    +0.000 C 
ATOM     16  O   UNL     1     -12.914   7.190 131.476  0.00  0.00    +0.000 OA
ATOM     17  C   UNL     1     -11.749   5.634 130.066  0.00  0.00    +0.000 C 
ATOM     18  C   UNL     1     -11.077   4.308 130.398  0.00  0.00    +0.000 C 
ATOM     19  C   UNL     1      -9.718   4.488 131.135  0.00  0.00    +0.000 C 
ATOM     20  C   UNL     1      -8.660   4.963 130.112  0.00  0.00    +0.000 C 
ENDROOT
BRANCH   4  21
ATOM     21  O   UNL     1      -6.132  -1.325 132.280  0.00  0.00    +0.000 OA
BRANCH  21  22
ATOM     22  C   UNL     1      -6.756  -2.531 132.133  0.00  0.00    +0.000 C 
ATOM     23  O   UNL     1      -7.470  -3.063 132.976  0.00  0.00    +0.000 OA
BRANCH  22  24
ATOM     24  C   UNL     1      -6.466  -3.154 130.797  0.00  0.00    +0.000 C 
BRANCH  24  25
ATOM     25  C   UNL     1      -6.556  -2.102 129.675  0.00  0.00    +0.000 C 
BRANCH  25  26
ATOM     26  C   UNL     1      -7.769  -2.268 128.754  0.00  0.00    +0.000 C 
ATOM     27  C   UNL     1      -7.437  -2.053 127.276  0.00  0.00    +0.000 C 
ATOM     28  C   UNL     1      -8.616  -2.682 126.540  0.00  0.00    +0.000 C 
ATOM     29  C   UNL     1      -9.140  -3.789 127.450  0.00  0.00    +0.000 C 
ATOM     30  C   UNL     1      -8.362  -3.672 128.749  0.00  0.00    +0.000 C 
ENDBRANCH  25  26
ENDBRANCH  24  25
ENDBRANCH  22  24
ENDBRANCH  21  22
ENDBRANCH   4  21
TORSDOF 5
ENDMDL
MODEL 5
REMARK VINA RESULT:      -8.5      2.805      3.983
REMARK  Name = Testosterone cypionate
REMARK  7 active torsions:
REMARK  status: ('A' for Active; 'I' for Inactive)
REMARK    1  A    between atoms: C_5  and  O_6
REMARK    2  A    between atoms: O_6  and  C_7
REMARK    3  A    between atoms: C_7  and  C_9
REMARK    4  A    between atoms: C_9  and  C_10
REMARK    5  A    between atoms: C_10  and  C_11
REMARK    6  A    between atoms: C_16  and  C_17
REMARK    7  A    between atoms: C_32  and  C_33
REMARK                            x       y       z     vdW  Elec       q    Type
REMARK                         _______ _______ _______ _____ _____    ______ ____
ROOT
ATOM      1  C   UNL     1      -7.251  -2.105 128.515  0.00  0.00    +0.000 C 
ATOM      2  C   UNL     1      -8.037  -2.998 127.563  0.00  0.00    +0.000 C 
ATOM      3  C   UNL     1      -8.747  -2.006 126.619  0.00  0.00    +0.000 C 
ATOM      4  C   UNL     1      -8.165  -0.597 126.917  0.00  0.00    +0.000 C 
ATOM      5  C   UNL     1      -6.827  -0.917 127.632  0.00  0.00    +0.000 C 
ATOM      6  C   UNL     1      -5.748  -1.259 126.575  0.00  0.00    +0.000 C 
ATOM      7  C   UNL     1      -6.310   0.172 128.581  0.00  0.00    +0.000 C 
ATOM      8  C   UNL     1      -5.156  -0.306 129.459  0.00  0.00    +0.000 C 
ATOM      9  C   UNL     1      -5.429  -1.625 130.204  0.00  0.00    +0.000 C 
ATOM     10  C   UNL     1      -6.072  -2.709 129.285  0.00  0.00    +0.000 C 
ATOM     11  C   UNL     1      -6.517  -3.900 130.139  0.00  0.00    +0.000 C 
ATOM     12  C   UNL     1      -5.388  -4.470 130.988  0.00  0.00    +0.000 C 
ATOM     13  C   UNL     1      -4.617  -3.422 131.754  0.00  0.00    +0.000 C 
ATOM     14  C   UNL     1      -4.337  -3.623 133.053  0.00  0.00    +0.000 C 
ATOM     15  C   UNL     1      -3.406  -2.737 133.789  0.00  0.00    +0.000 C 
ATOM     16  O   UNL     1      -3.164  -2.960 134.972  0.00  0.00    +0.000 OA
ATOM     17  C   UNL     1      -2.695  -1.667 133.003  0.00  0.00    +0.000 C 
ATOM     18  C   UNL     1      -3.632  -1.097 131.946  0.00  0.00    +0.000 C 
ATOM     19  C   UNL     1      -4.173  -2.182 130.970  0.00  0.00    +0.000 C 
ATOM     20  C   UNL     1      -3.040  -2.580 129.996  0.00  0.00    +0.000 C 
ENDROOT
BRANCH   4  21
ATOM     21  O   UNL     1      -8.006   0.161 125.700  0.00  0.00    +0.000 OA
BRANCH  21  22
ATOM     22  C   UNL     1      -9.101   0.203 124.886  0.00  0.00    +0.000 C 
ATOM     23  O   UNL     1     -10.251   0.409 125.261  0.00  0.00    +0.000 OA
BRANCH  22  24
ATOM     24  C   UNL     1      -8.741  -0.037 123.447  0.00  0.00    +0.000 C 
BRANCH  24  25
ATOM     25  C   UNL     1      -9.034  -1.496 123.050  0.00  0.00    +0.000 C 
BRANCH  25  26
ATOM     26  C   UNL     1      -7.783  -2.364 122.879  0.00  0.00    +0.000 C 
ATOM     27  C   UNL     1      -6.483  -1.558 122.898  0.00  0.00    +0.000 C 
ATOM     28  C   UNL     1      -5.406  -2.606 123.159  0.00  0.00    +0.000 C 
ATOM     29  C   UNL     1      -6.081  -3.714 123.962  0.00  0.00    +0.000 C 
ATOM     30  C   UNL     1      -7.557  -3.364 124.008  0.00  0.00    +0.000 C 
ENDBRANCH  25  26
ENDBRANCH  24  25
ENDBRANCH  22  24
ENDBRANCH  21  22
ENDBRANCH   4  21
TORSDOF 5
ENDMDL
MODEL 6
REMARK VINA RESULT:      -8.4      7.572      9.542
REMARK  Name = Testosterone cypionate
REMARK  7 active torsions:
REMARK  status: ('A' for Active; 'I' for Inactive)
REMARK    1  A    between atoms: C_5  and  O_6
REMARK    2  A    between atoms: O_6  and  C_7
REMARK    3  A    between atoms: C_7  and  C_9
REMARK    4  A    between atoms: C_9  and  C_10
REMARK    5  A    between atoms: C_10  and  C_11
REMARK    6  A    between atoms: C_16  and  C_17
REMARK    7  A    between atoms: C_32  and  C_33
REMARK                            x       y       z     vdW  Elec       q    Type
REMARK                         _______ _______ _______ _____ _____    ______ ____
ROOT
ATOM      1  C   UNL     1      -7.038   4.668 133.401  0.00  0.00    +0.000 C 
ATOM      2  C   UNL     1      -7.795   3.541 134.094  0.00  0.00    +0.000 C 
ATOM      3  C   UNL     1      -9.276   3.836 133.781  0.00  0.00    +0.000 C 
ATOM      4  C   UNL     1      -9.301   4.983 132.733  0.00  0.00    +0.000 C 
ATOM      5  C   UNL     1      -7.871   4.938 132.135  0.00  0.00    +0.000 C 
ATOM      6  C   UNL     1      -7.795   3.818 131.068  0.00  0.00    +0.000 C 
ATOM      7  C   UNL     1      -7.360   6.261 131.549  0.00  0.00    +0.000 C 
ATOM      8  C   UNL     1      -5.866   6.233 131.235  0.00  0.00    +0.000 C 
ATOM      9  C   UNL     1      -4.982   5.749 132.398  0.00  0.00    +0.000 C 
ATOM     10  C   UNL     1      -5.550   4.472 133.090  0.00  0.00    +0.000 C 
ATOM     11  C   UNL     1      -4.749   4.185 134.364  0.00  0.00    +0.000 C 
ATOM     12  C   UNL     1      -3.252   4.074 134.104  0.00  0.00    +0.000 C 
ATOM     13  C   UNL     1      -2.695   5.204 133.273  0.00  0.00    +0.000 C 
ATOM     14  C   UNL     1      -1.559   5.811 133.656  0.00  0.00    +0.000 C 
ATOM     15  C   UNL     1      -0.859   6.770 132.771  0.00  0.00    +0.000 C 
ATOM     16  O   UNL     1       0.184   7.295 133.150  0.00  0.00    +0.000 OA
ATOM     17  C   UNL     1      -1.403   6.959 131.379  0.00  0.00    +0.000 C 
ATOM     18  C   UNL     1      -2.925   6.904 131.410  0.00  0.00    +0.000 C 
ATOM     19  C   UNL     1      -3.470   5.572 132.002  0.00  0.00    +0.000 C 
ATOM     20  C   UNL     1      -3.282   4.452 130.953  0.00  0.00    +0.000 C 
ENDROOT
BRANCH   4  21
ATOM     21  O   UNL     1     -10.344   4.768 131.760  0.00  0.00    +0.000 OA
BRANCH  21  22
ATOM     22  C   UNL     1     -10.895   5.899 131.230  0.00  0.00    +0.000 C 
ATOM     23  O   UNL     1     -11.586   6.703 131.846  0.00  0.00    +0.000 OA
BRANCH  22  24
ATOM     24  C   UNL     1     -10.558   6.059 129.774  0.00  0.00    +0.000 C 
BRANCH  24  25
ATOM     25  C   UNL     1     -10.352   7.544 129.424  0.00  0.00    +0.000 C 
BRANCH  25  26
ATOM     26  C   UNL     1     -11.456   8.142 128.546  0.00  0.00    +0.000 C 
ATOM     27  C   UNL     1     -12.474   7.105 128.068  0.00  0.00    +0.000 C 
ATOM     28  C   UNL     1     -13.668   7.943 127.620  0.00  0.00    +0.000 C 
ATOM     29  C   UNL     1     -13.634   9.213 128.464  0.00  0.00    +0.000 C 
ATOM     30  C   UNL     1     -12.343   9.157 129.261  0.00  0.00    +0.000 C 
ENDBRANCH  25  26
ENDBRANCH  24  25
ENDBRANCH  22  24
ENDBRANCH  21  22
ENDBRANCH   4  21
TORSDOF 5
ENDMDL
MODEL 7
REMARK VINA RESULT:      -8.2      3.221      4.970
REMARK  Name = Testosterone cypionate
REMARK  7 active torsions:
REMARK  status: ('A' for Active; 'I' for Inactive)
REMARK    1  A    between atoms: C_5  and  O_6
REMARK    2  A    between atoms: O_6  and  C_7
REMARK    3  A    between atoms: C_7  and  C_9
REMARK    4  A    between atoms: C_9  and  C_10
REMARK    5  A    between atoms: C_10  and  C_11
REMARK    6  A    between atoms: C_16  and  C_17
REMARK    7  A    between atoms: C_32  and  C_33
REMARK                            x       y       z     vdW  Elec       q    Type
REMARK                         _______ _______ _______ _____ _____    ______ ____
ROOT
ATOM      1  C   UNL     1      -5.655  -1.408 128.940  0.00  0.00    +0.000 C 
ATOM      2  C   UNL     1      -5.178  -0.113 128.295  0.00  0.00    +0.000 C 
ATOM      3  C   UNL     1      -6.157   0.105 127.123  0.00  0.00    +0.000 C 
ATOM      4  C   UNL     1      -7.293  -0.945 127.277  0.00  0.00    +0.000 C 
ATOM      5  C   UNL     1      -7.184  -1.359 128.768  0.00  0.00    +0.000 C 
ATOM      6  C   UNL     1      -7.893  -0.301 129.648  0.00  0.00    +0.000 C 
ATOM      7  C   UNL     1      -7.708  -2.761 129.102  0.00  0.00    +0.000 C 
ATOM      8  C   UNL     1      -7.324  -3.219 130.507  0.00  0.00    +0.000 C 
ATOM      9  C   UNL     1      -5.825  -3.082 130.831  0.00  0.00    +0.000 C 
ATOM     10  C   UNL     1      -5.241  -1.706 130.386  0.00  0.00    +0.000 C 
ATOM     11  C   UNL     1      -3.717  -1.730 130.534  0.00  0.00    +0.000 C 
ATOM     12  C   UNL     1      -3.268  -2.111 131.939  0.00  0.00    +0.000 C 
ATOM     13  C   UNL     1      -3.955  -3.341 132.482  0.00  0.00    +0.000 C 
ATOM     14  C   UNL     1      -3.225  -4.297 133.081  0.00  0.00    +0.000 C 
ATOM     15  C   UNL     1      -3.866  -5.411 133.816  0.00  0.00    +0.000 C 
ATOM     16  O   UNL     1      -3.166  -6.260 134.362  0.00  0.00    +0.000 OA
ATOM     17  C   UNL     1      -5.364  -5.377 133.967  0.00  0.00    +0.000 C 
ATOM     18  C   UNL     1      -5.996  -4.825 132.695  0.00  0.00    +0.000 C 
ATOM     19  C   UNL     1      -5.479  -3.402 132.332  0.00  0.00    +0.000 C 
ATOM     20  C   UNL     1      -6.123  -2.381 133.298  0.00  0.00    +0.000 C 
ENDROOT
BRANCH   4  21
ATOM     21  O   UNL     1      -8.570  -0.375 126.925  0.00  0.00    +0.000 OA
BRANCH  21  22
ATOM     22  C   UNL     1      -9.165  -0.907 125.818  0.00  0.00    +0.000 C 
ATOM     23  O   UNL     1      -9.729  -0.260 124.941  0.00  0.00    +0.000 OA
BRANCH  22  24
ATOM     24  C   UNL     1      -9.056  -2.405 125.786  0.00  0.00    +0.000 C 
BRANCH  24  25
ATOM     25  C   UNL     1      -9.211  -2.930 124.346  0.00  0.00    +0.000 C 
BRANCH  25  26
ATOM     26  C   UNL     1      -7.887  -3.106 123.595  0.00  0.00    +0.000 C 
ATOM     27  C   UNL     1      -7.514  -1.895 122.739  0.00  0.00    +0.000 C 
ATOM     28  C   UNL     1      -6.026  -2.087 122.460  0.00  0.00    +0.000 C 
ATOM     29  C   UNL     1      -5.471  -2.868 123.648  0.00  0.00    +0.000 C 
ATOM     30  C   UNL     1      -6.669  -3.246 124.501  0.00  0.00    +0.000 C 
ENDBRANCH  25  26
ENDBRANCH  24  25
ENDBRANCH  22  24
ENDBRANCH  21  22
ENDBRANCH   4  21
TORSDOF 5
ENDMDL
MODEL 8
REMARK VINA RESULT:      -8.1      2.055      4.356
REMARK  Name = Testosterone cypionate
REMARK  7 active torsions:
REMARK  status: ('A' for Active; 'I' for Inactive)
REMARK    1  A    between atoms: C_5  and  O_6
REMARK    2  A    between atoms: O_6  and  C_7
REMARK    3  A    between atoms: C_7  and  C_9
REMARK    4  A    between atoms: C_9  and  C_10
REMARK    5  A    between atoms: C_10  and  C_11
REMARK    6  A    between atoms: C_16  and  C_17
REMARK    7  A    between atoms: C_32  and  C_33
REMARK                            x       y       z     vdW  Elec       q    Type
REMARK                         _______ _______ _______ _____ _____    ______ ____
ROOT
ATOM      1  C   UNL     1      -7.424   0.746 128.405  0.00  0.00    +0.000 C 
ATOM      2  C   UNL     1      -8.340   1.959 128.508  0.00  0.00    +0.000 C 
ATOM      3  C   UNL     1      -8.183   2.666 127.147  0.00  0.00    +0.000 C 
ATOM      4  C   UNL     1      -7.364   1.713 126.231  0.00  0.00    +0.000 C 
ATOM      5  C   UNL     1      -7.530   0.336 126.925  0.00  0.00    +0.000 C 
ATOM      6  C   UNL     1      -8.896  -0.277 126.527  0.00  0.00    +0.000 C 
ATOM      7  C   UNL     1      -6.404  -0.671 126.666  0.00  0.00    +0.000 C 
ATOM      8  C   UNL     1      -6.474  -1.889 127.585  0.00  0.00    +0.000 C 
ATOM      9  C   UNL     1      -6.599  -1.549 129.081  0.00  0.00    +0.000 C 
ATOM     10  C   UNL     1      -7.656  -0.434 129.355  0.00  0.00    +0.000 C 
ATOM     11  C   UNL     1      -7.564   0.004 130.819  0.00  0.00    +0.000 C 
ATOM     12  C   UNL     1      -7.701  -1.161 131.791  0.00  0.00    +0.000 C 
ATOM     13  C   UNL     1      -6.824  -2.341 131.450  0.00  0.00    +0.000 C 
ATOM     14  C   UNL     1      -6.105  -2.934 132.419  0.00  0.00    +0.000 C 
ATOM     15  C   UNL     1      -5.403  -4.217 132.184  0.00  0.00    +0.000 C 
ATOM     16  O   UNL     1      -4.767  -4.736 133.097  0.00  0.00    +0.000 OA
ATOM     17  C   UNL     1      -5.615  -4.894 130.856  0.00  0.00    +0.000 C 
ATOM     18  C   UNL     1      -5.700  -3.847 129.753  0.00  0.00    +0.000 C 
ATOM     19  C   UNL     1      -6.836  -2.810 129.991  0.00  0.00    +0.000 C 
ATOM     20  C   UNL     1      -8.194  -3.486 129.689  0.00  0.00    +0.000 C 
ENDROOT
BRANCH   4  21
ATOM     21  O   UNL     1      -7.864   1.746 124.879  0.00  0.00    +0.000 OA
BRANCH  21  22
ATOM     22  C   UNL     1      -6.925   1.959 123.910  0.00  0.00    +0.000 C 
ATOM     23  O   UNL     1      -6.386   3.035 123.675  0.00  0.00    +0.000 OA
BRANCH  22  24
ATOM     24  C   UNL     1      -6.616   0.705 123.143  0.00  0.00    +0.000 C 
BRANCH  24  25
ATOM     25  C   UNL     1      -7.825  -0.249 123.149  0.00  0.00    +0.000 C 
BRANCH  25  26
ATOM     26  C   UNL     1      -7.455  -1.735 123.160  0.00  0.00    +0.000 C 
ATOM     27  C   UNL     1      -6.030  -1.997 123.650  0.00  0.00    +0.000 C 
ATOM     28  C   UNL     1      -6.028  -3.483 123.997  0.00  0.00    +0.000 C 
ATOM     29  C   UNL     1      -7.461  -3.824 124.398  0.00  0.00    +0.000 C 
ATOM     30  C   UNL     1      -8.285  -2.579 124.122  0.00  0.00    +0.000 C 
ENDBRANCH  25  26
ENDBRANCH  24  25
ENDBRANCH  22  24
ENDBRANCH  21  22
ENDBRANCH   4  21
TORSDOF 5
ENDMDL
MODEL 9
REMARK VINA RESULT:      -8.0      5.297      7.704
REMARK  Name = Testosterone cypionate
REMARK  7 active torsions:
REMARK  status: ('A' for Active; 'I' for Inactive)
REMARK    1  A    between atoms: C_5  and  O_6
REMARK    2  A    between atoms: O_6  and  C_7
REMARK    3  A    between atoms: C_7  and  C_9
REMARK    4  A    between atoms: C_9  and  C_10
REMARK    5  A    between atoms: C_10  and  C_11
REMARK    6  A    between atoms: C_16  and  C_17
REMARK    7  A    between atoms: C_32  and  C_33
REMARK                            x       y       z     vdW  Elec       q    Type
REMARK                         _______ _______ _______ _____ _____    ______ ____
ROOT
ATOM      1  C   UNL     1      -3.964   3.697 127.553  0.00  0.00    +0.000 C 
ATOM      2  C   UNL     1      -4.501   4.151 126.202  0.00  0.00    +0.000 C 
ATOM      3  C   UNL     1      -4.985   2.848 125.533  0.00  0.00    +0.000 C 
ATOM      4  C   UNL     1      -4.918   1.731 126.611  0.00  0.00    +0.000 C 
ATOM      5  C   UNL     1      -4.891   2.530 127.939  0.00  0.00    +0.000 C 
ATOM      6  C   UNL     1      -6.333   2.956 128.312  0.00  0.00    +0.000 C 
ATOM      7  C   UNL     1      -4.229   1.817 129.124  0.00  0.00    +0.000 C 
ATOM      8  C   UNL     1      -3.980   2.744 130.312  0.00  0.00    +0.000 C 
ATOM      9  C   UNL     1      -3.249   4.050 129.954  0.00  0.00    +0.000 C 
ATOM     10  C   UNL     1      -3.829   4.731 128.676  0.00  0.00    +0.000 C 
ATOM     11  C   UNL     1      -2.917   5.888 128.259  0.00  0.00    +0.000 C 
ATOM     12  C   UNL     1      -2.688   6.891 129.384  0.00  0.00    +0.000 C 
ATOM     13  C   UNL     1      -2.304   6.252 130.696  0.00  0.00    +0.000 C 
ATOM     14  C   UNL     1      -1.277   6.756 131.402  0.00  0.00    +0.000 C 
ATOM     15  C   UNL     1      -0.998   6.308 132.786  0.00  0.00    +0.000 C 
ATOM     16  O   UNL     1      -0.059   6.800 133.405  0.00  0.00    +0.000 OA
ATOM     17  C   UNL     1      -1.973   5.349 133.418  0.00  0.00    +0.000 C 
ATOM     18  C   UNL     1      -2.474   4.362 132.372  0.00  0.00    +0.000 C 
ATOM     19  C   UNL     1      -3.150   5.060 131.156  0.00  0.00    +0.000 C 
ATOM     20  C   UNL     1      -4.544   5.569 131.592  0.00  0.00    +0.000 C 
ENDROOT
BRANCH   4  21
ATOM     21  O   UNL     1      -6.044   0.837 126.494  0.00  0.00    +0.000 OA
BRANCH  21  22
ATOM     22  C   UNL     1      -5.735  -0.470 126.252  0.00  0.00    +0.000 C 
ATOM     23  O   UNL     1      -5.291  -1.256 127.082  0.00  0.00    +0.000 OA
BRANCH  22  24
ATOM     24  C   UNL     1      -5.999  -0.855 124.823  0.00  0.00    +0.000 C 
BRANCH  24  25
ATOM     25  C   UNL     1      -5.815  -2.371 124.626  0.00  0.00    +0.000 C 
BRANCH  25  26
ATOM     26  C   UNL     1      -7.098  -3.116 124.245  0.00  0.00    +0.000 C 
ATOM     27  C   UNL     1      -8.124  -3.169 125.378  0.00  0.00    +0.000 C 
ATOM     28  C   UNL     1      -9.429  -3.532 124.675  0.00  0.00    +0.000 C 
ATOM     29  C   UNL     1      -9.312  -2.980 123.257  0.00  0.00    +0.000 C 
ATOM     30  C   UNL     1      -7.893  -2.457 123.123  0.00  0.00    +0.000 C 
ENDBRANCH  25  26
ENDBRANCH  24  25
ENDBRANCH  22  24
ENDBRANCH  21  22
ENDBRANCH   4  21
TORSDOF 5
ENDMDL
