MODEL 1
REMARK VINA RESULT:      -8.2      0.000      0.000
REMARK  Name = Testosterone enanthate
REMARK  10 active torsions:
REMARK  status: ('A' for Active; 'I' for Inactive)
REMARK    1  A    between atoms: C_5  and  O_6
REMARK    2  A    between atoms: O_6  and  C_7
REMARK    3  A    between atoms: C_7  and  C_9
REMARK    4  A    between atoms: C_9  and  C_10
REMARK    5  A    between atoms: C_10  and  C_11
REMARK    6  A    between atoms: C_11  and  C_12
REMARK    7  A    between atoms: C_12  and  C_13
REMARK    8  A    between atoms: C_13  and  C_14
REMARK    9  A    between atoms: C_15  and  C_16
REMARK   10  A    between atoms: C_31  and  C_32
REMARK                            x       y       z     vdW  Elec       q    Type
REMARK                         _______ _______ _______ _____ _____    ______ ____
ROOT
ATOM      1  C   UNL     1      -8.573  -2.289 126.471  0.00  0.00    +0.000 C 
ATOM      2  C   UNL     1      -8.582  -3.431 125.463  0.00  0.00    +0.000 C 
ATOM      3  C   UNL     1      -9.143  -2.791 124.175  0.00  0.00    +0.000 C 
ATOM      4  C   UNL     1      -9.210  -1.255 124.418  0.00  0.00    +0.000 C 
ATOM      5  C   UNL     1      -8.244  -1.052 125.615  0.00  0.00    +0.000 C 
ATOM      6  C   UNL     1      -6.789  -1.006 125.089  0.00  0.00    +0.000 C 
ATOM      7  C   UNL     1      -8.528   0.173 126.493  0.00  0.00    +0.000 C 
ATOM      8  C   UNL     1      -7.726   0.171 127.793  0.00  0.00    +0.000 C 
ATOM      9  C   UNL     1      -7.826  -1.138 128.599  0.00  0.00    +0.000 C 
ATOM     10  C   UNL     1      -7.664  -2.404 127.703  0.00  0.00    +0.000 C 
ATOM     11  C   UNL     1      -7.996  -3.653 128.525  0.00  0.00    +0.000 C 
ATOM     12  C   UNL     1      -7.173  -3.751 129.804  0.00  0.00    +0.000 C 
ATOM     13  C   UNL     1      -7.153  -2.476 130.611  0.00  0.00    +0.000 C 
ATOM     14  C   UNL     1      -7.357  -2.529 131.939  0.00  0.00    +0.000 C 
ATOM     15  C   UNL     1      -7.134  -1.345 132.801  0.00  0.00    +0.000 C 
ATOM     16  O   UNL     1      -7.319  -1.434 134.012  0.00  0.00    +0.000 OA
ATOM     17  C   UNL     1      -6.562  -0.110 132.158  0.00  0.00    +0.000 C 
ATOM     18  C   UNL     1      -7.137   0.052 130.756  0.00  0.00    +0.000 C 
ATOM     19  C   UNL     1      -6.866  -1.180 129.844  0.00  0.00    +0.000 C 
ATOM     20  C   UNL     1      -5.379  -1.162 129.420  0.00  0.00    +0.000 C 
ENDROOT
BRANCH   4  21
ATOM     21  O   UNL     1      -8.826  -0.528 123.227  0.00  0.00    +0.000 OA
BRANCH  21  22
ATOM     22  C   UNL     1      -9.612   0.542 122.911  0.00  0.00    +0.000 C 
ATOM     23  O   UNL     1     -10.745   0.458 122.444  0.00  0.00    +0.000 OA
BRANCH  22  24
ATOM     24  C   UNL     1      -8.936   1.867 123.176  0.00  0.00    +0.000 C 
BRANCH  24  25
ATOM     25  C   UNL     1      -7.423   1.714 122.959  0.00  0.00    +0.000 C 
BRANCH  25  26
ATOM     26  C   UNL     1      -6.617   2.762 123.714  0.00  0.00    +0.000 C 
BRANCH  26  27
ATOM     27  C   UNL     1      -6.091   3.829 122.755  0.00  0.00    +0.000 C 
BRANCH  27  28
ATOM     28  C   UNL     1      -5.802   3.227 121.384  0.00  0.00    +0.000 C 
ATOM     29  C   UNL     1      -6.103   4.224 120.282  0.00  0.00    +0.000 C 
ENDBRANCH  27  28
ENDBRANCH  26  27
ENDBRANCH  25  26
ENDBRANCH  24  25
ENDBRANCH  22  24
ENDBRANCH  21  22
ENDBRANCH   4  21
TORSDOF 7
ENDMDL
MODEL 2
REMARK VINA RESULT:      -7.7      3.384      5.045
REMARK  Name = Testosterone enanthate
REMARK  10 active torsions:
REMARK  status: ('A' for Active; 'I' for Inactive)
REMARK    1  A    between atoms: C_5  and  O_6
REMARK    2  A    between atoms: O_6  and  C_7
REMARK    3  A    between atoms: C_7  and  C_9
REMARK    4  A    between atoms: C_9  and  C_10
REMARK    5  A    between atoms: C_10  and  C_11
REMARK    6  A    between atoms: C_11  and  C_12
REMARK    7  A    between atoms: C_12  and  C_13
REMARK    8  A    between atoms: C_13  and  C_14
REMARK    9  A    between atoms: C_15  and  C_16
REMARK   10  A    between atoms: C_31  and  C_32
REMARK                            x       y       z     vdW  Elec       q    Type
REMARK                         _______ _______ _______ _____ _____    ______ ____
ROOT
ATOM      1  C   UNL     1      -5.725  -2.978 129.249  0.00  0.00    +0.000 C 
ATOM      2  C   UNL     1      -4.680  -2.503 128.247  0.00  0.00    +0.000 C 
ATOM      3  C   UNL     1      -5.507  -2.085 127.013  0.00  0.00    +0.000 C 
ATOM      4  C   UNL     1      -7.005  -2.108 127.434  0.00  0.00    +0.000 C 
ATOM      5  C   UNL     1      -6.929  -2.055 128.983  0.00  0.00    +0.000 C 
ATOM      6  C   UNL     1      -6.721  -0.588 129.431  0.00  0.00    +0.000 C 
ATOM      7  C   UNL     1      -8.121  -2.671 129.725  0.00  0.00    +0.000 C 
ATOM      8  C   UNL     1      -7.870  -2.834 131.222  0.00  0.00    +0.000 C 
ATOM      9  C   UNL     1      -6.554  -3.555 131.571  0.00  0.00    +0.000 C 
ATOM     10  C   UNL     1      -5.346  -3.029 130.735  0.00  0.00    +0.000 C 
ATOM     11  C   UNL     1      -4.134  -3.934 130.971  0.00  0.00    +0.000 C 
ATOM     12  C   UNL     1      -3.786  -4.079 132.449  0.00  0.00    +0.000 C 
ATOM     13  C   UNL     1      -4.973  -4.407 133.321  0.00  0.00    +0.000 C 
ATOM     14  C   UNL     1      -4.869  -5.382 134.241  0.00  0.00    +0.000 C 
ATOM     15  C   UNL     1      -5.922  -5.595 135.260  0.00  0.00    +0.000 C 
ATOM     16  O   UNL     1      -5.787  -6.488 136.093  0.00  0.00    +0.000 OA
ATOM     17  C   UNL     1      -7.060  -4.611 135.305  0.00  0.00    +0.000 C 
ATOM     18  C   UNL     1      -7.431  -4.190 133.889  0.00  0.00    +0.000 C 
ATOM     19  C   UNL     1      -6.236  -3.565 133.112  0.00  0.00    +0.000 C 
ATOM     20  C   UNL     1      -5.988  -2.138 133.653  0.00  0.00    +0.000 C 
ENDROOT
BRANCH   4  21
ATOM     21  O   UNL     1      -7.722  -0.996 126.846  0.00  0.00    +0.000 OA
BRANCH  21  22
ATOM     22  C   UNL     1      -8.847  -1.326 126.146  0.00  0.00    +0.000 C 
ATOM     23  O   UNL     1      -9.671  -0.514 125.735  0.00  0.00    +0.000 OA
BRANCH  22  24
ATOM     24  C   UNL     1      -8.994  -2.815 125.937  0.00  0.00    +0.000 C 
BRANCH  24  25
ATOM     25  C   UNL     1      -9.137  -3.104 124.436  0.00  0.00    +0.000 C 
BRANCH  25  26
ATOM     26  C   UNL     1      -7.848  -2.845 123.668  0.00  0.00    +0.000 C 
BRANCH  26  27
ATOM     27  C   UNL     1      -6.730  -3.757 124.171  0.00  0.00    +0.000 C 
BRANCH  27  28
ATOM     28  C   UNL     1      -5.383  -3.325 123.602  0.00  0.00    +0.000 C 
ATOM     29  C   UNL     1      -4.390  -4.472 123.636  0.00  0.00    +0.000 C 
ENDBRANCH  27  28
ENDBRANCH  26  27
ENDBRANCH  25  26
ENDBRANCH  24  25
ENDBRANCH  22  24
ENDBRANCH  21  22
ENDBRANCH   4  21
TORSDOF 7
ENDMDL
MODEL 3
REMARK VINA RESULT:      -7.7      7.617      9.941
REMARK  Name = Testosterone enanthate
REMARK  10 active torsions:
REMARK  status: ('A' for Active; 'I' for Inactive)
REMARK    1  A    between atoms: C_5  and  O_6
REMARK    2  A    between atoms: O_6  and  C_7
REMARK    3  A    between atoms: C_7  and  C_9
REMARK    4  A    between atoms: C_9  and  C_10
REMARK    5  A    between atoms: C_10  and  C_11
REMARK    6  A    between atoms: C_11  and  C_12
REMARK    7  A    between atoms: C_12  and  C_13
REMARK    8  A    between atoms: C_13  and  C_14
REMARK    9  A    between atoms: C_15  and  C_16
REMARK   10  A    between atoms: C_31  and  C_32
REMARK                            x       y       z     vdW  Elec       q    Type
REMARK                         _______ _______ _______ _____ _____    ______ ____
ROOT
ATOM      1  C   UNL     1      -7.320   5.104 133.672  0.00  0.00    +0.000 C 
ATOM      2  C   UNL     1      -8.057   3.978 134.387  0.00  0.00    +0.000 C 
ATOM      3  C   UNL     1      -9.444   3.949 133.712  0.00  0.00    +0.000 C 
ATOM      4  C   UNL     1      -9.374   4.893 132.477  0.00  0.00    +0.000 C 
ATOM      5  C   UNL     1      -7.847   5.022 132.228  0.00  0.00    +0.000 C 
ATOM      6  C   UNL     1      -7.357   3.786 131.436  0.00  0.00    +0.000 C 
ATOM      7  C   UNL     1      -7.399   6.311 131.528  0.00  0.00    +0.000 C 
ATOM      8  C   UNL     1      -5.885   6.505 131.553  0.00  0.00    +0.000 C 
ATOM      9  C   UNL     1      -5.250   6.370 132.950  0.00  0.00    +0.000 C 
ATOM     10  C   UNL     1      -5.787   5.132 133.733  0.00  0.00    +0.000 C 
ATOM     11  C   UNL     1      -5.287   5.191 135.179  0.00  0.00    +0.000 C 
ATOM     12  C   UNL     1      -3.770   5.311 135.273  0.00  0.00    +0.000 C 
ATOM     13  C   UNL     1      -3.191   6.383 134.382  0.00  0.00    +0.000 C 
ATOM     14  C   UNL     1      -2.277   7.235 134.879  0.00  0.00    +0.000 C 
ATOM     15  C   UNL     1      -1.524   8.158 133.999  0.00  0.00    +0.000 C 
ATOM     16  O   UNL     1      -0.687   8.913 134.486  0.00  0.00    +0.000 OA
ATOM     17  C   UNL     1      -1.734   8.032 132.513  0.00  0.00    +0.000 C 
ATOM     18  C   UNL     1      -3.195   7.711 132.227  0.00  0.00    +0.000 C 
ATOM     19  C   UNL     1      -3.678   6.408 132.929  0.00  0.00    +0.000 C 
ATOM     20  C   UNL     1      -3.087   5.194 132.177  0.00  0.00    +0.000 C 
ENDROOT
BRANCH   4  21
ATOM     21  O   UNL     1     -10.103   4.334 131.359  0.00  0.00    +0.000 OA
BRANCH  21  22
ATOM     22  C   UNL     1     -10.941   5.196 130.712  0.00  0.00    +0.000 C 
ATOM     23  O   UNL     1     -11.459   4.973 129.622  0.00  0.00    +0.000 OA
BRANCH  22  24
ATOM     24  C   UNL     1     -11.160   6.484 131.472  0.00  0.00    +0.000 C 
BRANCH  24  25
ATOM     25  C   UNL     1     -12.531   7.065 131.097  0.00  0.00    +0.000 C 
BRANCH  25  26
ATOM     26  C   UNL     1     -12.422   8.274 130.180  0.00  0.00    +0.000 C 
BRANCH  26  27
ATOM     27  C   UNL     1     -13.090   7.991 128.835  0.00  0.00    +0.000 C 
BRANCH  27  28
ATOM     28  C   UNL     1     -12.052   7.921 127.720  0.00  0.00    +0.000 C 
ATOM     29  C   UNL     1     -10.711   8.446 128.197  0.00  0.00    +0.000 C 
ENDBRANCH  27  28
ENDBRANCH  26  27
ENDBRANCH  25  26
ENDBRANCH  24  25
ENDBRANCH  22  24
ENDBRANCH  21  22
ENDBRANCH   4  21
TORSDOF 7
ENDMDL
MODEL 4
REMARK VINA RESULT:      -7.6      3.097      5.002
REMARK  Name = Testosterone enanthate
REMARK  10 active torsions:
REMARK  status: ('A' for Active; 'I' for Inactive)
REMARK    1  A    between atoms: C_5  and  O_6
REMARK    2  A    between atoms: O_6  and  C_7
REMARK    3  A    between atoms: C_7  and  C_9
REMARK    4  A    between atoms: C_9  and  C_10
REMARK    5  A    between atoms: C_10  and  C_11
REMARK    6  A    between atoms: C_11  and  C_12
REMARK    7  A    between atoms: C_12  and  C_13
REMARK    8  A    between atoms: C_13  and  C_14
REMARK    9  A    between atoms: C_15  and  C_16
REMARK   10  A    between atoms: C_31  and  C_32
REMARK                            x       y       z     vdW  Elec       q    Type
REMARK                         _______ _______ _______ _____ _____    ______ ____
ROOT
ATOM      1  C   UNL     1      -5.640  -1.454 128.732  0.00  0.00    +0.000 C 
ATOM      2  C   UNL     1      -5.252  -0.112 128.123  0.00  0.00    +0.000 C 
ATOM      3  C   UNL     1      -6.199   0.039 126.914  0.00  0.00    +0.000 C 
ATOM      4  C   UNL     1      -7.253  -1.101 127.010  0.00  0.00    +0.000 C 
ATOM      5  C   UNL     1      -7.160  -1.533 128.498  0.00  0.00    +0.000 C 
ATOM      6  C   UNL     1      -7.991  -0.554 129.362  0.00  0.00    +0.000 C 
ATOM      7  C   UNL     1      -7.571  -2.980 128.793  0.00  0.00    +0.000 C 
ATOM      8  C   UNL     1      -7.206  -3.425 130.207  0.00  0.00    +0.000 C 
ATOM      9  C   UNL     1      -5.738  -3.164 130.596  0.00  0.00    +0.000 C 
ATOM     10  C   UNL     1      -5.258  -1.736 130.191  0.00  0.00    +0.000 C 
ATOM     11  C   UNL     1      -3.745  -1.630 130.402  0.00  0.00    +0.000 C 
ATOM     12  C   UNL     1      -3.323  -1.993 131.822  0.00  0.00    +0.000 C 
ATOM     13  C   UNL     1      -3.921  -3.286 132.320  0.00  0.00    +0.000 C 
ATOM     14  C   UNL     1      -3.134  -4.184 132.939  0.00  0.00    +0.000 C 
ATOM     15  C   UNL     1      -3.706  -5.360 133.633  0.00  0.00    +0.000 C 
ATOM     16  O   UNL     1      -2.958  -6.153 134.198  0.00  0.00    +0.000 OA
ATOM     17  C   UNL     1      -5.206  -5.458 133.722  0.00  0.00    +0.000 C 
ATOM     18  C   UNL     1      -5.831  -4.944 132.431  0.00  0.00    +0.000 C 
ATOM     19  C   UNL     1      -5.426  -3.476 132.106  0.00  0.00    +0.000 C 
ATOM     20  C   UNL     1      -6.196  -2.530 133.056  0.00  0.00    +0.000 C 
ENDROOT
BRANCH   4  21
ATOM     21  O   UNL     1      -8.563  -0.625 126.621  0.00  0.00    +0.000 OA
BRANCH  21  22
ATOM     22  C   UNL     1      -9.039  -1.111 125.437  0.00  0.00    +0.000 C 
ATOM     23  O   UNL     1      -9.482  -0.414 124.529  0.00  0.00    +0.000 OA
BRANCH  22  24
ATOM     24  C   UNL     1      -8.986  -2.619 125.357  0.00  0.00    +0.000 C 
BRANCH  24  25
ATOM     25  C   UNL     1      -8.228  -3.031 124.087  0.00  0.00    +0.000 C 
BRANCH  25  26
ATOM     26  C   UNL     1      -7.000  -3.879 124.389  0.00  0.00    +0.000 C 
BRANCH  26  27
ATOM     27  C   UNL     1      -5.753  -3.001 124.490  0.00  0.00    +0.000 C 
BRANCH  27  28
ATOM     28  C   UNL     1      -4.771  -3.328 123.371  0.00  0.00    +0.000 C 
ATOM     29  C   UNL     1      -4.258  -4.750 123.502  0.00  0.00    +0.000 C 
ENDBRANCH  27  28
ENDBRANCH  26  27
ENDBRANCH  25  26
ENDBRANCH  24  25
ENDBRANCH  22  24
ENDBRANCH  21  22
ENDBRANCH   4  21
TORSDOF 7
ENDMDL
MODEL 5
REMARK VINA RESULT:      -7.4      4.514      8.446
REMARK  Name = Testosterone enanthate
REMARK  10 active torsions:
REMARK  status: ('A' for Active; 'I' for Inactive)
REMARK    1  A    between atoms: C_5  and  O_6
REMARK    2  A    between atoms: O_6  and  C_7
REMARK    3  A    between atoms: C_7  and  C_9
REMARK    4  A    between atoms: C_9  and  C_10
REMARK    5  A    between atoms: C_10  and  C_11
REMARK    6  A    between atoms: C_11  and  C_12
REMARK    7  A    between atoms: C_12  and  C_13
REMARK    8  A    between atoms: C_13  and  C_14
REMARK    9  A    between atoms: C_15  and  C_16
REMARK   10  A    between atoms: C_31  and  C_32
REMARK                            x       y       z     vdW  Elec       q    Type
REMARK                         _______ _______ _______ _____ _____    ______ ____
ROOT
ATOM      1  C   UNL     1      -7.690   1.887 133.185  0.00  0.00    +0.000 C 
ATOM      2  C   UNL     1      -6.438   1.780 134.046  0.00  0.00    +0.000 C 
ATOM      3  C   UNL     1      -6.080   0.279 134.005  0.00  0.00    +0.000 C 
ATOM      4  C   UNL     1      -6.995  -0.381 132.934  0.00  0.00    +0.000 C 
ATOM      5  C   UNL     1      -7.467   0.831 132.087  0.00  0.00    +0.000 C 
ATOM      6  C   UNL     1      -6.363   1.195 131.065  0.00  0.00    +0.000 C 
ATOM      7  C   UNL     1      -8.812   0.655 131.372  0.00  0.00    +0.000 C 
ATOM      8  C   UNL     1      -9.348   1.958 130.785  0.00  0.00    +0.000 C 
ATOM      9  C   UNL     1      -9.386   3.135 131.779  0.00  0.00    +0.000 C 
ATOM     10  C   UNL     1      -8.071   3.257 132.609  0.00  0.00    +0.000 C 
ATOM     11  C   UNL     1      -8.266   4.294 133.718  0.00  0.00    +0.000 C 
ATOM     12  C   UNL     1      -8.732   5.645 133.186  0.00  0.00    +0.000 C 
ATOM     13  C   UNL     1      -9.894   5.550 132.227  0.00  0.00    +0.000 C 
ATOM     14  C   UNL     1     -10.940   6.382 132.369  0.00  0.00    +0.000 C 
ATOM     15  C   UNL     1     -11.996   6.476 131.336  0.00  0.00    +0.000 C 
ATOM     16  O   UNL     1     -12.931   7.257 131.494  0.00  0.00    +0.000 OA
ATOM     17  C   UNL     1     -11.802   5.693 130.065  0.00  0.00    +0.000 C 
ATOM     18  C   UNL     1     -11.150   4.353 130.383  0.00  0.00    +0.000 C 
ATOM     19  C   UNL     1      -9.783   4.504 131.113  0.00  0.00    +0.000 C 
ATOM     20  C   UNL     1      -8.724   4.968 130.086  0.00  0.00    +0.000 C 
ENDROOT
BRANCH   4  21
ATOM     21  O   UNL     1      -6.265  -1.375 132.175  0.00  0.00    +0.000 OA
BRANCH  21  22
ATOM     22  C   UNL     1      -6.931  -2.544 131.943  0.00  0.00    +0.000 C 
ATOM     23  O   UNL     1      -7.603  -3.138 132.780  0.00  0.00    +0.000 OA
BRANCH  22  24
ATOM     24  C   UNL     1      -6.740  -3.059 130.535  0.00  0.00    +0.000 C 
BRANCH  24  25
ATOM     25  C   UNL     1      -7.930  -2.616 129.670  0.00  0.00    +0.000 C 
BRANCH  25  26
ATOM     26  C   UNL     1      -7.588  -1.441 128.765  0.00  0.00    +0.000 C 
BRANCH  26  27
ATOM     27  C   UNL     1      -7.847  -1.796 127.302  0.00  0.00    +0.000 C 
BRANCH  27  28
ATOM     28  C   UNL     1      -8.585  -3.127 127.192  0.00  0.00    +0.000 C 
ATOM     29  C   UNL     1      -8.563  -3.640 125.765  0.00  0.00    +0.000 C 
ENDBRANCH  27  28
ENDBRANCH  26  27
ENDBRANCH  25  26
ENDBRANCH  24  25
ENDBRANCH  22  24
ENDBRANCH  21  22
ENDBRANCH   4  21
TORSDOF 7
ENDMDL
MODEL 6
REMARK VINA RESULT:      -7.4      2.217      8.776
REMARK  Name = Testosterone enanthate
REMARK  10 active torsions:
REMARK  status: ('A' for Active; 'I' for Inactive)
REMARK    1  A    between atoms: C_5  and  O_6
REMARK    2  A    between atoms: O_6  and  C_7
REMARK    3  A    between atoms: C_7  and  C_9
REMARK    4  A    between atoms: C_9  and  C_10
REMARK    5  A    between atoms: C_10  and  C_11
REMARK    6  A    between atoms: C_11  and  C_12
REMARK    7  A    between atoms: C_12  and  C_13
REMARK    8  A    between atoms: C_13  and  C_14
REMARK    9  A    between atoms: C_15  and  C_16
REMARK   10  A    between atoms: C_31  and  C_32
REMARK                            x       y       z     vdW  Elec       q    Type
REMARK                         _______ _______ _______ _____ _____    ______ ____
ROOT
ATOM      1  C   UNL     1      -7.479  -1.229 129.391  0.00  0.00    +0.000 C 
ATOM      2  C   UNL     1      -6.556  -0.435 130.307  0.00  0.00    +0.000 C 
ATOM      3  C   UNL     1      -6.740  -1.095 131.690  0.00  0.00    +0.000 C 
ATOM      4  C   UNL     1      -7.575  -2.390 131.474  0.00  0.00    +0.000 C 
ATOM      5  C   UNL     1      -7.405  -2.660 129.955  0.00  0.00    +0.000 C 
ATOM      6  C   UNL     1      -6.052  -3.373 129.716  0.00  0.00    +0.000 C 
ATOM      7  C   UNL     1      -8.542  -3.448 129.292  0.00  0.00    +0.000 C 
ATOM      8  C   UNL     1      -8.454  -3.449 127.768  0.00  0.00    +0.000 C 
ATOM      9  C   UNL     1      -8.294  -2.052 127.140  0.00  0.00    +0.000 C 
ATOM     10  C   UNL     1      -7.228  -1.184 127.878  0.00  0.00    +0.000 C 
ATOM     11  C   UNL     1      -7.285   0.251 127.346  0.00  0.00    +0.000 C 
ATOM     12  C   UNL     1      -7.129   0.323 125.831  0.00  0.00    +0.000 C 
ATOM     13  C   UNL     1      -8.017  -0.642 125.084  0.00  0.00    +0.000 C 
ATOM     14  C   UNL     1      -8.715  -0.210 124.019  0.00  0.00    +0.000 C 
ATOM     15  C   UNL     1      -9.426  -1.156 123.128  0.00  0.00    +0.000 C 
ATOM     16  O   UNL     1     -10.044  -0.726 122.157  0.00  0.00    +0.000 OA
ATOM     17  C   UNL     1      -9.248  -2.628 123.388  0.00  0.00    +0.000 C 
ATOM     18  C   UNL     1      -9.184  -2.880 124.889  0.00  0.00    +0.000 C 
ATOM     19  C   UNL     1      -8.040  -2.089 125.588  0.00  0.00    +0.000 C 
ATOM     20  C   UNL     1      -6.692  -2.764 125.245  0.00  0.00    +0.000 C 
ENDROOT
BRANCH   4  21
ATOM     21  O   UNL     1      -7.091  -3.462 132.316  0.00  0.00    +0.000 OA
BRANCH  21  22
ATOM     22  C   UNL     1      -7.443  -3.382 133.632  0.00  0.00    +0.000 C 
ATOM     23  O   UNL     1      -8.390  -2.728 134.059  0.00  0.00    +0.000 OA
BRANCH  22  24
ATOM     24  C   UNL     1      -6.527  -4.176 134.535  0.00  0.00    +0.000 C 
BRANCH  24  25
ATOM     25  C   UNL     1      -5.719  -5.170 133.688  0.00  0.00    +0.000 C 
BRANCH  25  26
ATOM     26  C   UNL     1      -4.218  -4.938 133.791  0.00  0.00    +0.000 C 
BRANCH  26  27
ATOM     27  C   UNL     1      -3.710  -4.165 132.575  0.00  0.00    +0.000 C 
BRANCH  27  28
ATOM     28  C   UNL     1      -3.556  -2.683 132.904  0.00  0.00    +0.000 C 
ATOM     29  C   UNL     1      -3.239  -1.884 131.654  0.00  0.00    +0.000 C 
ENDBRANCH  27  28
ENDBRANCH  26  27
ENDBRANCH  25  26
ENDBRANCH  24  25
ENDBRANCH  22  24
ENDBRANCH  21  22
ENDBRANCH   4  21
TORSDOF 7
ENDMDL
MODEL 7
REMARK VINA RESULT:      -7.3      4.238      6.118
REMARK  Name = Testosterone enanthate
REMARK  10 active torsions:
REMARK  status: ('A' for Active; 'I' for Inactive)
REMARK    1  A    between atoms: C_5  and  O_6
REMARK    2  A    between atoms: O_6  and  C_7
REMARK    3  A    between atoms: C_7  and  C_9
REMARK    4  A    between atoms: C_9  and  C_10
REMARK    5  A    between atoms: C_10  and  C_11
REMARK    6  A    between atoms: C_11  and  C_12
REMARK    7  A    between atoms: C_12  and  C_13
REMARK    8  A    between atoms: C_13  and  C_14
REMARK    9  A    between atoms: C_15  and  C_16
REMARK   10  A    between atoms: C_31  and  C_32
REMARK                            x       y       z     vdW  Elec       q    Type
REMARK                         _______ _______ _______ _____ _____    ______ ____
ROOT
ATOM      1  C   UNL     1      -7.542   2.321 126.988  0.00  0.00    +0.000 C 
ATOM      2  C   UNL     1      -8.435   1.162 127.414  0.00  0.00    +0.000 C 
ATOM      3  C   UNL     1      -8.967   0.590 126.083  0.00  0.00    +0.000 C 
ATOM      4  C   UNL     1      -8.176   1.283 124.936  0.00  0.00    +0.000 C 
ATOM      5  C   UNL     1      -6.922   1.833 125.665  0.00  0.00    +0.000 C 
ATOM      6  C   UNL     1      -5.887   0.692 125.825  0.00  0.00    +0.000 C 
ATOM      7  C   UNL     1      -6.264   3.057 125.016  0.00  0.00    +0.000 C 
ATOM      8  C   UNL     1      -5.213   3.711 125.910  0.00  0.00    +0.000 C 
ATOM      9  C   UNL     1      -5.700   4.022 127.338  0.00  0.00    +0.000 C 
ATOM     10  C   UNL     1      -6.483   2.832 127.974  0.00  0.00    +0.000 C 
ATOM     11  C   UNL     1      -7.122   3.290 129.289  0.00  0.00    +0.000 C 
ATOM     12  C   UNL     1      -6.108   3.888 130.258  0.00  0.00    +0.000 C 
ATOM     13  C   UNL     1      -5.201   4.917 129.628  0.00  0.00    +0.000 C 
ATOM     14  C   UNL     1      -4.980   6.082 130.262  0.00  0.00    +0.000 C 
ATOM     15  C   UNL     1      -3.939   7.027 129.797  0.00  0.00    +0.000 C 
ATOM     16  O   UNL     1      -3.756   8.076 130.409  0.00  0.00    +0.000 OA
ATOM     17  C   UNL     1      -3.057   6.590 128.658  0.00  0.00    +0.000 C 
ATOM     18  C   UNL     1      -3.876   5.788 127.654  0.00  0.00    +0.000 C 
ATOM     19  C   UNL     1      -4.558   4.541 128.289  0.00  0.00    +0.000 C 
ATOM     20  C   UNL     1      -3.481   3.458 128.532  0.00  0.00    +0.000 C 
ENDROOT
BRANCH   4  21
ATOM     21  O   UNL     1      -7.872   0.342 123.879  0.00  0.00    +0.000 OA
BRANCH  21  22
ATOM     22  C   UNL     1      -8.951  -0.238 123.277  0.00  0.00    +0.000 C 
ATOM     23  O   UNL     1      -9.923   0.380 122.850  0.00  0.00    +0.000 OA
BRANCH  22  24
ATOM     24  C   UNL     1      -8.845  -1.743 123.202  0.00  0.00    +0.000 C 
BRANCH  24  25
ATOM     25  C   UNL     1      -7.365  -2.149 123.259  0.00  0.00    +0.000 C 
BRANCH  25  26
ATOM     26  C   UNL     1      -7.004  -2.854 124.559  0.00  0.00    +0.000 C 
BRANCH  26  27
ATOM     27  C   UNL     1      -5.486  -2.936 124.721  0.00  0.00    +0.000 C 
BRANCH  27  28
ATOM     28  C   UNL     1      -4.822  -3.314 123.402  0.00  0.00    +0.000 C 
ATOM     29  C   UNL     1      -4.168  -4.680 123.499  0.00  0.00    +0.000 C 
ENDBRANCH  27  28
ENDBRANCH  26  27
ENDBRANCH  25  26
ENDBRANCH  24  25
ENDBRANCH  22  24
ENDBRANCH  21  22
ENDBRANCH   4  21
TORSDOF 7
ENDMDL
MODEL 8
REMARK VINA RESULT:      -7.3      5.491      8.908
REMARK  Name = Testosterone enanthate
REMARK  10 active torsions:
REMARK  status: ('A' for Active; 'I' for Inactive)
REMARK    1  A    between atoms: C_5  and  O_6
REMARK    2  A    between atoms: O_6  and  C_7
REMARK    3  A    between atoms: C_7  and  C_9
REMARK    4  A    between atoms: C_9  and  C_10
REMARK    5  A    between atoms: C_10  and  C_11
REMARK    6  A    between atoms: C_11  and  C_12
REMARK    7  A    between atoms: C_12  and  C_13
REMARK    8  A    between atoms: C_13  and  C_14
REMARK    9  A    between atoms: C_15  and  C_16
REMARK   10  A    between atoms: C_31  and  C_32
REMARK                            x       y       z     vdW  Elec       q    Type
REMARK                         _______ _______ _______ _____ _____    ______ ____
ROOT
ATOM      1  C   UNL     1      -9.254   3.234 131.455  0.00  0.00    +0.000 C 
ATOM      2  C   UNL     1      -9.070   2.615 132.835  0.00  0.00    +0.000 C 
ATOM      3  C   UNL     1      -8.299   1.306 132.560  0.00  0.00    +0.000 C 
ATOM      4  C   UNL     1      -7.860   1.337 131.067  0.00  0.00    +0.000 C 
ATOM      5  C   UNL     1      -7.966   2.843 130.707  0.00  0.00    +0.000 C 
ATOM      6  C   UNL     1      -6.693   3.573 131.201  0.00  0.00    +0.000 C 
ATOM      7  C   UNL     1      -8.212   3.153 129.226  0.00  0.00    +0.000 C 
ATOM      8  C   UNL     1      -8.574   4.615 128.976  0.00  0.00    +0.000 C 
ATOM      9  C   UNL     1      -9.717   5.146 129.862  0.00  0.00    +0.000 C 
ATOM     10  C   UNL     1      -9.552   4.736 131.358  0.00  0.00    +0.000 C 
ATOM     11  C   UNL     1     -10.825   5.102 132.128  0.00  0.00    +0.000 C 
ATOM     12  C   UNL     1     -11.200   6.572 131.978  0.00  0.00    +0.000 C 
ATOM     13  C   UNL     1     -11.188   7.058 130.549  0.00  0.00    +0.000 C 
ATOM     14  C   UNL     1     -12.217   7.794 130.091  0.00  0.00    +0.000 C 
ATOM     15  C   UNL     1     -12.154   8.471 128.775  0.00  0.00    +0.000 C 
ATOM     16  O   UNL     1     -13.108   9.145 128.395  0.00  0.00    +0.000 OA
ATOM     17  C   UNL     1     -10.856   8.404 128.016  0.00  0.00    +0.000 C 
ATOM     18  C   UNL     1     -10.219   7.034 128.210  0.00  0.00    +0.000 C 
ATOM     19  C   UNL     1      -9.961   6.693 129.707  0.00  0.00    +0.000 C 
ATOM     20  C   UNL     1      -8.748   7.515 130.199  0.00  0.00    +0.000 C 
ENDROOT
BRANCH   4  21
ATOM     21  O   UNL     1      -6.529   0.791 130.911  0.00  0.00    +0.000 OA
BRANCH  21  22
ATOM     22  C   UNL     1      -6.461  -0.433 130.311  0.00  0.00    +0.000 C 
ATOM     23  O   UNL     1      -5.418  -0.975 129.956  0.00  0.00    +0.000 OA
BRANCH  22  24
ATOM     24  C   UNL     1      -7.819  -1.061 130.101  0.00  0.00    +0.000 C 
BRANCH  24  25
ATOM     25  C   UNL     1      -7.807  -1.865 128.793  0.00  0.00    +0.000 C 
BRANCH  25  26
ATOM     26  C   UNL     1      -8.151  -3.332 129.007  0.00  0.00    +0.000 C 
BRANCH  26  27
ATOM     27  C   UNL     1      -8.877  -3.897 127.787  0.00  0.00    +0.000 C 
BRANCH  27  28
ATOM     28  C   UNL     1      -8.812  -2.919 126.619  0.00  0.00    +0.000 C 
ATOM     29  C   UNL     1      -8.506  -3.645 125.323  0.00  0.00    +0.000 C 
ENDBRANCH  27  28
ENDBRANCH  26  27
ENDBRANCH  25  26
ENDBRANCH  24  25
ENDBRANCH  22  24
ENDBRANCH  21  22
ENDBRANCH   4  21
TORSDOF 7
ENDMDL
MODEL 9
REMARK VINA RESULT:      -7.3      5.596      7.515
REMARK  Name = Testosterone enanthate
REMARK  10 active torsions:
REMARK  status: ('A' for Active; 'I' for Inactive)
REMARK    1  A    between atoms: C_5  and  O_6
REMARK    2  A    between atoms: O_6  and  C_7
REMARK    3  A    between atoms: C_7  and  C_9
REMARK    4  A    between atoms: C_9  and  C_10
REMARK    5  A    between atoms: C_10  and  C_11
REMARK    6  A    between atoms: C_11  and  C_12
REMARK    7  A    between atoms: C_12  and  C_13
REMARK    8  A    between atoms: C_13  and  C_14
REMARK    9  A    between atoms: C_15  and  C_16
REMARK   10  A    between atoms: C_31  and  C_32
REMARK                            x       y       z     vdW  Elec       q    Type
REMARK                         _______ _______ _______ _____ _____    ______ ____
ROOT
ATOM      1  C   UNL     1      -8.080   4.174 131.092  0.00  0.00    +0.000 C 
ATOM      2  C   UNL     1      -8.432   5.409 131.912  0.00  0.00    +0.000 C 
ATOM      3  C   UNL     1      -8.986   6.406 130.871  0.00  0.00    +0.000 C 
ATOM      4  C   UNL     1      -9.155   5.627 129.534  0.00  0.00    +0.000 C 
ATOM      5  C   UNL     1      -9.162   4.145 129.997  0.00  0.00    +0.000 C 
ATOM      6  C   UNL     1     -10.578   3.780 130.505  0.00  0.00    +0.000 C 
ATOM      7  C   UNL     1      -8.696   3.125 128.951  0.00  0.00    +0.000 C 
ATOM      8  C   UNL     1      -8.467   1.734 129.539  0.00  0.00    +0.000 C 
ATOM      9  C   UNL     1      -7.568   1.714 130.789  0.00  0.00    +0.000 C 
ATOM     10  C   UNL     1      -7.945   2.828 131.814  0.00  0.00    +0.000 C 
ATOM     11  C   UNL     1      -6.879   2.888 132.912  0.00  0.00    +0.000 C 
ATOM     12  C   UNL     1      -6.655   1.541 133.591  0.00  0.00    +0.000 C 
ATOM     13  C   UNL     1      -6.471   0.399 132.622  0.00  0.00    +0.000 C 
ATOM     14  C   UNL     1      -5.470  -0.478 132.815  0.00  0.00    +0.000 C 
ATOM     15  C   UNL     1      -5.377  -1.729 132.027  0.00  0.00    +0.000 C 
ATOM     16  O   UNL     1      -4.456  -2.512 132.240  0.00  0.00    +0.000 OA
ATOM     17  C   UNL     1      -6.504  -2.042 131.080  0.00  0.00    +0.000 C 
ATOM     18  C   UNL     1      -7.003  -0.756 130.433  0.00  0.00    +0.000 C 
ATOM     19  C   UNL     1      -7.480   0.299 131.473  0.00  0.00    +0.000 C 
ATOM     20  C   UNL     1      -8.848  -0.147 132.039  0.00  0.00    +0.000 C 
ENDROOT
BRANCH   4  21
ATOM     21  O   UNL     1     -10.366   6.032 128.853  0.00  0.00    +0.000 OA
BRANCH  21  22
ATOM     22  C   UNL     1     -10.185   6.678 127.664  0.00  0.00    +0.000 C 
ATOM     23  O   UNL     1      -9.490   6.257 126.744  0.00  0.00    +0.000 OA
BRANCH  22  24
ATOM     24  C   UNL     1     -10.919   7.997 127.593  0.00  0.00    +0.000 C 
BRANCH  24  25
ATOM     25  C   UNL     1     -12.417   7.731 127.385  0.00  0.00    +0.000 C 
BRANCH  25  26
ATOM     26  C   UNL     1     -13.281   8.407 128.440  0.00  0.00    +0.000 C 
BRANCH  26  27
ATOM     27  C   UNL     1     -12.441   8.790 129.658  0.00  0.00    +0.000 C 
BRANCH  27  28
ATOM     28  C   UNL     1     -13.087   8.280 130.942  0.00  0.00    +0.000 C 
ATOM     29  C   UNL     1     -12.430   6.993 131.403  0.00  0.00    +0.000 C 
ENDBRANCH  27  28
ENDBRANCH  26  27
ENDBRANCH  25  26
ENDBRANCH  24  25
ENDBRANCH  22  24
ENDBRANCH  21  22
ENDBRANCH   4  21
TORSDOF 7
ENDMDL
