MODEL 1
REMARK VINA RESULT:      -7.9      0.000      0.000
REMARK  Name = Testosterone propionate
REMARK  6 active torsions:
REMARK  status: ('A' for Active; 'I' for Inactive)
REMARK    1  A    between atoms: C_5  and  O_6
REMARK    2  A    between atoms: O_6  and  C_7
REMARK    3  A    between atoms: C_7  and  C_9
REMARK    4  A    between atoms: C_9  and  C_10
REMARK    5  A    between atoms: C_11  and  C_12
REMARK    6  A    between atoms: C_27  and  C_28
REMARK                            x       y       z     vdW  Elec       q    Type
REMARK                         _______ _______ _______ _____ _____    ______ ____
ROOT
ATOM      1  C   UNL     1      -8.512  -2.217 126.517  0.00  0.00    +0.000 C 
ATOM      2  C   UNL     1      -8.492  -3.335 125.482  0.00  0.00    +0.000 C 
ATOM      3  C   UNL     1      -9.050  -2.674 124.204  0.00  0.00    +0.000 C 
ATOM      4  C   UNL     1      -9.145  -1.146 124.480  0.00  0.00    +0.000 C 
ATOM      5  C   UNL     1      -8.195  -0.956 125.693  0.00  0.00    +0.000 C 
ATOM      6  C   UNL     1      -6.736  -0.874 125.184  0.00  0.00    +0.000 C 
ATOM      7  C   UNL     1      -8.509   0.244 126.596  0.00  0.00    +0.000 C 
ATOM      8  C   UNL     1      -7.719   0.225 127.904  0.00  0.00    +0.000 C 
ATOM      9  C   UNL     1      -7.806  -1.104 128.677  0.00  0.00    +0.000 C 
ATOM     10  C   UNL     1      -7.614  -2.347 127.754  0.00  0.00    +0.000 C 
ATOM     11  C   UNL     1      -7.933  -3.619 128.545  0.00  0.00    +0.000 C 
ATOM     12  C   UNL     1      -7.122  -3.733 129.830  0.00  0.00    +0.000 C 
ATOM     13  C   UNL     1      -7.130  -2.476 130.666  0.00  0.00    +0.000 C 
ATOM     14  C   UNL     1      -7.348  -2.562 131.990  0.00  0.00    +0.000 C 
ATOM     15  C   UNL     1      -7.153  -1.395 132.882  0.00  0.00    +0.000 C 
ATOM     16  O   UNL     1      -7.349  -1.515 134.088  0.00  0.00    +0.000 OA
ATOM     17  C   UNL     1      -6.595  -0.136 132.272  0.00  0.00    +0.000 C 
ATOM     18  C   UNL     1      -7.158   0.048 130.868  0.00  0.00    +0.000 C 
ATOM     19  C   UNL     1      -6.857  -1.159 129.932  0.00  0.00    +0.000 C 
ATOM     20  C   UNL     1      -5.366  -1.108 129.524  0.00  0.00    +0.000 C 
ENDROOT
BRANCH   4  21
ATOM     21  O   UNL     1      -8.761  -0.382 123.309  0.00  0.00    +0.000 OA
BRANCH  21  22
ATOM     22  C   UNL     1      -9.656   0.566 122.902  0.00  0.00    +0.000 C 
ATOM     23  O   UNL     1     -10.742   0.319 122.386  0.00  0.00    +0.000 OA
BRANCH  22  24
ATOM     24  C   UNL     1      -9.165   1.977 123.128  0.00  0.00    +0.000 C 
ATOM     25  C   UNL     1      -7.637   2.001 123.115  0.00  0.00    +0.000 C 
ENDBRANCH  22  24
ENDBRANCH  21  22
ENDBRANCH   4  21
TORSDOF 3
ENDMDL
MODEL 2
REMARK VINA RESULT:      -7.4      1.598      1.869
REMARK  Name = Testosterone propionate
REMARK  6 active torsions:
REMARK  status: ('A' for Active; 'I' for Inactive)
REMARK    1  A    between atoms: C_5  and  O_6
REMARK    2  A    between atoms: O_6  and  C_7
REMARK    3  A    between atoms: C_7  and  C_9
REMARK    4  A    between atoms: C_9  and  C_10
REMARK    5  A    between atoms: C_11  and  C_12
REMARK    6  A    between atoms: C_27  and  C_28
REMARK                            x       y       z     vdW  Elec       q    Type
REMARK                         _______ _______ _______ _____ _____    ______ ____
ROOT
ATOM      1  C   UNL     1      -8.062  -2.396 127.335  0.00  0.00    +0.000 C 
ATOM      2  C   UNL     1      -8.984  -3.464 126.758  0.00  0.00    +0.000 C 
ATOM      3  C   UNL     1      -9.522  -2.833 125.457  0.00  0.00    +0.000 C 
ATOM      4  C   UNL     1      -8.712  -1.528 125.209  0.00  0.00    +0.000 C 
ATOM      5  C   UNL     1      -7.449  -1.735 126.087  0.00  0.00    +0.000 C 
ATOM      6  C   UNL     1      -6.441  -2.625 125.321  0.00  0.00    +0.000 C 
ATOM      7  C   UNL     1      -6.762  -0.450 126.568  0.00  0.00    +0.000 C 
ATOM      8  C   UNL     1      -5.700  -0.710 127.636  0.00  0.00    +0.000 C 
ATOM      9  C   UNL     1      -6.185  -1.570 128.817  0.00  0.00    +0.000 C 
ATOM     10  C   UNL     1      -6.997  -2.819 128.355  0.00  0.00    +0.000 C 
ATOM     11  C   UNL     1      -7.630  -3.494 129.576  0.00  0.00    +0.000 C 
ATOM     12  C   UNL     1      -6.607  -3.844 130.650  0.00  0.00    +0.000 C 
ATOM     13  C   UNL     1      -5.674  -2.708 130.995  0.00  0.00    +0.000 C 
ATOM     14  C   UNL     1      -5.430  -2.419 132.285  0.00  0.00    +0.000 C 
ATOM     15  C   UNL     1      -4.366  -1.465 132.673  0.00  0.00    +0.000 C 
ATOM     16  O   UNL     1      -4.162  -1.236 133.862  0.00  0.00    +0.000 OA
ATOM     17  C   UNL     1      -3.490  -0.912 131.580  0.00  0.00    +0.000 C 
ATOM     18  C   UNL     1      -4.323  -0.674 130.326  0.00  0.00    +0.000 C 
ATOM     19  C   UNL     1      -5.035  -1.962 129.819  0.00  0.00    +0.000 C 
ATOM     20  C   UNL     1      -3.983  -2.877 129.150  0.00  0.00    +0.000 C 
ENDROOT
BRANCH   4  21
ATOM     21  O   UNL     1      -8.423  -1.357 123.798  0.00  0.00    +0.000 OA
BRANCH  21  22
ATOM     22  C   UNL     1      -9.161  -0.405 123.155  0.00  0.00    +0.000 C 
ATOM     23  O   UNL     1     -10.163  -0.637 122.485  0.00  0.00    +0.000 OA
BRANCH  22  24
ATOM     24  C   UNL     1      -8.604   0.990 123.327  0.00  0.00    +0.000 C 
ATOM     25  C   UNL     1      -9.640   1.878 124.017  0.00  0.00    +0.000 C 
ENDBRANCH  22  24
ENDBRANCH  21  22
ENDBRANCH   4  21
TORSDOF 3
ENDMDL
MODEL 3
REMARK VINA RESULT:      -7.4      1.454      7.861
REMARK  Name = Testosterone propionate
REMARK  6 active torsions:
REMARK  status: ('A' for Active; 'I' for Inactive)
REMARK    1  A    between atoms: C_5  and  O_6
REMARK    2  A    between atoms: O_6  and  C_7
REMARK    3  A    between atoms: C_7  and  C_9
REMARK    4  A    between atoms: C_9  and  C_10
REMARK    5  A    between atoms: C_11  and  C_12
REMARK    6  A    between atoms: C_27  and  C_28
REMARK                            x       y       z     vdW  Elec       q    Type
REMARK                         _______ _______ _______ _____ _____    ______ ____
ROOT
ATOM      1  C   UNL     1      -7.737  -0.767 130.277  0.00  0.00    +0.000 C 
ATOM      2  C   UNL     1      -7.284   0.398 131.148  0.00  0.00    +0.000 C 
ATOM      3  C   UNL     1      -7.296  -0.176 132.581  0.00  0.00    +0.000 C 
ATOM      4  C   UNL     1      -7.521  -1.711 132.459  0.00  0.00    +0.000 C 
ATOM      5  C   UNL     1      -7.139  -1.999 130.983  0.00  0.00    +0.000 C 
ATOM      6  C   UNL     1      -5.600  -2.115 130.872  0.00  0.00    +0.000 C 
ATOM      7  C   UNL     1      -7.810  -3.228 130.355  0.00  0.00    +0.000 C 
ATOM      8  C   UNL     1      -7.610  -3.305 128.842  0.00  0.00    +0.000 C 
ATOM      9  C   UNL     1      -7.974  -2.014 128.087  0.00  0.00    +0.000 C 
ATOM     10  C   UNL     1      -7.407  -0.736 128.779  0.00  0.00    +0.000 C 
ATOM     11  C   UNL     1      -7.993   0.509 128.104  0.00  0.00    +0.000 C 
ATOM     12  C   UNL     1      -7.761   0.526 126.598  0.00  0.00    +0.000 C 
ATOM     13  C   UNL     1      -8.126  -0.769 125.914  0.00  0.00    +0.000 C 
ATOM     14  C   UNL     1      -8.854  -0.739 124.783  0.00  0.00    +0.000 C 
ATOM     15  C   UNL     1      -9.053  -1.955 123.962  0.00  0.00    +0.000 C 
ATOM     16  O   UNL     1      -9.713  -1.887 122.928  0.00  0.00    +0.000 OA
ATOM     17  C   UNL     1      -8.321  -3.205 124.374  0.00  0.00    +0.000 C 
ATOM     18  C   UNL     1      -8.278  -3.297 125.895  0.00  0.00    +0.000 C 
ATOM     19  C   UNL     1      -7.606  -2.059 126.557  0.00  0.00    +0.000 C 
ATOM     20  C   UNL     1      -6.078  -2.152 126.340  0.00  0.00    +0.000 C 
ENDROOT
BRANCH   4  21
ATOM     21  O   UNL     1      -6.715  -2.431 133.425  0.00  0.00    +0.000 OA
BRANCH  21  22
ATOM     22  C   UNL     1      -7.284  -3.557 133.948  0.00  0.00    +0.000 C 
ATOM     23  O   UNL     1      -8.485  -3.696 134.156  0.00  0.00    +0.000 OA
BRANCH  22  24
ATOM     24  C   UNL     1      -6.273  -4.632 134.276  0.00  0.00    +0.000 C 
ATOM     25  C   UNL     1      -5.568  -5.085 132.998  0.00  0.00    +0.000 C 
ENDBRANCH  22  24
ENDBRANCH  21  22
ENDBRANCH   4  21
TORSDOF 3
ENDMDL
MODEL 4
REMARK VINA RESULT:      -7.4      6.830      8.429
REMARK  Name = Testosterone propionate
REMARK  6 active torsions:
REMARK  status: ('A' for Active; 'I' for Inactive)
REMARK    1  A    between atoms: C_5  and  O_6
REMARK    2  A    between atoms: O_6  and  C_7
REMARK    3  A    between atoms: C_7  and  C_9
REMARK    4  A    between atoms: C_9  and  C_10
REMARK    5  A    between atoms: C_11  and  C_12
REMARK    6  A    between atoms: C_27  and  C_28
REMARK                            x       y       z     vdW  Elec       q    Type
REMARK                         _______ _______ _______ _____ _____    ______ ____
ROOT
ATOM      1  C   UNL     1      -8.562   4.277 131.068  0.00  0.00    +0.000 C 
ATOM      2  C   UNL     1      -9.370   3.086 130.567  0.00  0.00    +0.000 C 
ATOM      3  C   UNL     1     -10.823   3.606 130.531  0.00  0.00    +0.000 C 
ATOM      4  C   UNL     1     -10.769   5.141 130.781  0.00  0.00    +0.000 C 
ATOM      5  C   UNL     1      -9.291   5.490 130.460  0.00  0.00    +0.000 C 
ATOM      6  C   UNL     1      -9.127   5.633 128.928  0.00  0.00    +0.000 C 
ATOM      7  C   UNL     1      -8.736   6.731 131.170  0.00  0.00    +0.000 C 
ATOM      8  C   UNL     1      -7.221   6.868 131.029  0.00  0.00    +0.000 C 
ATOM      9  C   UNL     1      -6.431   5.600 131.405  0.00  0.00    +0.000 C 
ATOM     10  C   UNL     1      -7.053   4.306 130.795  0.00  0.00    +0.000 C 
ATOM     11  C   UNL     1      -6.354   3.079 131.390  0.00  0.00    +0.000 C 
ATOM     12  C   UNL     1      -4.840   3.122 131.216  0.00  0.00    +0.000 C 
ATOM     13  C   UNL     1      -4.220   4.436 131.624  0.00  0.00    +0.000 C 
ATOM     14  C   UNL     1      -3.117   4.438 132.394  0.00  0.00    +0.000 C 
ATOM     15  C   UNL     1      -2.350   5.681 132.641  0.00  0.00    +0.000 C 
ATOM     16  O   UNL     1      -1.341   5.641 133.339  0.00  0.00    +0.000 OA
ATOM     17  C   UNL     1      -2.782   6.925 131.909  0.00  0.00    +0.000 C 
ATOM     18  C   UNL     1      -4.302   6.960 131.810  0.00  0.00    +0.000 C 
ATOM     19  C   UNL     1      -4.892   5.708 131.097  0.00  0.00    +0.000 C 
ATOM     20  C   UNL     1      -4.621   5.831 129.579  0.00  0.00    +0.000 C 
ENDROOT
BRANCH   4  21
ATOM     21  O   UNL     1     -11.729   5.836 129.948  0.00  0.00    +0.000 OA
BRANCH  21  22
ATOM     22  C   UNL     1     -12.406   6.858 130.552  0.00  0.00    +0.000 C 
ATOM     23  O   UNL     1     -12.755   6.860 131.728  0.00  0.00    +0.000 OA
BRANCH  22  24
ATOM     24  C   UNL     1     -12.713   8.000 129.611  0.00  0.00    +0.000 C 
ATOM     25  C   UNL     1     -11.447   8.400 128.853  0.00  0.00    +0.000 C 
ENDBRANCH  22  24
ENDBRANCH  21  22
ENDBRANCH   4  21
TORSDOF 3
ENDMDL
MODEL 5
REMARK VINA RESULT:      -7.4      7.817      9.818
REMARK  Name = Testosterone propionate
REMARK  6 active torsions:
REMARK  status: ('A' for Active; 'I' for Inactive)
REMARK    1  A    between atoms: C_5  and  O_6
REMARK    2  A    between atoms: O_6  and  C_7
REMARK    3  A    between atoms: C_7  and  C_9
REMARK    4  A    between atoms: C_9  and  C_10
REMARK    5  A    between atoms: C_11  and  C_12
REMARK    6  A    between atoms: C_27  and  C_28
REMARK                            x       y       z     vdW  Elec       q    Type
REMARK                         _______ _______ _______ _____ _____    ______ ____
ROOT
ATOM      1  C   UNL     1      -7.055   6.041 132.918  0.00  0.00    +0.000 C 
ATOM      2  C   UNL     1      -8.165   5.287 133.640  0.00  0.00    +0.000 C 
ATOM      3  C   UNL     1      -9.451   5.708 132.898  0.00  0.00    +0.000 C 
ATOM      4  C   UNL     1      -9.013   6.497 131.631  0.00  0.00    +0.000 C 
ATOM      5  C   UNL     1      -7.531   6.070 131.454  0.00  0.00    +0.000 C 
ATOM      6  C   UNL     1      -7.482   4.699 130.739  0.00  0.00    +0.000 C 
ATOM      7  C   UNL     1      -6.635   7.080 130.725  0.00  0.00    +0.000 C 
ATOM      8  C   UNL     1      -5.150   6.731 130.818  0.00  0.00    +0.000 C 
ATOM      9  C   UNL     1      -4.651   6.460 132.249  0.00  0.00    +0.000 C 
ATOM     10  C   UNL     1      -5.614   5.534 133.054  0.00  0.00    +0.000 C 
ATOM     11  C   UNL     1      -5.171   5.494 134.520  0.00  0.00    +0.000 C 
ATOM     12  C   UNL     1      -3.714   5.080 134.684  0.00  0.00    +0.000 C 
ATOM     13  C   UNL     1      -2.765   5.830 133.780  0.00  0.00    +0.000 C 
ATOM     14  C   UNL     1      -1.626   6.335 134.286  0.00  0.00    +0.000 C 
ATOM     15  C   UNL     1      -0.568   6.885 133.408  0.00  0.00    +0.000 C 
ATOM     16  O   UNL     1       0.465   7.325 133.905  0.00  0.00    +0.000 OA
ATOM     17  C   UNL     1      -0.761   6.759 131.919  0.00  0.00    +0.000 C 
ATOM     18  C   UNL     1      -2.233   6.954 131.574  0.00  0.00    +0.000 C 
ATOM     19  C   UNL     1      -3.165   5.944 132.305  0.00  0.00    +0.000 C 
ATOM     20  C   UNL     1      -3.016   4.559 131.633  0.00  0.00    +0.000 C 
ENDROOT
BRANCH   4  21
ATOM     21  O   UNL     1      -9.856   6.169 130.498  0.00  0.00    +0.000 OA
BRANCH  21  22
ATOM     22  C   UNL     1     -10.295   7.231 129.760  0.00  0.00    +0.000 C 
ATOM     23  O   UNL     1      -9.562   8.071 129.247  0.00  0.00    +0.000 OA
BRANCH  22  24
ATOM     24  C   UNL     1     -11.801   7.293 129.651  0.00  0.00    +0.000 C 
ATOM     25  C   UNL     1     -12.426   7.146 131.039  0.00  0.00    +0.000 C 
ENDBRANCH  22  24
ENDBRANCH  21  22
ENDBRANCH   4  21
TORSDOF 3
ENDMDL
MODEL 6
REMARK VINA RESULT:      -7.3      2.141      3.159
REMARK  Name = Testosterone propionate
REMARK  6 active torsions:
REMARK  status: ('A' for Active; 'I' for Inactive)
REMARK    1  A    between atoms: C_5  and  O_6
REMARK    2  A    between atoms: O_6  and  C_7
REMARK    3  A    between atoms: C_7  and  C_9
REMARK    4  A    between atoms: C_9  and  C_10
REMARK    5  A    between atoms: C_11  and  C_12
REMARK    6  A    between atoms: C_27  and  C_28
REMARK                            x       y       z     vdW  Elec       q    Type
REMARK                         _______ _______ _______ _____ _____    ______ ____
ROOT
ATOM      1  C   UNL     1      -6.273  -2.793 127.173  0.00  0.00    +0.000 C 
ATOM      2  C   UNL     1      -5.611  -2.164 125.953  0.00  0.00    +0.000 C 
ATOM      3  C   UNL     1      -6.695  -2.236 124.857  0.00  0.00    +0.000 C 
ATOM      4  C   UNL     1      -8.016  -2.684 125.547  0.00  0.00    +0.000 C 
ATOM      5  C   UNL     1      -7.748  -2.370 127.043  0.00  0.00    +0.000 C 
ATOM      6  C   UNL     1      -8.006  -0.866 127.298  0.00  0.00    +0.000 C 
ATOM      7  C   UNL     1      -8.534  -3.222 128.048  0.00  0.00    +0.000 C 
ATOM      8  C   UNL     1      -8.036  -3.058 129.483  0.00  0.00    +0.000 C 
ATOM      9  C   UNL     1      -6.517  -3.243 129.652  0.00  0.00    +0.000 C 
ATOM     10  C   UNL     1      -5.697  -2.486 128.561  0.00  0.00    +0.000 C 
ATOM     11  C   UNL     1      -4.224  -2.895 128.659  0.00  0.00    +0.000 C 
ATOM     12  C   UNL     1      -3.646  -2.687 130.053  0.00  0.00    +0.000 C 
ATOM     13  C   UNL     1      -4.510  -3.246 131.158  0.00  0.00    +0.000 C 
ATOM     14  C   UNL     1      -3.946  -3.979 132.134  0.00  0.00    +0.000 C 
ATOM     15  C   UNL     1      -4.705  -4.365 133.346  0.00  0.00    +0.000 C 
ATOM     16  O   UNL     1      -4.153  -5.024 134.223  0.00  0.00    +0.000 OA
ATOM     17  C   UNL     1      -6.099  -3.815 133.502  0.00  0.00    +0.000 C 
ATOM     18  C   UNL     1      -6.785  -3.763 132.142  0.00  0.00    +0.000 C 
ATOM     19  C   UNL     1      -6.004  -2.908 131.102  0.00  0.00    +0.000 C 
ATOM     20  C   UNL     1      -6.197  -1.413 131.446  0.00  0.00    +0.000 C 
ENDROOT
BRANCH   4  21
ATOM     21  O   UNL     1      -9.155  -1.976 124.995  0.00  0.00    +0.000 OA
BRANCH  21  22
ATOM     22  C   UNL     1      -9.487  -2.300 123.710  0.00  0.00    +0.000 C 
ATOM     23  O   UNL     1      -9.901  -3.400 123.357  0.00  0.00    +0.000 OA
BRANCH  22  24
ATOM     24  C   UNL     1      -9.272  -1.162 122.740  0.00  0.00    +0.000 C 
ATOM     25  C   UNL     1      -9.281   0.169 123.492  0.00  0.00    +0.000 C 
ENDBRANCH  22  24
ENDBRANCH  21  22
ENDBRANCH   4  21
TORSDOF 3
ENDMDL
MODEL 7
REMARK VINA RESULT:      -7.2      4.816      8.482
REMARK  Name = Testosterone propionate
REMARK  6 active torsions:
REMARK  status: ('A' for Active; 'I' for Inactive)
REMARK    1  A    between atoms: C_5  and  O_6
REMARK    2  A    between atoms: O_6  and  C_7
REMARK    3  A    between atoms: C_7  and  C_9
REMARK    4  A    between atoms: C_9  and  C_10
REMARK    5  A    between atoms: C_11  and  C_12
REMARK    6  A    between atoms: C_27  and  C_28
REMARK                            x       y       z     vdW  Elec       q    Type
REMARK                         _______ _______ _______ _____ _____    ______ ____
ROOT
ATOM      1  C   UNL     1      -7.705   1.865 133.205  0.00  0.00    +0.000 C 
ATOM      2  C   UNL     1      -6.440   1.754 134.047  0.00  0.00    +0.000 C 
ATOM      3  C   UNL     1      -6.098   0.249 134.016  0.00  0.00    +0.000 C 
ATOM      4  C   UNL     1      -7.035  -0.414 132.966  0.00  0.00    +0.000 C 
ATOM      5  C   UNL     1      -7.508   0.795 132.115  0.00  0.00    +0.000 C 
ATOM      6  C   UNL     1      -6.417   1.136 131.073  0.00  0.00    +0.000 C 
ATOM      7  C   UNL     1      -8.867   0.624 131.423  0.00  0.00    +0.000 C 
ATOM      8  C   UNL     1      -9.399   1.927 130.829  0.00  0.00    +0.000 C 
ATOM      9  C   UNL     1      -9.408   3.114 131.811  0.00  0.00    +0.000 C 
ATOM     10  C   UNL     1      -8.079   3.232 132.620  0.00  0.00    +0.000 C 
ATOM     11  C   UNL     1      -8.248   4.284 133.721  0.00  0.00    +0.000 C 
ATOM     12  C   UNL     1      -8.709   5.632 133.181  0.00  0.00    +0.000 C 
ATOM     13  C   UNL     1      -9.885   5.539 132.240  0.00  0.00    +0.000 C 
ATOM     14  C   UNL     1     -10.922   6.383 132.390  0.00  0.00    +0.000 C 
ATOM     15  C   UNL     1     -11.993   6.477 131.371  0.00  0.00    +0.000 C 
ATOM     16  O   UNL     1     -12.918   7.269 131.535  0.00  0.00    +0.000 OA
ATOM     17  C   UNL     1     -11.826   5.677 130.106  0.00  0.00    +0.000 C 
ATOM     18  C   UNL     1     -11.181   4.335 130.429  0.00  0.00    +0.000 C 
ATOM     19  C   UNL     1      -9.802   4.480 131.136  0.00  0.00    +0.000 C 
ATOM     20  C   UNL     1      -8.754   4.923 130.089  0.00  0.00    +0.000 C 
ENDROOT
BRANCH   4  21
ATOM     21  O   UNL     1      -6.328  -1.425 132.206  0.00  0.00    +0.000 OA
BRANCH  21  22
ATOM     22  C   UNL     1      -6.918  -2.657 132.166  0.00  0.00    +0.000 C 
ATOM     23  O   UNL     1      -7.398  -3.228 133.141  0.00  0.00    +0.000 OA
BRANCH  22  24
ATOM     24  C   UNL     1      -6.905  -3.275 130.787  0.00  0.00    +0.000 C 
ATOM     25  C   UNL     1      -7.664  -2.376 129.811  0.00  0.00    +0.000 C 
ENDBRANCH  22  24
ENDBRANCH  21  22
ENDBRANCH   4  21
TORSDOF 3
ENDMDL
MODEL 8
REMARK VINA RESULT:      -7.1      2.306      7.705
REMARK  Name = Testosterone propionate
REMARK  6 active torsions:
REMARK  status: ('A' for Active; 'I' for Inactive)
REMARK    1  A    between atoms: C_5  and  O_6
REMARK    2  A    between atoms: O_6  and  C_7
REMARK    3  A    between atoms: C_7  and  C_9
REMARK    4  A    between atoms: C_9  and  C_10
REMARK    5  A    between atoms: C_11  and  C_12
REMARK    6  A    between atoms: C_27  and  C_28
REMARK                            x       y       z     vdW  Elec       q    Type
REMARK                         _______ _______ _______ _____ _____    ______ ____
ROOT
ATOM      1  C   UNL     1      -6.844  -2.906 129.330  0.00  0.00    +0.000 C 
ATOM      2  C   UNL     1      -7.607  -3.420 130.545  0.00  0.00    +0.000 C 
ATOM      3  C   UNL     1      -6.573  -3.361 131.690  0.00  0.00    +0.000 C 
ATOM      4  C   UNL     1      -5.331  -2.595 131.151  0.00  0.00    +0.000 C 
ATOM      5  C   UNL     1      -5.901  -1.841 129.919  0.00  0.00    +0.000 C 
ATOM      6  C   UNL     1      -6.611  -0.553 130.400  0.00  0.00    +0.000 C 
ATOM      7  C   UNL     1      -4.883  -1.506 128.821  0.00  0.00    +0.000 C 
ATOM      8  C   UNL     1      -5.540  -1.012 127.533  0.00  0.00    +0.000 C 
ATOM      9  C   UNL     1      -6.664  -1.922 127.005  0.00  0.00    +0.000 C 
ATOM     10  C   UNL     1      -7.643  -2.380 128.131  0.00  0.00    +0.000 C 
ATOM     11  C   UNL     1      -8.589  -3.449 127.577  0.00  0.00    +0.000 C 
ATOM     12  C   UNL     1      -9.332  -2.989 126.329  0.00  0.00    +0.000 C 
ATOM     13  C   UNL     1      -8.436  -2.366 125.285  0.00  0.00    +0.000 C 
ATOM     14  C   UNL     1      -8.565  -2.732 123.998  0.00  0.00    +0.000 C 
ATOM     15  C   UNL     1      -7.867  -2.001 122.914  0.00  0.00    +0.000 C 
ATOM     16  O   UNL     1      -8.019  -2.355 121.748  0.00  0.00    +0.000 OA
ATOM     17  C   UNL     1      -7.096  -0.763 123.291  0.00  0.00    +0.000 C 
ATOM     18  C   UNL     1      -6.425  -0.968 124.644  0.00  0.00    +0.000 C 
ATOM     19  C   UNL     1      -7.436  -1.314 125.775  0.00  0.00    +0.000 C 
ATOM     20  C   UNL     1      -8.203  -0.028 126.162  0.00  0.00    +0.000 C 
ENDROOT
BRANCH   4  21
ATOM     21  O   UNL     1      -4.778  -1.723 132.167  0.00  0.00    +0.000 OA
BRANCH  21  22
ATOM     22  C   UNL     1      -3.428  -1.818 132.357  0.00  0.00    +0.000 C 
ATOM     23  O   UNL     1      -2.622  -2.108 131.479  0.00  0.00    +0.000 OA
BRANCH  22  24
ATOM     24  C   UNL     1      -3.012  -1.549 133.785  0.00  0.00    +0.000 C 
ATOM     25  C   UNL     1      -1.531  -1.173 133.830  0.00  0.00    +0.000 C 
ENDBRANCH  22  24
ENDBRANCH  21  22
ENDBRANCH   4  21
TORSDOF 3
ENDMDL
MODEL 9
REMARK VINA RESULT:      -7.1      2.753      7.445
REMARK  Name = Testosterone propionate
REMARK  6 active torsions:
REMARK  status: ('A' for Active; 'I' for Inactive)
REMARK    1  A    between atoms: C_5  and  O_6
REMARK    2  A    between atoms: O_6  and  C_7
REMARK    3  A    between atoms: C_7  and  C_9
REMARK    4  A    between atoms: C_9  and  C_10
REMARK    5  A    between atoms: C_11  and  C_12
REMARK    6  A    between atoms: C_27  and  C_28
REMARK                            x       y       z     vdW  Elec       q    Type
REMARK                         _______ _______ _______ _____ _____    ______ ____
ROOT
ATOM      1  C   UNL     1      -7.404  -1.115 126.091  0.00  0.00    +0.000 C 
ATOM      2  C   UNL     1      -8.545  -2.116 126.229  0.00  0.00    +0.000 C 
ATOM      3  C   UNL     1      -8.062  -3.088 127.327  0.00  0.00    +0.000 C 
ATOM      4  C   UNL     1      -6.772  -2.477 127.947  0.00  0.00    +0.000 C 
ATOM      5  C   UNL     1      -6.861  -0.985 127.526  0.00  0.00    +0.000 C 
ATOM      6  C   UNL     1      -7.804  -0.241 128.501  0.00  0.00    +0.000 C 
ATOM      7  C   UNL     1      -5.520  -0.249 127.419  0.00  0.00    +0.000 C 
ATOM      8  C   UNL     1      -5.646   1.119 126.749  0.00  0.00    +0.000 C 
ATOM      9  C   UNL     1      -6.390   1.099 125.401  0.00  0.00    +0.000 C 
ATOM     10  C   UNL     1      -7.697   0.248 125.452  0.00  0.00    +0.000 C 
ATOM     11  C   UNL     1      -8.257   0.093 124.034  0.00  0.00    +0.000 C 
ATOM     12  C   UNL     1      -8.473   1.430 123.337  0.00  0.00    +0.000 C 
ATOM     13  C   UNL     1      -7.288   2.361 123.427  0.00  0.00    +0.000 C 
ATOM     14  C   UNL     1      -6.864   3.002 122.324  0.00  0.00    +0.000 C 
ATOM     15  C   UNL     1      -5.852   4.081 122.400  0.00  0.00    +0.000 C 
ATOM     16  O   UNL     1      -5.498   4.654 121.373  0.00  0.00    +0.000 OA
ATOM     17  C   UNL     1      -5.396   4.515 123.769  0.00  0.00    +0.000 C 
ATOM     18  C   UNL     1      -5.305   3.303 124.688  0.00  0.00    +0.000 C 
ATOM     19  C   UNL     1      -6.653   2.534 124.811  0.00  0.00    +0.000 C 
ATOM     20  C   UNL     1      -7.609   3.355 125.707  0.00  0.00    +0.000 C 
ENDROOT
BRANCH   4  21
ATOM     21  O   UNL     1      -6.741  -2.680 129.382  0.00  0.00    +0.000 OA
BRANCH  21  22
ATOM     22  C   UNL     1      -5.802  -3.563 129.834  0.00  0.00    +0.000 C 
ATOM     23  O   UNL     1      -6.011  -4.427 130.679  0.00  0.00    +0.000 OA
BRANCH  22  24
ATOM     24  C   UNL     1      -4.445  -3.358 129.200  0.00  0.00    +0.000 C 
ATOM     25  C   UNL     1      -3.641  -2.347 130.018  0.00  0.00    +0.000 C 
ENDBRANCH  22  24
ENDBRANCH  21  22
ENDBRANCH   4  21
TORSDOF 3
ENDMDL
