MODEL 1
REMARK VINA RESULT:      -9.9      0.000      0.000
REMARK  Name = Testosterone enantate benzilic acid hydrazone
REMARK  15 active torsions:
REMARK  status: ('A' for Active; 'I' for Inactive)
REMARK    1  A    between atoms: N_2  and  N_3
REMARK    2  A    between atoms: C_7  and  C_8
REMARK    3  A    between atoms: C_18  and  O_19
REMARK    4  A    between atoms: O_19  and  C_20
REMARK    5  A    between atoms: C_20  and  C_22
REMARK    6  A    between atoms: C_22  and  C_23
REMARK    7  A    between atoms: C_23  and  C_24
REMARK    8  A    between atoms: C_24  and  C_25
REMARK    9  A    between atoms: C_25  and  C_26
REMARK   10  A    between atoms: C_26  and  C_27
REMARK   11  A    between atoms: C_28  and  C_29
REMARK   12  A    between atoms: C_35  and  C_37
REMARK   13  A    between atoms: C_37  and  O_38
REMARK   14  A    between atoms: C_37  and  C_39
REMARK   15  A    between atoms: C_37  and  C_45
REMARK                            x       y       z     vdW  Elec       q    Type
REMARK                         _______ _______ _______ _____ _____    ______ ____
ROOT
ATOM      1  N   UNL     1      -8.900   1.643 126.298  0.00  0.00    +0.000 NA
ATOM      2  C   UNL     1      -8.527   1.149 127.498  0.00  0.00    +0.000 C 
ATOM      3  C   UNL     1      -8.572   2.251 128.401  0.00  0.00    +0.000 C 
ATOM      4  C   UNL     1      -7.241   2.156 129.130  0.00  0.00    +0.000 C 
ATOM      5  C   UNL     1      -7.789   1.978 130.487  0.00  0.00    +0.000 C 
ATOM      6  C   UNL     1      -9.262   2.439 130.912  0.00  0.00    +0.000 C 
ATOM      7  C   UNL     1      -7.858   0.441 130.257  0.00  0.00    +0.000 C 
ATOM      8  C   UNL     1      -7.812   0.179 131.978  0.00  0.00    +0.000 C 
ATOM      9  C   UNL     1      -7.030   1.250 133.135  0.00  0.00    +0.000 C 
ATOM     10  C   UNL     1      -7.028   2.747 132.755  0.00  0.00    +0.000 C 
ATOM     11  C   UNL     1      -6.059   3.706 133.497  0.00  0.00    +0.000 C 
ATOM     12  C   UNL     1      -6.641   3.883 134.922  0.00  0.00    +0.000 C 
ATOM     13  C   UNL     1      -6.371   5.331 135.050  0.00  0.00    +0.000 C 
ATOM     14  C   UNL     1      -7.074   5.935 133.540  0.00  0.00    +0.000 C 
ATOM     15  C   UNL     1      -5.949   5.203 132.817  0.00  0.00    +0.000 C 
ATOM     16  C   UNL     1      -4.779   6.215 133.160  0.00  0.00    +0.000 C 
ATOM     17  C   UNL     1      -5.767   5.054 131.341  0.00  0.00    +0.000 C 
ATOM     18  C   UNL     1      -6.759   4.163 130.724  0.00  0.00    +0.000 C 
ATOM     19  C   UNL     1      -6.737   2.743 131.291  0.00  0.00    +0.000 C 
ATOM     20  C   UNL     1      -7.973  -0.071 128.758  0.00  0.00    +0.000 C 
ENDROOT
BRANCH   1  22
ATOM     21  H   UNL     1      -8.985   0.252 124.832  0.00  0.00    +0.000 HD
ATOM     22  N   UNL     1      -8.883   1.261 124.970  0.00  0.00    +0.000 N 
ATOM     23  C   UNL     1      -7.961   1.726 123.953  0.00  0.00    +0.000 C 
ATOM     24  O   UNL     1      -7.755   0.976 122.972  0.00  0.00    +0.000 OA
BRANCH  23  25
ATOM     25  C   UNL     1      -7.224   3.152 124.039  0.00  0.00    +0.000 C 
BRANCH  25  26
ATOM     26  C   UNL     1      -6.139   3.108 125.115  0.00  0.00    +0.000 A 
ATOM     27  C   UNL     1      -5.466   1.916 125.434  0.00  0.00    +0.000 A 
ATOM     28  C   UNL     1      -4.637   1.875 126.548  0.00  0.00    +0.000 A 
ATOM     29  C   UNL     1      -4.424   3.034 127.291  0.00  0.00    +0.000 A 
ATOM     30  C   UNL     1      -5.082   4.218 126.997  0.00  0.00    +0.000 A 
ATOM     31  C   UNL     1      -5.952   4.245 125.926  0.00  0.00    +0.000 A 
ENDBRANCH  25  26
BRANCH  25  32
ATOM     32  C   UNL     1      -6.572   3.596 122.670  0.00  0.00    +0.000 A 
ATOM     33  C   UNL     1      -5.288   4.163 122.625  0.00  0.00    +0.000 A 
ATOM     34  C   UNL     1      -4.794   4.747 121.445  0.00  0.00    +0.000 A 
ATOM     35  C   UNL     1      -5.516   4.674 120.254  0.00  0.00    +0.000 A 
ATOM     36  C   UNL     1      -6.753   4.049 120.246  0.00  0.00    +0.000 A 
ATOM     37  C   UNL     1      -7.269   3.523 121.435  0.00  0.00    +0.000 A 
ENDBRANCH  25  32
BRANCH  25  38
ATOM     38  O   UNL     1      -8.220   4.112 124.398  0.00  0.00    +0.000 OA
ATOM     39  H   UNL     1      -8.956   3.910 123.791  0.00  0.00    +0.000 HD
ENDBRANCH  25  38
ENDBRANCH  23  25
ENDBRANCH   1  22
BRANCH  14  40
ATOM     40  O   UNL     1      -8.459   5.580 133.034  0.00  0.00    +0.000 OA
BRANCH  40  41
ATOM     41  C   UNL     1      -9.410   6.284 132.249  0.00  0.00    +0.000 C 
ATOM     42  O   UNL     1     -10.564   6.439 132.660  0.00  0.00    +0.000 OA
BRANCH  41  43
ATOM     43  C   UNL     1      -9.055   6.825 130.836  0.00  0.00    +0.000 C 
BRANCH  43  44
ATOM     44  C   UNL     1      -9.863   6.261 129.592  0.00  0.00    +0.000 C 
BRANCH  44  45
ATOM     45  C   UNL     1     -10.999   7.221 129.141  0.00  0.00    +0.000 C 
BRANCH  45  46
ATOM     46  C   UNL     1     -10.546   8.267 128.107  0.00  0.00    +0.000 C 
BRANCH  46  47
ATOM     47  C   UNL     1     -11.019   7.919 126.692  0.00  0.00    +0.000 C 
ATOM     48  C   UNL     1     -12.311   7.113 126.729  0.00  0.00    +0.000 C 
ENDBRANCH  46  47
ENDBRANCH  45  46
ENDBRANCH  44  45
ENDBRANCH  43  44
ENDBRANCH  41  43
ENDBRANCH  40  41
ENDBRANCH  14  40
TORSDOF 12
ENDMDL
MODEL 2
REMARK VINA RESULT:      -9.8      3.494      5.139
REMARK  Name = Testosterone enantate benzilic acid hydrazone
REMARK  15 active torsions:
REMARK  status: ('A' for Active; 'I' for Inactive)
REMARK    1  A    between atoms: N_2  and  N_3
REMARK    2  A    between atoms: C_7  and  C_8
REMARK    3  A    between atoms: C_18  and  O_19
REMARK    4  A    between atoms: O_19  and  C_20
REMARK    5  A    between atoms: C_20  and  C_22
REMARK    6  A    between atoms: C_22  and  C_23
REMARK    7  A    between atoms: C_23  and  C_24
REMARK    8  A    between atoms: C_24  and  C_25
REMARK    9  A    between atoms: C_25  and  C_26
REMARK   10  A    between atoms: C_26  and  C_27
REMARK   11  A    between atoms: C_28  and  C_29
REMARK   12  A    between atoms: C_35  and  C_37
REMARK   13  A    between atoms: C_37  and  O_38
REMARK   14  A    between atoms: C_37  and  C_39
REMARK   15  A    between atoms: C_37  and  C_45
REMARK                            x       y       z     vdW  Elec       q    Type
REMARK                         _______ _______ _______ _____ _____    ______ ____
ROOT
ATOM      1  N   UNL     1      -8.763   1.898 127.409  0.00  0.00    +0.000 NA
ATOM      2  C   UNL     1      -8.672   1.875 128.755  0.00  0.00    +0.000 C 
ATOM      3  C   UNL     1      -7.756   2.912 129.100  0.00  0.00    +0.000 C 
ATOM      4  C   UNL     1      -6.811   2.231 130.075  0.00  0.00    +0.000 C 
ATOM      5  C   UNL     1      -7.083   3.104 131.232  0.00  0.00    +0.000 C 
ATOM      6  C   UNL     1      -7.668   4.588 131.100  0.00  0.00    +0.000 C 
ATOM      7  C   UNL     1      -8.278   2.194 131.637  0.00  0.00    +0.000 C 
ATOM      8  C   UNL     1      -8.152   2.756 133.281  0.00  0.00    +0.000 C 
ATOM      9  C   UNL     1      -6.662   3.299 134.043  0.00  0.00    +0.000 C 
ATOM     10  C   UNL     1      -5.642   3.972 133.098  0.00  0.00    +0.000 C 
ATOM     11  C   UNL     1      -4.176   4.142 133.579  0.00  0.00    +0.000 C 
ATOM     12  C   UNL     1      -4.203   5.267 134.644  0.00  0.00    +0.000 C 
ATOM     13  C   UNL     1      -2.955   5.941 134.228  0.00  0.00    +0.000 C 
ATOM     14  C   UNL     1      -3.240   6.126 132.490  0.00  0.00    +0.000 C 
ATOM     15  C   UNL     1      -3.133   4.609 132.392  0.00  0.00    +0.000 C 
ATOM     16  C   UNL     1      -1.559   4.495 132.541  0.00  0.00    +0.000 C 
ATOM     17  C   UNL     1      -3.362   3.761 131.182  0.00  0.00    +0.000 C 
ATOM     18  C   UNL     1      -4.774   3.699 130.780  0.00  0.00    +0.000 C 
ATOM     19  C   UNL     1      -5.691   3.133 131.864  0.00  0.00    +0.000 C 
ATOM     20  C   UNL     1      -8.973   1.343 130.491  0.00  0.00    +0.000 C 
ENDROOT
BRANCH   1  22
ATOM     21  H   UNL     1     -10.269   1.080 126.335  0.00  0.00    +0.000 HD
ATOM     22  N   UNL     1      -9.247   1.101 126.390  0.00  0.00    +0.000 N 
ATOM     23  C   UNL     1      -8.789  -0.231 126.048  0.00  0.00    +0.000 C 
ATOM     24  O   UNL     1      -9.595  -0.988 125.461  0.00  0.00    +0.000 OA
BRANCH  23  25
ATOM     25  C   UNL     1      -7.303  -0.748 126.381  0.00  0.00    +0.000 C 
BRANCH  25  26
ATOM     26  C   UNL     1      -7.327  -1.609 127.644  0.00  0.00    +0.000 A 
ATOM     27  C   UNL     1      -8.213  -2.691 127.780  0.00  0.00    +0.000 A 
ATOM     28  C   UNL     1      -8.342  -3.318 129.014  0.00  0.00    +0.000 A 
ATOM     29  C   UNL     1      -7.539  -2.916 130.079  0.00  0.00    +0.000 A 
ATOM     30  C   UNL     1      -6.664  -1.847 129.966  0.00  0.00    +0.000 A 
ATOM     31  C   UNL     1      -6.577  -1.185 128.759  0.00  0.00    +0.000 A 
ENDBRANCH  25  26
BRANCH  25  32
ATOM     32  C   UNL     1      -6.658  -1.580 125.203  0.00  0.00    +0.000 A 
ATOM     33  C   UNL     1      -5.766  -2.634 125.460  0.00  0.00    +0.000 A 
ATOM     34  C   UNL     1      -5.035  -3.235 124.420  0.00  0.00    +0.000 A 
ATOM     35  C   UNL     1      -5.262  -2.884 123.090  0.00  0.00    +0.000 A 
ATOM     36  C   UNL     1      -6.195  -1.903 122.796  0.00  0.00    +0.000 A 
ATOM     37  C   UNL     1      -6.877  -1.263 123.836  0.00  0.00    +0.000 A 
ENDBRANCH  25  32
BRANCH  25  38
ATOM     38  O   UNL     1      -6.502   0.414 126.605  0.00  0.00    +0.000 OA
ATOM     39  H   UNL     1      -6.337   0.751 125.705  0.00  0.00    +0.000 HD
ENDBRANCH  25  38
ENDBRANCH  23  25
ENDBRANCH   1  22
BRANCH  14  40
ATOM     40  O   UNL     1      -4.510   6.691 131.882  0.00  0.00    +0.000 OA
BRANCH  40  41
ATOM     41  C   UNL     1      -4.790   7.315 130.638  0.00  0.00    +0.000 C 
ATOM     42  O   UNL     1      -5.953   7.582 130.323  0.00  0.00    +0.000 OA
BRANCH  41  43
ATOM     43  C   UNL     1      -3.663   7.627 129.614  0.00  0.00    +0.000 C 
BRANCH  43  44
ATOM     44  C   UNL     1      -3.044   6.420 128.790  0.00  0.00    +0.000 C 
BRANCH  44  45
ATOM     45  C   UNL     1      -4.011   5.897 127.692  0.00  0.00    +0.000 C 
BRANCH  45  46
ATOM     46  C   UNL     1      -3.777   4.423 127.316  0.00  0.00    +0.000 C 
BRANCH  46  47
ATOM     47  C   UNL     1      -2.353   3.965 127.648  0.00  0.00    +0.000 C 
ATOM     48  C   UNL     1      -1.782   3.097 126.535  0.00  0.00    +0.000 C 
ENDBRANCH  46  47
ENDBRANCH  45  46
ENDBRANCH  44  45
ENDBRANCH  43  44
ENDBRANCH  41  43
ENDBRANCH  40  41
ENDBRANCH  14  40
TORSDOF 12
ENDMDL
MODEL 3
REMARK VINA RESULT:      -9.5      3.365      8.654
REMARK  Name = Testosterone enantate benzilic acid hydrazone
REMARK  15 active torsions:
REMARK  status: ('A' for Active; 'I' for Inactive)
REMARK    1  A    between atoms: N_2  and  N_3
REMARK    2  A    between atoms: C_7  and  C_8
REMARK    3  A    between atoms: C_18  and  O_19
REMARK    4  A    between atoms: O_19  and  C_20
REMARK    5  A    between atoms: C_20  and  C_22
REMARK    6  A    between atoms: C_22  and  C_23
REMARK    7  A    between atoms: C_23  and  C_24
REMARK    8  A    between atoms: C_24  and  C_25
REMARK    9  A    between atoms: C_25  and  C_26
REMARK   10  A    between atoms: C_26  and  C_27
REMARK   11  A    between atoms: C_28  and  C_29
REMARK   12  A    between atoms: C_35  and  C_37
REMARK   13  A    between atoms: C_37  and  O_38
REMARK   14  A    between atoms: C_37  and  C_39
REMARK   15  A    between atoms: C_37  and  C_45
REMARK                            x       y       z     vdW  Elec       q    Type
REMARK                         _______ _______ _______ _____ _____    ______ ____
ROOT
ATOM      1  N   UNL     1      -5.164   5.028 126.906  0.00  0.00    +0.000 NA
ATOM      2  C   UNL     1      -6.004   4.533 125.974  0.00  0.00    +0.000 C 
ATOM      3  C   UNL     1      -6.232   3.174 126.340  0.00  0.00    +0.000 C 
ATOM      4  C   UNL     1      -6.025   2.423 125.035  0.00  0.00    +0.000 C 
ATOM      5  C   UNL     1      -7.380   1.849 124.939  0.00  0.00    +0.000 C 
ATOM      6  C   UNL     1      -8.344   1.646 126.201  0.00  0.00    +0.000 C 
ATOM      7  C   UNL     1      -7.873   3.132 124.210  0.00  0.00    +0.000 C 
ATOM      8  C   UNL     1      -9.179   2.228 123.497  0.00  0.00    +0.000 C 
ATOM      9  C   UNL     1      -9.126   0.507 123.130  0.00  0.00    +0.000 C 
ATOM     10  C   UNL     1      -8.253  -0.344 124.077  0.00  0.00    +0.000 C 
ATOM     11  C   UNL     1      -7.841  -1.773 123.632  0.00  0.00    +0.000 C 
ATOM     12  C   UNL     1      -9.120  -2.640 123.739  0.00  0.00    +0.000 C 
ATOM     13  C   UNL     1      -8.476  -3.849 124.295  0.00  0.00    +0.000 C 
ATOM     14  C   UNL     1      -7.560  -3.148 125.640  0.00  0.00    +0.000 C 
ATOM     15  C   UNL     1      -6.692  -2.466 124.589  0.00  0.00    +0.000 C 
ATOM     16  C   UNL     1      -5.859  -3.738 124.141  0.00  0.00    +0.000 C 
ATOM     17  C   UNL     1      -5.594  -1.479 124.822  0.00  0.00    +0.000 C 
ATOM     18  C   UNL     1      -6.080  -0.172 125.284  0.00  0.00    +0.000 C 
ATOM     19  C   UNL     1      -7.043   0.500 124.304  0.00  0.00    +0.000 C 
ATOM     20  C   UNL     1      -7.075   4.478 124.478  0.00  0.00    +0.000 C 
ENDROOT
BRANCH   1  22
ATOM     21  H   UNL     1      -3.744   6.336 126.300  0.00  0.00    +0.000 HD
ATOM     22  N   UNL     1      -4.360   6.137 127.092  0.00  0.00    +0.000 N 
ATOM     23  C   UNL     1      -3.611   6.465 128.288  0.00  0.00    +0.000 C 
ATOM     24  O   UNL     1      -2.599   7.190 128.157  0.00  0.00    +0.000 OA
BRANCH  23  25
ATOM     25  C   UNL     1      -4.042   5.949 129.749  0.00  0.00    +0.000 C 
BRANCH  25  26
ATOM     26  C   UNL     1      -4.018   4.421 129.784  0.00  0.00    +0.000 A 
ATOM     27  C   UNL     1      -3.304   3.674 128.831  0.00  0.00    +0.000 A 
ATOM     28  C   UNL     1      -3.471   2.296 128.778  0.00  0.00    +0.000 A 
ATOM     29  C   UNL     1      -4.284   1.663 129.716  0.00  0.00    +0.000 A 
ATOM     30  C   UNL     1      -5.000   2.382 130.660  0.00  0.00    +0.000 A 
ATOM     31  C   UNL     1      -4.883   3.757 130.677  0.00  0.00    +0.000 A 
ENDBRANCH  25  26
BRANCH  25  32
ATOM     32  C   UNL     1      -3.115   6.505 130.901  0.00  0.00    +0.000 A 
ATOM     33  C   UNL     1      -3.412   7.712 131.557  0.00  0.00    +0.000 A 
ATOM     34  C   UNL     1      -2.486   8.310 132.429  0.00  0.00    +0.000 A 
ATOM     35  C   UNL     1      -1.297   7.663 132.763  0.00  0.00    +0.000 A 
ATOM     36  C   UNL     1      -1.009   6.432 132.196  0.00  0.00    +0.000 A 
ATOM     37  C   UNL     1      -1.903   5.868 131.280  0.00  0.00    +0.000 A 
ENDBRANCH  25  32
BRANCH  25  38
ATOM     38  O   UNL     1      -5.374   6.415 129.976  0.00  0.00    +0.000 OA
ATOM     39  H   UNL     1      -5.711   5.809 130.661  0.00  0.00    +0.000 HD
ENDBRANCH  25  38
ENDBRANCH  23  25
ENDBRANCH   1  22
BRANCH  14  40
ATOM     40  O   UNL     1      -8.137  -2.195 126.669  0.00  0.00    +0.000 OA
BRANCH  40  41
ATOM     41  C   UNL     1      -8.048  -2.133 128.085  0.00  0.00    +0.000 C 
ATOM     42  O   UNL     1      -8.453  -3.071 128.776  0.00  0.00    +0.000 OA
BRANCH  41  43
ATOM     43  C   UNL     1      -7.500  -0.871 128.809  0.00  0.00    +0.000 C 
BRANCH  43  44
ATOM     44  C   UNL     1      -7.751  -0.735 130.370  0.00  0.00    +0.000 C 
BRANCH  44  45
ATOM     45  C   UNL     1      -8.343   0.649 130.755  0.00  0.00    +0.000 C 
BRANCH  45  46
ATOM     46  C   UNL     1      -8.373   1.652 129.588  0.00  0.00    +0.000 C 
BRANCH  46  47
ATOM     47  C   UNL     1      -8.927   3.015 130.016  0.00  0.00    +0.000 C 
ATOM     48  C   UNL     1      -8.287   4.142 129.217  0.00  0.00    +0.000 C 
ENDBRANCH  46  47
ENDBRANCH  45  46
ENDBRANCH  44  45
ENDBRANCH  43  44
ENDBRANCH  41  43
ENDBRANCH  40  41
ENDBRANCH  14  40
TORSDOF 12
ENDMDL
MODEL 4
REMARK VINA RESULT:      -9.5      3.568      9.022
REMARK  Name = Testosterone enantate benzilic acid hydrazone
REMARK  15 active torsions:
REMARK  status: ('A' for Active; 'I' for Inactive)
REMARK    1  A    between atoms: N_2  and  N_3
REMARK    2  A    between atoms: C_7  and  C_8
REMARK    3  A    between atoms: C_18  and  O_19
REMARK    4  A    between atoms: O_19  and  C_20
REMARK    5  A    between atoms: C_20  and  C_22
REMARK    6  A    between atoms: C_22  and  C_23
REMARK    7  A    between atoms: C_23  and  C_24
REMARK    8  A    between atoms: C_24  and  C_25
REMARK    9  A    between atoms: C_25  and  C_26
REMARK   10  A    between atoms: C_26  and  C_27
REMARK   11  A    between atoms: C_28  and  C_29
REMARK   12  A    between atoms: C_35  and  C_37
REMARK   13  A    between atoms: C_37  and  O_38
REMARK   14  A    between atoms: C_37  and  C_39
REMARK   15  A    between atoms: C_37  and  C_45
REMARK                            x       y       z     vdW  Elec       q    Type
REMARK                         _______ _______ _______ _____ _____    ______ ____
ROOT
ATOM      1  N   UNL     1      -7.183   4.365 129.556  0.00  0.00    +0.000 NA
ATOM      2  C   UNL     1      -7.494   4.179 128.256  0.00  0.00    +0.000 C 
ATOM      3  C   UNL     1      -7.490   2.768 128.054  0.00  0.00    +0.000 C 
ATOM      4  C   UNL     1      -6.661   2.599 126.792  0.00  0.00    +0.000 C 
ATOM      5  C   UNL     1      -7.708   1.967 125.969  0.00  0.00    +0.000 C 
ATOM      6  C   UNL     1      -8.970   1.197 126.584  0.00  0.00    +0.000 C 
ATOM      7  C   UNL     1      -8.218   3.372 125.537  0.00  0.00    +0.000 C 
ATOM      8  C   UNL     1      -8.924   2.679 124.104  0.00  0.00    +0.000 C 
ATOM      9  C   UNL     1      -8.320   1.246 123.281  0.00  0.00    +0.000 C 
ATOM     10  C   UNL     1      -7.650   0.193 124.191  0.00  0.00    +0.000 C 
ATOM     11  C   UNL     1      -6.767  -0.905 123.539  0.00  0.00    +0.000 C 
ATOM     12  C   UNL     1      -7.745  -1.875 122.831  0.00  0.00    +0.000 C 
ATOM     13  C   UNL     1      -7.056  -3.130 123.200  0.00  0.00    +0.000 C 
ATOM     14  C   UNL     1      -6.873  -2.906 124.948  0.00  0.00    +0.000 C 
ATOM     15  C   UNL     1      -5.891  -1.787 124.621  0.00  0.00    +0.000 C 
ATOM     16  C   UNL     1      -4.666  -2.696 124.191  0.00  0.00    +0.000 C 
ATOM     17  C   UNL     1      -5.226  -0.855 125.582  0.00  0.00    +0.000 C 
ATOM     18  C   UNL     1      -6.152   0.116 126.179  0.00  0.00    +0.000 C 
ATOM     19  C   UNL     1      -6.846   1.008 125.148  0.00  0.00    +0.000 C 
ATOM     20  C   UNL     1      -7.926   4.589 126.515  0.00  0.00    +0.000 C 
ENDROOT
BRANCH   1  22
ATOM     21  H   UNL     1      -7.320   6.263 130.242  0.00  0.00    +0.000 HD
ATOM     22  N   UNL     1      -6.798   5.396 130.392  0.00  0.00    +0.000 N 
ATOM     23  C   UNL     1      -5.438   5.783 130.709  0.00  0.00    +0.000 C 
ATOM     24  O   UNL     1      -5.241   6.967 131.062  0.00  0.00    +0.000 OA
BRANCH  23  25
ATOM     25  C   UNL     1      -4.205   4.754 130.636  0.00  0.00    +0.000 C 
BRANCH  25  26
ATOM     26  C   UNL     1      -3.824   4.508 129.176  0.00  0.00    +0.000 A 
ATOM     27  C   UNL     1      -4.134   5.437 128.168  0.00  0.00    +0.000 A 
ATOM     28  C   UNL     1      -3.951   5.087 126.836  0.00  0.00    +0.000 A 
ATOM     29  C   UNL     1      -3.394   3.850 126.518  0.00  0.00    +0.000 A 
ATOM     30  C   UNL     1      -3.087   2.918 127.497  0.00  0.00    +0.000 A 
ATOM     31  C   UNL     1      -3.322   3.241 128.818  0.00  0.00    +0.000 A 
ENDBRANCH  25  26
BRANCH  25  32
ATOM     32  C   UNL     1      -2.931   5.256 131.423  0.00  0.00    +0.000 A 
ATOM     33  C   UNL     1      -2.763   4.980 132.790  0.00  0.00    +0.000 A 
ATOM     34  C   UNL     1      -1.744   5.598 133.535  0.00  0.00    +0.000 A 
ATOM     35  C   UNL     1      -0.795   6.410 132.914  0.00  0.00    +0.000 A 
ATOM     36  C   UNL     1      -0.884   6.638 131.550  0.00  0.00    +0.000 A 
ATOM     37  C   UNL     1      -1.936   6.072 130.821  0.00  0.00    +0.000 A 
ENDBRANCH  25  32
BRANCH  25  38
ATOM     38  O   UNL     1      -4.650   3.532 131.230  0.00  0.00    +0.000 OA
ATOM     39  H   UNL     1      -5.293   3.829 131.899  0.00  0.00    +0.000 HD
ENDBRANCH  25  38
ENDBRANCH  23  25
ENDBRANCH   1  22
BRANCH  14  40
ATOM     40  O   UNL     1      -7.991  -2.485 125.883  0.00  0.00    +0.000 OA
BRANCH  40  41
ATOM     41  C   UNL     1      -9.117  -3.170 126.411  0.00  0.00    +0.000 C 
ATOM     42  O   UNL     1     -10.174  -3.214 125.776  0.00  0.00    +0.000 OA
BRANCH  41  43
ATOM     43  C   UNL     1      -9.079  -3.830 127.818  0.00  0.00    +0.000 C 
BRANCH  43  44
ATOM     44  C   UNL     1      -7.822  -3.546 128.746  0.00  0.00    +0.000 C 
BRANCH  44  45
ATOM     45  C   UNL     1      -8.073  -2.378 129.739  0.00  0.00    +0.000 C 
BRANCH  45  46
ATOM     46  C   UNL     1      -7.477  -1.037 129.275  0.00  0.00    +0.000 C 
BRANCH  46  47
ATOM     47  C   UNL     1      -6.537  -0.433 130.323  0.00  0.00    +0.000 C 
ATOM     48  C   UNL     1      -5.340   0.239 129.663  0.00  0.00    +0.000 C 
ENDBRANCH  46  47
ENDBRANCH  45  46
ENDBRANCH  44  45
ENDBRANCH  43  44
ENDBRANCH  41  43
ENDBRANCH  40  41
ENDBRANCH  14  40
TORSDOF 12
ENDMDL
MODEL 5
REMARK VINA RESULT:      -9.2      4.514      8.322
REMARK  Name = Testosterone enantate benzilic acid hydrazone
REMARK  15 active torsions:
REMARK  status: ('A' for Active; 'I' for Inactive)
REMARK    1  A    between atoms: N_2  and  N_3
REMARK    2  A    between atoms: C_7  and  C_8
REMARK    3  A    between atoms: C_18  and  O_19
REMARK    4  A    between atoms: O_19  and  C_20
REMARK    5  A    between atoms: C_20  and  C_22
REMARK    6  A    between atoms: C_22  and  C_23
REMARK    7  A    between atoms: C_23  and  C_24
REMARK    8  A    between atoms: C_24  and  C_25
REMARK    9  A    between atoms: C_25  and  C_26
REMARK   10  A    between atoms: C_26  and  C_27
REMARK   11  A    between atoms: C_28  and  C_29
REMARK   12  A    between atoms: C_35  and  C_37
REMARK   13  A    between atoms: C_37  and  O_38
REMARK   14  A    between atoms: C_37  and  C_39
REMARK   15  A    between atoms: C_37  and  C_45
REMARK                            x       y       z     vdW  Elec       q    Type
REMARK                         _______ _______ _______ _____ _____    ______ ____
ROOT
ATOM      1  N   UNL     1      -6.128   4.407 130.465  0.00  0.00    +0.000 NA
ATOM      2  C   UNL     1      -5.351   3.675 131.291  0.00  0.00    +0.000 C 
ATOM      3  C   UNL     1      -5.707   2.315 131.055  0.00  0.00    +0.000 C 
ATOM      4  C   UNL     1      -5.899   1.758 132.456  0.00  0.00    +0.000 C 
ATOM      5  C   UNL     1      -4.853   0.721 132.385  0.00  0.00    +0.000 C 
ATOM      6  C   UNL     1      -4.306   0.113 131.009  0.00  0.00    +0.000 C 
ATOM      7  C   UNL     1      -3.794   1.757 132.860  0.00  0.00    +0.000 C 
ATOM      8  C   UNL     1      -2.784   0.462 133.440  0.00  0.00    +0.000 C 
ATOM      9  C   UNL     1      -3.377  -1.093 134.013  0.00  0.00    +0.000 C 
ATOM     10  C   UNL     1      -4.672  -1.596 133.338  0.00  0.00    +0.000 C 
ATOM     11  C   UNL     1      -5.470  -2.742 134.015  0.00  0.00    +0.000 C 
ATOM     12  C   UNL     1      -4.639  -4.031 133.792  0.00  0.00    +0.000 C 
ATOM     13  C   UNL     1      -5.774  -4.933 133.504  0.00  0.00    +0.000 C 
ATOM     14  C   UNL     1      -6.631  -4.002 132.263  0.00  0.00    +0.000 C 
ATOM     15  C   UNL     1      -6.961  -2.996 133.360  0.00  0.00    +0.000 C 
ATOM     16  C   UNL     1      -8.086  -3.838 134.092  0.00  0.00    +0.000 C 
ATOM     17  C   UNL     1      -7.653  -1.680 133.203  0.00  0.00    +0.000 C 
ATOM     18  C   UNL     1      -6.834  -0.676 132.512  0.00  0.00    +0.000 C 
ATOM     19  C   UNL     1      -5.516  -0.370 133.225  0.00  0.00    +0.000 C 
ATOM     20  C   UNL     1      -4.090   3.291 132.575  0.00  0.00    +0.000 C 
ENDROOT
BRANCH   1  22
ATOM     21  H   UNL     1      -5.903   6.390 130.791  0.00  0.00    +0.000 HD
ATOM     22  N   UNL     1      -6.499   5.726 130.290  0.00  0.00    +0.000 N 
ATOM     23  C   UNL     1      -7.846   6.257 130.349  0.00  0.00    +0.000 C 
ATOM     24  O   UNL     1      -7.981   7.465 130.647  0.00  0.00    +0.000 OA
BRANCH  23  25
ATOM     25  C   UNL     1      -9.144   5.361 130.036  0.00  0.00    +0.000 C 
BRANCH  25  26
ATOM     26  C   UNL     1      -9.331   4.320 131.140  0.00  0.00    +0.000 A 
ATOM     27  C   UNL     1      -9.009   4.600 132.479  0.00  0.00    +0.000 A 
ATOM     28  C   UNL     1      -9.003   3.570 133.411  0.00  0.00    +0.000 A 
ATOM     29  C   UNL     1      -9.389   2.288 133.025  0.00  0.00    +0.000 A 
ATOM     30  C   UNL     1      -9.705   1.990 131.709  0.00  0.00    +0.000 A 
ATOM     31  C   UNL     1      -9.654   2.999 130.768  0.00  0.00    +0.000 A 
ENDBRANCH  25  26
BRANCH  25  32
ATOM     32  C   UNL     1     -10.468   6.212 129.903  0.00  0.00    +0.000 A 
ATOM     33  C   UNL     1     -10.749   6.943 128.736  0.00  0.00    +0.000 A 
ATOM     34  C   UNL     1     -11.814   7.860 128.694  0.00  0.00    +0.000 A 
ATOM     35  C   UNL     1     -12.694   7.984 129.768  0.00  0.00    +0.000 A 
ATOM     36  C   UNL     1     -12.493   7.218 130.905  0.00  0.00    +0.000 A 
ATOM     37  C   UNL     1     -11.397   6.351 130.968  0.00  0.00    +0.000 A 
ENDBRANCH  25  32
BRANCH  25  38
ATOM     38  O   UNL     1      -8.902   4.703 128.790  0.00  0.00    +0.000 OA
ATOM     39  H   UNL     1      -8.369   5.351 128.294  0.00  0.00    +0.000 HD
ENDBRANCH  25  38
ENDBRANCH  23  25
ENDBRANCH   1  22
BRANCH  14  40
ATOM     40  O   UNL     1      -5.972  -3.385 131.044  0.00  0.00    +0.000 OA
BRANCH  40  41
ATOM     41  C   UNL     1      -6.471  -2.985 129.776  0.00  0.00    +0.000 C 
ATOM     42  O   UNL     1      -5.694  -2.639 128.882  0.00  0.00    +0.000 OA
BRANCH  41  43
ATOM     43  C   UNL     1      -7.997  -2.913 129.490  0.00  0.00    +0.000 C 
BRANCH  43  44
ATOM     44  C   UNL     1      -8.545  -3.598 128.166  0.00  0.00    +0.000 C 
BRANCH  44  45
ATOM     45  C   UNL     1      -8.550  -2.623 126.956  0.00  0.00    +0.000 C 
BRANCH  45  46
ATOM     46  C   UNL     1      -9.509  -3.045 125.830  0.00  0.00    +0.000 C 
BRANCH  46  47
ATOM     47  C   UNL     1      -8.759  -3.579 124.606  0.00  0.00    +0.000 C 
ATOM     48  C   UNL     1      -9.443  -3.152 123.314  0.00  0.00    +0.000 C 
ENDBRANCH  46  47
ENDBRANCH  45  46
ENDBRANCH  44  45
ENDBRANCH  43  44
ENDBRANCH  41  43
ENDBRANCH  40  41
ENDBRANCH  14  40
TORSDOF 12
ENDMDL
MODEL 6
REMARK VINA RESULT:      -9.1      2.698      4.576
REMARK  Name = Testosterone enantate benzilic acid hydrazone
REMARK  15 active torsions:
REMARK  status: ('A' for Active; 'I' for Inactive)
REMARK    1  A    between atoms: N_2  and  N_3
REMARK    2  A    between atoms: C_7  and  C_8
REMARK    3  A    between atoms: C_18  and  O_19
REMARK    4  A    between atoms: O_19  and  C_20
REMARK    5  A    between atoms: C_20  and  C_22
REMARK    6  A    between atoms: C_22  and  C_23
REMARK    7  A    between atoms: C_23  and  C_24
REMARK    8  A    between atoms: C_24  and  C_25
REMARK    9  A    between atoms: C_25  and  C_26
REMARK   10  A    between atoms: C_26  and  C_27
REMARK   11  A    between atoms: C_28  and  C_29
REMARK   12  A    between atoms: C_35  and  C_37
REMARK   13  A    between atoms: C_37  and  O_38
REMARK   14  A    between atoms: C_37  and  C_39
REMARK   15  A    between atoms: C_37  and  C_45
REMARK                            x       y       z     vdW  Elec       q    Type
REMARK                         _______ _______ _______ _____ _____    ______ ____
ROOT
ATOM      1  N   UNL     1      -8.862   1.917 127.586  0.00  0.00    +0.000 NA
ATOM      2  C   UNL     1      -8.792   1.942 128.933  0.00  0.00    +0.000 C 
ATOM      3  C   UNL     1      -7.853   2.966 129.253  0.00  0.00    +0.000 C 
ATOM      4  C   UNL     1      -6.942   2.297 130.269  0.00  0.00    +0.000 C 
ATOM      5  C   UNL     1      -7.207   3.220 131.388  0.00  0.00    +0.000 C 
ATOM      6  C   UNL     1      -7.749   4.713 131.191  0.00  0.00    +0.000 C 
ATOM      7  C   UNL     1      -8.433   2.359 131.808  0.00  0.00    +0.000 C 
ATOM      8  C   UNL     1      -8.316   2.979 133.431  0.00  0.00    +0.000 C 
ATOM      9  C   UNL     1      -6.823   3.510 134.196  0.00  0.00    +0.000 C 
ATOM     10  C   UNL     1      -5.771   4.119 133.243  0.00  0.00    +0.000 C 
ATOM     11  C   UNL     1      -4.308   4.267 133.741  0.00  0.00    +0.000 C 
ATOM     12  C   UNL     1      -4.320   5.432 134.762  0.00  0.00    +0.000 C 
ATOM     13  C   UNL     1      -3.047   6.056 134.342  0.00  0.00    +0.000 C 
ATOM     14  C   UNL     1      -3.301   6.183 132.593  0.00  0.00    +0.000 C 
ATOM     15  C   UNL     1      -3.235   4.661 132.554  0.00  0.00    +0.000 C 
ATOM     16  C   UNL     1      -1.668   4.509 132.733  0.00  0.00    +0.000 C 
ATOM     17  C   UNL     1      -3.470   3.774 131.374  0.00  0.00    +0.000 C 
ATOM     18  C   UNL     1      -4.876   3.735 130.951  0.00  0.00    +0.000 C 
ATOM     19  C   UNL     1      -5.825   3.236 132.041  0.00  0.00    +0.000 C 
ATOM     20  C   UNL     1      -9.134   1.485 130.682  0.00  0.00    +0.000 C 
ENDROOT
BRANCH   1  22
ATOM     21  H   UNL     1     -10.245   0.652 126.824  0.00  0.00    +0.000 HD
ATOM     22  N   UNL     1      -9.353   1.095 126.590  0.00  0.00    +0.000 N 
ATOM     23  C   UNL     1      -8.597   0.119 125.829  0.00  0.00    +0.000 C 
ATOM     24  O   UNL     1      -9.226  -0.843 125.335  0.00  0.00    +0.000 OA
BRANCH  23  25
ATOM     25  C   UNL     1      -7.011   0.244 125.594  0.00  0.00    +0.000 C 
BRANCH  25  26
ATOM     26  C   UNL     1      -6.510  -0.966 124.806  0.00  0.00    +0.000 A 
ATOM     27  C   UNL     1      -5.788  -2.000 125.425  0.00  0.00    +0.000 A 
ATOM     28  C   UNL     1      -5.181  -2.975 124.642  0.00  0.00    +0.000 A 
ATOM     29  C   UNL     1      -5.359  -2.959 123.260  0.00  0.00    +0.000 A 
ATOM     30  C   UNL     1      -6.062  -1.945 122.630  0.00  0.00    +0.000 A 
ATOM     31  C   UNL     1      -6.616  -0.942 123.400  0.00  0.00    +0.000 A 
ENDBRANCH  25  26
BRANCH  25  32
ATOM     32  C   UNL     1      -6.600   1.563 124.828  0.00  0.00    +0.000 A 
ATOM     33  C   UNL     1      -5.635   2.439 125.353  0.00  0.00    +0.000 A 
ATOM     34  C   UNL     1      -5.421   3.706 124.784  0.00  0.00    +0.000 A 
ATOM     35  C   UNL     1      -6.073   4.084 123.611  0.00  0.00    +0.000 A 
ATOM     36  C   UNL     1      -6.972   3.210 123.021  0.00  0.00    +0.000 A 
ATOM     37  C   UNL     1      -7.230   1.974 123.623  0.00  0.00    +0.000 A 
ENDBRANCH  25  32
BRANCH  25  38
ATOM     38  O   UNL     1      -6.402   0.263 126.887  0.00  0.00    +0.000 OA
ATOM     39  H   UNL     1      -6.631  -0.609 127.256  0.00  0.00    +0.000 HD
ENDBRANCH  25  38
ENDBRANCH  23  25
ENDBRANCH   1  22
BRANCH  14  40
ATOM     40  O   UNL     1      -4.546   6.758 131.945  0.00  0.00    +0.000 OA
BRANCH  40  41
ATOM     41  C   UNL     1      -4.796   7.320 130.665  0.00  0.00    +0.000 C 
ATOM     42  O   UNL     1      -5.942   7.639 130.338  0.00  0.00    +0.000 OA
BRANCH  41  43
ATOM     43  C   UNL     1      -3.659   7.495 129.619  0.00  0.00    +0.000 C 
BRANCH  43  44
ATOM     44  C   UNL     1      -3.737   6.651 128.278  0.00  0.00    +0.000 C 
BRANCH  44  45
ATOM     45  C   UNL     1      -2.431   5.853 128.005  0.00  0.00    +0.000 C 
BRANCH  45  46
ATOM     46  C   UNL     1      -2.544   4.355 128.337  0.00  0.00    +0.000 C 
BRANCH  46  47
ATOM     47  C   UNL     1      -2.757   3.503 127.081  0.00  0.00    +0.000 C 
ATOM     48  C   UNL     1      -1.426   3.057 126.489  0.00  0.00    +0.000 C 
ENDBRANCH  46  47
ENDBRANCH  45  46
ENDBRANCH  44  45
ENDBRANCH  43  44
ENDBRANCH  41  43
ENDBRANCH  40  41
ENDBRANCH  14  40
TORSDOF 12
ENDMDL
MODEL 7
REMARK VINA RESULT:      -9.1      3.701      9.420
REMARK  Name = Testosterone enantate benzilic acid hydrazone
REMARK  15 active torsions:
REMARK  status: ('A' for Active; 'I' for Inactive)
REMARK    1  A    between atoms: N_2  and  N_3
REMARK    2  A    between atoms: C_7  and  C_8
REMARK    3  A    between atoms: C_18  and  O_19
REMARK    4  A    between atoms: O_19  and  C_20
REMARK    5  A    between atoms: C_20  and  C_22
REMARK    6  A    between atoms: C_22  and  C_23
REMARK    7  A    between atoms: C_23  and  C_24
REMARK    8  A    between atoms: C_24  and  C_25
REMARK    9  A    between atoms: C_25  and  C_26
REMARK   10  A    between atoms: C_26  and  C_27
REMARK   11  A    between atoms: C_28  and  C_29
REMARK   12  A    between atoms: C_35  and  C_37
REMARK   13  A    between atoms: C_37  and  O_38
REMARK   14  A    between atoms: C_37  and  C_39
REMARK   15  A    between atoms: C_37  and  C_45
REMARK                            x       y       z     vdW  Elec       q    Type
REMARK                         _______ _______ _______ _____ _____    ______ ____
ROOT
ATOM      1  N   UNL     1      -4.931   4.904 127.443  0.00  0.00    +0.000 NA
ATOM      2  C   UNL     1      -5.810   4.483 126.510  0.00  0.00    +0.000 C 
ATOM      3  C   UNL     1      -6.021   3.098 126.772  0.00  0.00    +0.000 C 
ATOM      4  C   UNL     1      -5.869   2.458 125.402  0.00  0.00    +0.000 C 
ATOM      5  C   UNL     1      -7.226   1.887 125.316  0.00  0.00    +0.000 C 
ATOM      6  C   UNL     1      -8.135   1.577 126.597  0.00  0.00    +0.000 C 
ATOM      7  C   UNL     1      -7.751   3.224 124.718  0.00  0.00    +0.000 C 
ATOM      8  C   UNL     1      -9.085   2.376 123.988  0.00  0.00    +0.000 C 
ATOM      9  C   UNL     1      -9.046   0.692 123.478  0.00  0.00    +0.000 C 
ATOM     10  C   UNL     1      -8.132  -0.231 124.314  0.00  0.00    +0.000 C 
ATOM     11  C   UNL     1      -7.738  -1.616 123.735  0.00  0.00    +0.000 C 
ATOM     12  C   UNL     1      -9.011  -2.494 123.824  0.00  0.00    +0.000 C 
ATOM     13  C   UNL     1      -8.342  -3.742 124.250  0.00  0.00    +0.000 C 
ATOM     14  C   UNL     1      -7.370  -3.151 125.609  0.00  0.00    +0.000 C 
ATOM     15  C   UNL     1      -6.549  -2.381 124.581  0.00  0.00    +0.000 C 
ATOM     16  C   UNL     1      -5.734  -3.607 123.996  0.00  0.00    +0.000 C 
ATOM     17  C   UNL     1      -5.443  -1.411 124.849  0.00  0.00    +0.000 C 
ATOM     18  C   UNL     1      -5.911  -0.149 125.437  0.00  0.00    +0.000 C 
ATOM     19  C   UNL     1      -6.914   0.597 124.558  0.00  0.00    +0.000 C 
ATOM     20  C   UNL     1      -6.943   4.547 125.062  0.00  0.00    +0.000 C 
ENDROOT
BRANCH   1  22
ATOM     21  H   UNL     1      -3.559   6.279 126.879  0.00  0.00    +0.000 HD
ATOM     22  N   UNL     1      -4.121   5.997 127.686  0.00  0.00    +0.000 N 
ATOM     23  C   UNL     1      -3.296   6.213 128.858  0.00  0.00    +0.000 C 
ATOM     24  O   UNL     1      -2.298   6.958 128.734  0.00  0.00    +0.000 OA
BRANCH  23  25
ATOM     25  C   UNL     1      -3.628   5.551 130.285  0.00  0.00    +0.000 C 
BRANCH  25  26
ATOM     26  C   UNL     1      -2.758   6.192 131.366  0.00  0.00    +0.000 A 
ATOM     27  C   UNL     1      -2.971   7.513 131.795  0.00  0.00    +0.000 A 
ATOM     28  C   UNL     1      -2.040   8.120 132.628  0.00  0.00    +0.000 A 
ATOM     29  C   UNL     1      -0.946   7.390 133.088  0.00  0.00    +0.000 A 
ATOM     30  C   UNL     1      -0.715   6.088 132.672  0.00  0.00    +0.000 A 
ATOM     31  C   UNL     1      -1.607   5.502 131.797  0.00  0.00    +0.000 A 
ENDBRANCH  25  26
BRANCH  25  32
ATOM     32  C   UNL     1      -5.147   5.692 130.696  0.00  0.00    +0.000 A 
ATOM     33  C   UNL     1      -5.951   4.560 130.911  0.00  0.00    +0.000 A 
ATOM     34  C   UNL     1      -7.343   4.679 131.071  0.00  0.00    +0.000 A 
ATOM     35  C   UNL     1      -7.950   5.932 131.140  0.00  0.00    +0.000 A 
ATOM     36  C   UNL     1      -7.173   7.073 131.012  0.00  0.00    +0.000 A 
ATOM     37  C   UNL     1      -5.797   6.951 130.792  0.00  0.00    +0.000 A 
ENDBRANCH  25  32
BRANCH  25  38
ATOM     38  O   UNL     1      -3.316   4.160 130.178  0.00  0.00    +0.000 OA
ATOM     39  H   UNL     1      -3.825   3.875 129.397  0.00  0.00    +0.000 HD
ENDBRANCH  25  38
ENDBRANCH  23  25
ENDBRANCH   1  22
BRANCH  14  40
ATOM     40  O   UNL     1      -7.904  -2.288 126.736  0.00  0.00    +0.000 OA
BRANCH  40  41
ATOM     41  C   UNL     1      -7.605  -2.217 128.123  0.00  0.00    +0.000 C 
ATOM     42  O   UNL     1      -8.364  -2.727 128.951  0.00  0.00    +0.000 OA
BRANCH  41  43
ATOM     43  C   UNL     1      -6.356  -1.453 128.645  0.00  0.00    +0.000 C 
BRANCH  43  44
ATOM     44  C   UNL     1      -4.932  -2.128 128.460  0.00  0.00    +0.000 C 
BRANCH  44  45
ATOM     45  C   UNL     1      -4.257  -2.466 129.819  0.00  0.00    +0.000 C 
BRANCH  45  46
ATOM     46  C   UNL     1      -4.212  -3.973 130.125  0.00  0.00    +0.000 C 
BRANCH  46  47
ATOM     47  C   UNL     1      -5.594  -4.528 130.485  0.00  0.00    +0.000 C 
ATOM     48  C   UNL     1      -6.207  -3.760 131.648  0.00  0.00    +0.000 C 
ENDBRANCH  46  47
ENDBRANCH  45  46
ENDBRANCH  44  45
ENDBRANCH  43  44
ENDBRANCH  41  43
ENDBRANCH  40  41
ENDBRANCH  14  40
TORSDOF 12
ENDMDL
MODEL 8
REMARK VINA RESULT:      -9.1      3.879      9.412
REMARK  Name = Testosterone enantate benzilic acid hydrazone
REMARK  15 active torsions:
REMARK  status: ('A' for Active; 'I' for Inactive)
REMARK    1  A    between atoms: N_2  and  N_3
REMARK    2  A    between atoms: C_7  and  C_8
REMARK    3  A    between atoms: C_18  and  O_19
REMARK    4  A    between atoms: O_19  and  C_20
REMARK    5  A    between atoms: C_20  and  C_22
REMARK    6  A    between atoms: C_22  and  C_23
REMARK    7  A    between atoms: C_23  and  C_24
REMARK    8  A    between atoms: C_24  and  C_25
REMARK    9  A    between atoms: C_25  and  C_26
REMARK   10  A    between atoms: C_26  and  C_27
REMARK   11  A    between atoms: C_28  and  C_29
REMARK   12  A    between atoms: C_35  and  C_37
REMARK   13  A    between atoms: C_37  and  O_38
REMARK   14  A    between atoms: C_37  and  C_39
REMARK   15  A    between atoms: C_37  and  C_45
REMARK                            x       y       z     vdW  Elec       q    Type
REMARK                         _______ _______ _______ _____ _____    ______ ____
ROOT
ATOM      1  N   UNL     1      -5.141   5.073 126.870  0.00  0.00    +0.000 NA
ATOM      2  C   UNL     1      -5.998   4.574 125.954  0.00  0.00    +0.000 C 
ATOM      3  C   UNL     1      -6.210   3.213 126.322  0.00  0.00    +0.000 C 
ATOM      4  C   UNL     1      -6.027   2.467 125.011  0.00  0.00    +0.000 C 
ATOM      5  C   UNL     1      -7.380   1.885 124.943  0.00  0.00    +0.000 C 
ATOM      6  C   UNL     1      -8.316   1.673 126.224  0.00  0.00    +0.000 C 
ATOM      7  C   UNL     1      -7.896   3.166 124.228  0.00  0.00    +0.000 C 
ATOM      8  C   UNL     1      -9.212   2.256 123.540  0.00  0.00    +0.000 C 
ATOM      9  C   UNL     1      -9.156   0.537 123.168  0.00  0.00    +0.000 C 
ATOM     10  C   UNL     1      -8.258  -0.311 124.094  0.00  0.00    +0.000 C 
ATOM     11  C   UNL     1      -7.847  -1.737 123.636  0.00  0.00    +0.000 C 
ATOM     12  C   UNL     1      -9.119  -2.611 123.769  0.00  0.00    +0.000 C 
ATOM     13  C   UNL     1      -8.455  -3.817 124.307  0.00  0.00    +0.000 C 
ATOM     14  C   UNL     1      -7.515  -3.115 125.634  0.00  0.00    +0.000 C 
ATOM     15  C   UNL     1      -6.674  -2.425 124.566  0.00  0.00    +0.000 C 
ATOM     16  C   UNL     1      -5.843  -3.691 124.098  0.00  0.00    +0.000 C 
ATOM     17  C   UNL     1      -5.577  -1.432 124.778  0.00  0.00    +0.000 C 
ATOM     18  C   UNL     1      -6.061  -0.129 125.254  0.00  0.00    +0.000 C 
ATOM     19  C   UNL     1      -7.049   0.539 124.297  0.00  0.00    +0.000 C 
ATOM     20  C   UNL     1      -7.101   4.517 124.482  0.00  0.00    +0.000 C 
ENDROOT
BRANCH   1  22
ATOM     21  H   UNL     1      -3.729   6.378 126.244  0.00  0.00    +0.000 HD
ATOM     22  N   UNL     1      -4.340   6.186 127.041  0.00  0.00    +0.000 N 
ATOM     23  C   UNL     1      -3.587   6.528 128.231  0.00  0.00    +0.000 C 
ATOM     24  O   UNL     1      -2.578   7.255 128.088  0.00  0.00    +0.000 OA
BRANCH  23  25
ATOM     25  C   UNL     1      -4.009   6.025 129.698  0.00  0.00    +0.000 C 
BRANCH  25  26
ATOM     26  C   UNL     1      -4.003   4.497 129.741  0.00  0.00    +0.000 A 
ATOM     27  C   UNL     1      -3.217   3.739 128.856  0.00  0.00    +0.000 A 
ATOM     28  C   UNL     1      -3.392   2.362 128.794  0.00  0.00    +0.000 A 
ATOM     29  C   UNL     1      -4.289   1.741 129.662  0.00  0.00    +0.000 A 
ATOM     30  C   UNL     1      -5.076   2.471 130.538  0.00  0.00    +0.000 A 
ATOM     31  C   UNL     1      -4.947   3.845 130.560  0.00  0.00    +0.000 A 
ENDBRANCH  25  26
BRANCH  25  32
ATOM     32  C   UNL     1      -3.064   6.576 130.838  0.00  0.00    +0.000 A 
ATOM     33  C   UNL     1      -1.896   5.890 131.211  0.00  0.00    +0.000 A 
ATOM     34  C   UNL     1      -1.171   6.262 132.357  0.00  0.00    +0.000 A 
ATOM     35  C   UNL     1      -1.521   7.396 133.087  0.00  0.00    +0.000 A 
ATOM     36  C   UNL     1      -2.622   8.143 132.699  0.00  0.00    +0.000 A 
ATOM     37  C   UNL     1      -3.379   7.736 131.595  0.00  0.00    +0.000 A 
ENDBRANCH  25  32
BRANCH  25  38
ATOM     38  O   UNL     1      -5.333   6.508 129.936  0.00  0.00    +0.000 OA
ATOM     39  H   UNL     1      -5.613   6.016 130.730  0.00  0.00    +0.000 HD
ENDBRANCH  25  38
ENDBRANCH  23  25
ENDBRANCH   1  22
BRANCH  14  40
ATOM     40  O   UNL     1      -8.076  -2.167 126.678  0.00  0.00    +0.000 OA
BRANCH  40  41
ATOM     41  C   UNL     1      -7.834  -2.010 128.068  0.00  0.00    +0.000 C 
ATOM     42  O   UNL     1      -7.211  -1.030 128.485  0.00  0.00    +0.000 OA
BRANCH  41  43
ATOM     43  C   UNL     1      -8.287  -3.083 129.097  0.00  0.00    +0.000 C 
BRANCH  43  44
ATOM     44  C   UNL     1      -7.430  -3.261 130.422  0.00  0.00    +0.000 C 
BRANCH  44  45
ATOM     45  C   UNL     1      -6.175  -4.150 130.200  0.00  0.00    +0.000 C 
BRANCH  45  46
ATOM     46  C   UNL     1      -5.316  -4.329 131.463  0.00  0.00    +0.000 C 
BRANCH  46  47
ATOM     47  C   UNL     1      -3.884  -3.823 131.260  0.00  0.00    +0.000 C 
ATOM     48  C   UNL     1      -3.698  -3.252 129.861  0.00  0.00    +0.000 C 
ENDBRANCH  46  47
ENDBRANCH  45  46
ENDBRANCH  44  45
ENDBRANCH  43  44
ENDBRANCH  41  43
ENDBRANCH  40  41
ENDBRANCH  14  40
TORSDOF 12
ENDMDL
MODEL 9
REMARK VINA RESULT:      -9.0      3.481      8.836
REMARK  Name = Testosterone enantate benzilic acid hydrazone
REMARK  15 active torsions:
REMARK  status: ('A' for Active; 'I' for Inactive)
REMARK    1  A    between atoms: N_2  and  N_3
REMARK    2  A    between atoms: C_7  and  C_8
REMARK    3  A    between atoms: C_18  and  O_19
REMARK    4  A    between atoms: O_19  and  C_20
REMARK    5  A    between atoms: C_20  and  C_22
REMARK    6  A    between atoms: C_22  and  C_23
REMARK    7  A    between atoms: C_23  and  C_24
REMARK    8  A    between atoms: C_24  and  C_25
REMARK    9  A    between atoms: C_25  and  C_26
REMARK   10  A    between atoms: C_26  and  C_27
REMARK   11  A    between atoms: C_28  and  C_29
REMARK   12  A    between atoms: C_35  and  C_37
REMARK   13  A    between atoms: C_37  and  O_38
REMARK   14  A    between atoms: C_37  and  C_39
REMARK   15  A    between atoms: C_37  and  C_45
REMARK                            x       y       z     vdW  Elec       q    Type
REMARK                         _______ _______ _______ _____ _____    ______ ____
ROOT
ATOM      1  N   UNL     1      -4.963   4.961 127.354  0.00  0.00    +0.000 NA
ATOM      2  C   UNL     1      -5.878   4.498 126.477  0.00  0.00    +0.000 C 
ATOM      3  C   UNL     1      -6.023   3.109 126.766  0.00  0.00    +0.000 C 
ATOM      4  C   UNL     1      -5.926   2.457 125.396  0.00  0.00    +0.000 C 
ATOM      5  C   UNL     1      -7.265   1.838 125.395  0.00  0.00    +0.000 C 
ATOM      6  C   UNL     1      -8.088   1.512 126.728  0.00  0.00    +0.000 C 
ATOM      7  C   UNL     1      -7.870   3.147 124.812  0.00  0.00    +0.000 C 
ATOM      8  C   UNL     1      -9.213   2.243 124.169  0.00  0.00    +0.000 C 
ATOM      9  C   UNL     1      -9.141   0.555 123.676  0.00  0.00    +0.000 C 
ATOM     10  C   UNL     1      -8.149  -0.324 124.469  0.00  0.00    +0.000 C 
ATOM     11  C   UNL     1      -7.738  -1.702 123.884  0.00  0.00    +0.000 C 
ATOM     12  C   UNL     1      -8.972  -2.624 124.055  0.00  0.00    +0.000 C 
ATOM     13  C   UNL     1      -8.235  -3.841 124.456  0.00  0.00    +0.000 C 
ATOM     14  C   UNL     1      -7.210  -3.198 125.750  0.00  0.00    +0.000 C 
ATOM     15  C   UNL     1      -6.476  -2.413 124.669  0.00  0.00    +0.000 C 
ATOM     16  C   UNL     1      -5.652  -3.617 124.051  0.00  0.00    +0.000 C 
ATOM     17  C   UNL     1      -5.393  -1.401 124.862  0.00  0.00    +0.000 C 
ATOM     18  C   UNL     1      -5.872  -0.149 125.463  0.00  0.00    +0.000 C 
ATOM     19  C   UNL     1      -6.950   0.549 124.634  0.00  0.00    +0.000 C 
ATOM     20  C   UNL     1      -7.093   4.502 125.095  0.00  0.00    +0.000 C 
ENDROOT
BRANCH   1  22
ATOM     21  H   UNL     1      -3.690   6.387 126.693  0.00  0.00    +0.000 HD
ATOM     22  N   UNL     1      -4.181   6.086 127.538  0.00  0.00    +0.000 N 
ATOM     23  C   UNL     1      -3.284   6.337 128.648  0.00  0.00    +0.000 C 
ATOM     24  O   UNL     1      -2.327   7.119 128.453  0.00  0.00    +0.000 OA
BRANCH  23  25
ATOM     25  C   UNL     1      -3.487   5.666 130.095  0.00  0.00    +0.000 C 
BRANCH  25  26
ATOM     26  C   UNL     1      -2.576   6.351 131.114  0.00  0.00    +0.000 A 
ATOM     27  C   UNL     1      -1.510   5.669 131.724  0.00  0.00    +0.000 A 
ATOM     28  C   UNL     1      -0.836   6.262 132.785  0.00  0.00    +0.000 A 
ATOM     29  C   UNL     1      -1.175   7.554 133.181  0.00  0.00    +0.000 A 
ATOM     30  C   UNL     1      -2.227   8.241 132.596  0.00  0.00    +0.000 A 
ATOM     31  C   UNL     1      -2.936   7.631 131.582  0.00  0.00    +0.000 A 
ENDBRANCH  25  26
BRANCH  25  32
ATOM     32  C   UNL     1      -4.979   5.739 130.609  0.00  0.00    +0.000 A 
ATOM     33  C   UNL     1      -5.721   4.572 130.857  0.00  0.00    +0.000 A 
ATOM     34  C   UNL     1      -7.103   4.632 131.110  0.00  0.00    +0.000 A 
ATOM     35  C   UNL     1      -7.753   5.858 131.241  0.00  0.00    +0.000 A 
ATOM     36  C   UNL     1      -7.033   7.031 131.082  0.00  0.00    +0.000 A 
ATOM     37  C   UNL     1      -5.671   6.968 130.769  0.00  0.00    +0.000 A 
ENDBRANCH  25  32
BRANCH  25  38
ATOM     38  O   UNL     1      -3.119   4.290 129.969  0.00  0.00    +0.000 OA
ATOM     39  H   UNL     1      -2.277   4.237 130.458  0.00  0.00    +0.000 HD
ENDBRANCH  25  38
ENDBRANCH  23  25
ENDBRANCH   1  22
BRANCH  14  40
ATOM     40  O   UNL     1      -7.710  -2.340 126.897  0.00  0.00    +0.000 OA
BRANCH  40  41
ATOM     41  C   UNL     1      -8.031  -2.629 128.250  0.00  0.00    +0.000 C 
ATOM     42  O   UNL     1      -8.910  -3.451 128.520  0.00  0.00    +0.000 OA
BRANCH  41  43
ATOM     43  C   UNL     1      -7.336  -1.885 129.425  0.00  0.00    +0.000 C 
BRANCH  43  44
ATOM     44  C   UNL     1      -6.707  -0.456 129.140  0.00  0.00    +0.000 C 
BRANCH  44  45
ATOM     45  C   UNL     1      -7.306   0.647 130.056  0.00  0.00    +0.000 C 
BRANCH  45  46
ATOM     46  C   UNL     1      -7.824   0.114 131.403  0.00  0.00    +0.000 C 
BRANCH  46  47
ATOM     47  C   UNL     1      -9.271   0.540 131.671  0.00  0.00    +0.000 C 
ATOM     48  C   UNL     1      -9.324   1.899 132.357  0.00  0.00    +0.000 C 
ENDBRANCH  46  47
ENDBRANCH  45  46
ENDBRANCH  44  45
ENDBRANCH  43  44
ENDBRANCH  41  43
ENDBRANCH  40  41
ENDBRANCH  14  40
TORSDOF 12
ENDMDL
