MODEL 1
REMARK VINA RESULT:      -7.0      0.000      0.000
REMARK  Name = Tetrabenazine
REMARK  8 active torsions:
REMARK  status: ('A' for Active; 'I' for Inactive)
REMARK    1  A    between atoms: C_1  and  O_2
REMARK    2  A    between atoms: O_2  and  C_3
REMARK    3  A    between atoms: C_4  and  O_5
REMARK    4  A    between atoms: O_5  and  C_6
REMARK    5  A    between atoms: C_13  and  C_14
REMARK    6  A    between atoms: C_14  and  C_15
REMARK    7  A    between atoms: C_15  and  C_16
REMARK    8  A    between atoms: C_15  and  C_17
REMARK                            x       y       z     vdW  Elec       q    Type
REMARK                         _______ _______ _______ _____ _____    ______ ____
ROOT
ATOM      1  C   UNL     1      -3.464   7.187 131.767  0.00  0.00    +0.000 A 
ATOM      2  C   UNL     1      -4.048   7.263 130.496  0.00  0.00    +0.000 A 
ATOM      3  C   UNL     1      -5.358   6.765 130.318  0.00  0.00    +0.000 A 
ATOM      4  C   UNL     1      -6.118   6.223 131.384  0.00  0.00    +0.000 A 
ATOM      5  C   UNL     1      -7.576   5.791 131.158  0.00  0.00    +0.000 C 
ATOM      6  C   UNL     1      -8.383   7.005 130.739  0.00  0.00    +0.000 C 
ATOM      7  C   UNL     1      -9.689   6.417 130.264  0.00  0.00    +0.000 C 
ATOM      8  O   UNL     1      -9.793   5.702 129.293  0.00  0.00    +0.000 OA
ATOM      9  C   UNL     1     -10.710   6.460 131.354  0.00  0.00    +0.000 C 
ATOM     10  C   UNL     1      -9.893   5.218 132.170  0.00  0.00    +0.000 C 
ATOM     11  N   UNL     1      -8.322   5.172 132.307  0.00  0.00    +0.000 NA
ATOM     12  C   UNL     1      -7.804   5.601 133.616  0.00  0.00    +0.000 C 
ATOM     13  C   UNL     1      -6.263   5.584 133.802  0.00  0.00    +0.000 C 
ATOM     14  C   UNL     1      -5.515   6.163 132.639  0.00  0.00    +0.000 A 
ATOM     15  C   UNL     1      -4.200   6.633 132.821  0.00  0.00    +0.000 A 
ENDROOT
BRANCH   1  17
ATOM     16  C   UNL     1      -1.131   6.885 132.008  0.00  0.00    +0.000 C 
ATOM     17  O   UNL     1      -2.247   7.769 132.011  0.00  0.00    +0.000 OA
ENDBRANCH   1  17
BRANCH   2  18
ATOM     18  O   UNL     1      -3.492   7.789 129.352  0.00  0.00    +0.000 OA
ATOM     19  C   UNL     1      -2.802   6.892 128.487  0.00  0.00    +0.000 C 
ENDBRANCH   2  18
BRANCH   9  20
ATOM     20  C   UNL     1     -12.200   6.300 130.748  0.00  0.00    +0.000 C 
BRANCH  20  21
ATOM     21  C   UNL     1     -13.014   7.423 129.896  0.00  0.00    +0.000 C 
ATOM     22  C   UNL     1     -12.330   8.779 129.594  0.00  0.00    +0.000 C 
ATOM     23  C   UNL     1     -13.331   6.832 128.486  0.00  0.00    +0.000 C 
ENDBRANCH  20  21
ENDBRANCH   9  20
TORSDOF 4
ENDMDL
MODEL 2
REMARK VINA RESULT:      -6.8      8.499     10.361
REMARK  Name = Tetrabenazine
REMARK  8 active torsions:
REMARK  status: ('A' for Active; 'I' for Inactive)
REMARK    1  A    between atoms: C_1  and  O_2
REMARK    2  A    between atoms: O_2  and  C_3
REMARK    3  A    between atoms: C_4  and  O_5
REMARK    4  A    between atoms: O_5  and  C_6
REMARK    5  A    between atoms: C_13  and  C_14
REMARK    6  A    between atoms: C_14  and  C_15
REMARK    7  A    between atoms: C_15  and  C_16
REMARK    8  A    between atoms: C_15  and  C_17
REMARK                            x       y       z     vdW  Elec       q    Type
REMARK                         _______ _______ _______ _____ _____    ______ ____
ROOT
ATOM      1  C   UNL     1      -7.682   3.557 121.193  0.00  0.00    +0.000 A 
ATOM      2  C   UNL     1      -6.416   3.380 121.763  0.00  0.00    +0.000 A 
ATOM      3  C   UNL     1      -6.317   2.729 123.013  0.00  0.00    +0.000 A 
ATOM      4  C   UNL     1      -7.447   2.216 123.696  0.00  0.00    +0.000 A 
ATOM      5  C   UNL     1      -7.273   1.426 125.003  0.00  0.00    +0.000 C 
ATOM      6  C   UNL     1      -6.450   0.185 124.714  0.00  0.00    +0.000 C 
ATOM      7  C   UNL     1      -6.097  -0.336 126.086  0.00  0.00    +0.000 C 
ATOM      8  O   UNL     1      -5.389   0.256 126.870  0.00  0.00    +0.000 OA
ATOM      9  C   UNL     1      -7.053  -1.405 126.502  0.00  0.00    +0.000 C 
ATOM     10  C   UNL     1      -8.263  -0.238 126.728  0.00  0.00    +0.000 C 
ATOM     11  N   UNL     1      -8.507   0.949 125.718  0.00  0.00    +0.000 NA
ATOM     12  C   UNL     1      -9.650   0.761 124.810  0.00  0.00    +0.000 C 
ATOM     13  C   UNL     1      -9.930   1.896 123.788  0.00  0.00    +0.000 C 
ATOM     14  C   UNL     1      -8.695   2.401 123.105  0.00  0.00    +0.000 A 
ATOM     15  C   UNL     1      -8.806   3.072 121.871  0.00  0.00    +0.000 A 
ENDROOT
BRANCH   1  17
ATOM     16  C   UNL     1      -9.147   4.176 119.443  0.00  0.00    +0.000 C 
ATOM     17  O   UNL     1      -7.813   4.069 119.928  0.00  0.00    +0.000 OA
ENDBRANCH   1  17
BRANCH   2  18
ATOM     18  O   UNL     1      -5.203   3.767 121.240  0.00  0.00    +0.000 OA
ATOM     19  C   UNL     1      -4.508   4.817 121.905  0.00  0.00    +0.000 C 
ENDBRANCH   2  18
BRANCH   9  20
ATOM     20  C   UNL     1      -6.432  -2.290 127.704  0.00  0.00    +0.000 C 
BRANCH  20  21
ATOM     21  C   UNL     1      -7.264  -2.953 128.935  0.00  0.00    +0.000 C 
ATOM     22  C   UNL     1      -7.870  -2.026 130.017  0.00  0.00    +0.000 C 
ATOM     23  C   UNL     1      -8.497  -3.707 128.343  0.00  0.00    +0.000 C 
ENDBRANCH  20  21
ENDBRANCH   9  20
TORSDOF 4
ENDMDL
MODEL 3
REMARK VINA RESULT:      -6.7      8.416     10.335
REMARK  Name = Tetrabenazine
REMARK  8 active torsions:
REMARK  status: ('A' for Active; 'I' for Inactive)
REMARK    1  A    between atoms: C_1  and  O_2
REMARK    2  A    between atoms: O_2  and  C_3
REMARK    3  A    between atoms: C_4  and  O_5
REMARK    4  A    between atoms: O_5  and  C_6
REMARK    5  A    between atoms: C_13  and  C_14
REMARK    6  A    between atoms: C_14  and  C_15
REMARK    7  A    between atoms: C_15  and  C_16
REMARK    8  A    between atoms: C_15  and  C_17
REMARK                            x       y       z     vdW  Elec       q    Type
REMARK                         _______ _______ _______ _____ _____    ______ ____
ROOT
ATOM      1  C   UNL     1      -8.342  -2.252 127.196  0.00  0.00    +0.000 A 
ATOM      2  C   UNL     1      -9.022  -2.017 125.995  0.00  0.00    +0.000 A 
ATOM      3  C   UNL     1      -8.872  -0.763 125.362  0.00  0.00    +0.000 A 
ATOM      4  C   UNL     1      -8.031   0.255 125.877  0.00  0.00    +0.000 A 
ATOM      5  C   UNL     1      -7.823   1.561 125.095  0.00  0.00    +0.000 C 
ATOM      6  C   UNL     1      -7.188   1.232 123.758  0.00  0.00    +0.000 C 
ATOM      7  C   UNL     1      -7.310   2.518 122.979  0.00  0.00    +0.000 C 
ATOM      8  O   UNL     1      -8.366   3.004 122.640  0.00  0.00    +0.000 OA
ATOM      9  C   UNL     1      -6.045   3.308 123.071  0.00  0.00    +0.000 C 
ATOM     10  C   UNL     1      -6.398   3.689 124.685  0.00  0.00    +0.000 C 
ATOM     11  N   UNL     1      -6.964   2.632 125.710  0.00  0.00    +0.000 NA
ATOM     12  C   UNL     1      -5.970   2.089 126.650  0.00  0.00    +0.000 C 
ATOM     13  C   UNL     1      -6.472   1.037 127.675  0.00  0.00    +0.000 C 
ATOM     14  C   UNL     1      -7.362  -0.007 127.071  0.00  0.00    +0.000 A 
ATOM     15  C   UNL     1      -7.525  -1.245 127.723  0.00  0.00    +0.000 A 
ENDROOT
BRANCH   1  17
ATOM     16  C   UNL     1      -7.794  -3.571 129.080  0.00  0.00    +0.000 C 
ATOM     17  O   UNL     1      -8.360  -3.494 127.776  0.00  0.00    +0.000 OA
ENDBRANCH   1  17
BRANCH   2  18
ATOM     18  O   UNL     1      -9.846  -2.887 125.317  0.00  0.00    +0.000 OA
ATOM     19  C   UNL     1      -9.390  -3.374 124.059  0.00  0.00    +0.000 C 
ENDBRANCH   2  18
BRANCH   9  20
ATOM     20  C   UNL     1      -5.972   4.409 121.890  0.00  0.00    +0.000 C 
BRANCH  20  21
ATOM     21  C   UNL     1      -6.109   4.115 120.295  0.00  0.00    +0.000 C 
ATOM     22  C   UNL     1      -7.513   4.143 119.644  0.00  0.00    +0.000 C 
ATOM     23  C   UNL     1      -5.308   5.212 119.525  0.00  0.00    +0.000 C 
ENDBRANCH  20  21
ENDBRANCH   9  20
TORSDOF 4
ENDMDL
MODEL 4
REMARK VINA RESULT:      -6.6      2.425      7.144
REMARK  Name = Tetrabenazine
REMARK  8 active torsions:
REMARK  status: ('A' for Active; 'I' for Inactive)
REMARK    1  A    between atoms: C_1  and  O_2
REMARK    2  A    between atoms: O_2  and  C_3
REMARK    3  A    between atoms: C_4  and  O_5
REMARK    4  A    between atoms: O_5  and  C_6
REMARK    5  A    between atoms: C_13  and  C_14
REMARK    6  A    between atoms: C_14  and  C_15
REMARK    7  A    between atoms: C_15  and  C_16
REMARK    8  A    between atoms: C_15  and  C_17
REMARK                            x       y       z     vdW  Elec       q    Type
REMARK                         _______ _______ _______ _____ _____    ______ ____
ROOT
ATOM      1  C   UNL     1     -11.005   6.514 131.487  0.00  0.00    +0.000 A 
ATOM      2  C   UNL     1     -10.521   6.802 130.205  0.00  0.00    +0.000 A 
ATOM      3  C   UNL     1      -9.139   6.661 129.952  0.00  0.00    +0.000 A 
ATOM      4  C   UNL     1      -8.226   6.205 130.936  0.00  0.00    +0.000 A 
ATOM      5  C   UNL     1      -6.750   5.970 130.578  0.00  0.00    +0.000 C 
ATOM      6  C   UNL     1      -6.674   4.895 129.511  0.00  0.00    +0.000 C 
ATOM      7  C   UNL     1      -5.243   4.966 129.035  0.00  0.00    +0.000 C 
ATOM      8  O   UNL     1      -4.770   5.921 128.462  0.00  0.00    +0.000 OA
ATOM      9  C   UNL     1      -4.409   3.942 129.733  0.00  0.00    +0.000 C 
ATOM     10  C   UNL     1      -4.485   4.850 131.162  0.00  0.00    +0.000 C 
ATOM     11  N   UNL     1      -5.812   5.538 131.670  0.00  0.00    +0.000 NA
ATOM     12  C   UNL     1      -6.500   4.823 132.758  0.00  0.00    +0.000 C 
ATOM     13  C   UNL     1      -7.816   5.452 133.290  0.00  0.00    +0.000 C 
ATOM     14  C   UNL     1      -8.734   5.921 132.202  0.00  0.00    +0.000 A 
ATOM     15  C   UNL     1     -10.108   6.083 132.471  0.00  0.00    +0.000 A 
ENDROOT
BRANCH   1  17
ATOM     16  C   UNL     1     -12.994   7.784 131.635  0.00  0.00    +0.000 C 
ATOM     17  O   UNL     1     -12.352   6.517 131.742  0.00  0.00    +0.000 OA
ENDBRANCH   1  17
BRANCH   2  18
ATOM     18  O   UNL     1     -11.247   7.214 129.111  0.00  0.00    +0.000 OA
ATOM     19  C   UNL     1     -10.812   8.394 128.443  0.00  0.00    +0.000 C 
ENDBRANCH   2  18
BRANCH   9  20
ATOM     20  C   UNL     1      -3.038   3.672 128.920  0.00  0.00    +0.000 C 
BRANCH  20  21
ATOM     21  C   UNL     1      -2.897   3.503 127.308  0.00  0.00    +0.000 C 
ATOM     22  C   UNL     1      -1.564   2.977 126.721  0.00  0.00    +0.000 C 
ATOM     23  C   UNL     1      -3.962   2.466 126.829  0.00  0.00    +0.000 C 
ENDBRANCH  20  21
ENDBRANCH   9  20
TORSDOF 4
ENDMDL
MODEL 5
REMARK VINA RESULT:      -6.6      8.490     10.629
REMARK  Name = Tetrabenazine
REMARK  8 active torsions:
REMARK  status: ('A' for Active; 'I' for Inactive)
REMARK    1  A    between atoms: C_1  and  O_2
REMARK    2  A    between atoms: O_2  and  C_3
REMARK    3  A    between atoms: C_4  and  O_5
REMARK    4  A    between atoms: O_5  and  C_6
REMARK    5  A    between atoms: C_13  and  C_14
REMARK    6  A    between atoms: C_14  and  C_15
REMARK    7  A    between atoms: C_15  and  C_16
REMARK    8  A    between atoms: C_15  and  C_17
REMARK                            x       y       z     vdW  Elec       q    Type
REMARK                         _______ _______ _______ _____ _____    ______ ____
ROOT
ATOM      1  C   UNL     1      -8.901   2.335 123.370  0.00  0.00    +0.000 A 
ATOM      2  C   UNL     1      -8.787   2.767 124.697  0.00  0.00    +0.000 A 
ATOM      3  C   UNL     1      -8.753   1.800 125.727  0.00  0.00    +0.000 A 
ATOM      4  C   UNL     1      -8.794   0.408 125.466  0.00  0.00    +0.000 A 
ATOM      5  C   UNL     1      -8.649  -0.602 126.616  0.00  0.00    +0.000 C 
ATOM      6  C   UNL     1      -7.291  -0.411 127.262  0.00  0.00    +0.000 C 
ATOM      7  C   UNL     1      -7.382  -1.224 128.531  0.00  0.00    +0.000 C 
ATOM      8  O   UNL     1      -8.132  -0.965 129.445  0.00  0.00    +0.000 OA
ATOM      9  C   UNL     1      -6.786  -2.579 128.329  0.00  0.00    +0.000 C 
ATOM     10  C   UNL     1      -8.116  -3.024 127.375  0.00  0.00    +0.000 C 
ATOM     11  N   UNL     1      -8.753  -2.068 126.294  0.00  0.00    +0.000 NA
ATOM     12  C   UNL     1      -8.376  -2.371 124.904  0.00  0.00    +0.000 C 
ATOM     13  C   UNL     1      -8.969  -1.454 123.800  0.00  0.00    +0.000 C 
ATOM     14  C   UNL     1      -8.903   0.005 124.137  0.00  0.00    +0.000 A 
ATOM     15  C   UNL     1      -8.964   0.962 123.105  0.00  0.00    +0.000 A 
ENDROOT
BRANCH   1  17
ATOM     16  C   UNL     1      -7.522   3.365 121.749  0.00  0.00    +0.000 C 
ATOM     17  O   UNL     1      -8.813   3.230 122.335  0.00  0.00    +0.000 OA
ENDBRANCH   1  17
BRANCH   2  18
ATOM     18  O   UNL     1      -8.692   4.064 125.148  0.00  0.00    +0.000 OA
ATOM     19  C   UNL     1      -7.395   4.545 125.487  0.00  0.00    +0.000 C 
ENDBRANCH   2  18
BRANCH   9  20
ATOM     20  C   UNL     1      -6.436  -3.267 129.749  0.00  0.00    +0.000 C 
BRANCH  20  21
ATOM     21  C   UNL     1      -5.101  -4.130 130.092  0.00  0.00    +0.000 C 
ATOM     22  C   UNL     1      -3.764  -3.385 130.326  0.00  0.00    +0.000 C 
ATOM     23  C   UNL     1      -5.347  -4.902 131.427  0.00  0.00    +0.000 C 
ENDBRANCH  20  21
ENDBRANCH   9  20
TORSDOF 4
ENDMDL
MODEL 6
REMARK VINA RESULT:      -6.5      8.602     10.845
REMARK  Name = Tetrabenazine
REMARK  8 active torsions:
REMARK  status: ('A' for Active; 'I' for Inactive)
REMARK    1  A    between atoms: C_1  and  O_2
REMARK    2  A    between atoms: O_2  and  C_3
REMARK    3  A    between atoms: C_4  and  O_5
REMARK    4  A    between atoms: O_5  and  C_6
REMARK    5  A    between atoms: C_13  and  C_14
REMARK    6  A    between atoms: C_14  and  C_15
REMARK    7  A    between atoms: C_15  and  C_16
REMARK    8  A    between atoms: C_15  and  C_17
REMARK                            x       y       z     vdW  Elec       q    Type
REMARK                         _______ _______ _______ _____ _____    ______ ____
ROOT
ATOM      1  C   UNL     1      -9.309  -0.017 125.559  0.00  0.00    +0.000 A 
ATOM      2  C   UNL     1      -9.086  -1.399 125.580  0.00  0.00    +0.000 A 
ATOM      3  C   UNL     1      -8.286  -1.944 126.608  0.00  0.00    +0.000 A 
ATOM      4  C   UNL     1      -7.728  -1.150 127.641  0.00  0.00    +0.000 A 
ATOM      5  C   UNL     1      -6.951  -1.807 128.793  0.00  0.00    +0.000 C 
ATOM      6  C   UNL     1      -7.885  -2.740 129.539  0.00  0.00    +0.000 C 
ATOM      7  C   UNL     1      -6.960  -3.534 130.429  0.00  0.00    +0.000 C 
ATOM      8  O   UNL     1      -6.120  -4.301 130.015  0.00  0.00    +0.000 OA
ATOM      9  C   UNL     1      -6.911  -2.938 131.798  0.00  0.00    +0.000 C 
ATOM     10  C   UNL     1      -6.003  -1.636 131.200  0.00  0.00    +0.000 C 
ATOM     11  N   UNL     1      -6.332  -0.917 129.835  0.00  0.00    +0.000 NA
ATOM     12  C   UNL     1      -7.034   0.370 129.968  0.00  0.00    +0.000 C 
ATOM     13  C   UNL     1      -7.391   1.116 128.654  0.00  0.00    +0.000 C 
ATOM     14  C   UNL     1      -7.969   0.222 127.600  0.00  0.00    +0.000 A 
ATOM     15  C   UNL     1      -8.745   0.778 126.563  0.00  0.00    +0.000 A 
ENDROOT
BRANCH   1  17
ATOM     16  C   UNL     1      -9.577   1.269 123.593  0.00  0.00    +0.000 C 
ATOM     17  O   UNL     1     -10.179   0.536 124.655  0.00  0.00    +0.000 OA
ENDBRANCH   1  17
BRANCH   2  18
ATOM     18  O   UNL     1      -9.572  -2.337 124.697  0.00  0.00    +0.000 OA
ATOM     19  C   UNL     1      -8.747  -2.680 123.587  0.00  0.00    +0.000 C 
ENDBRANCH   2  18
BRANCH   9  20
ATOM     20  C   UNL     1      -6.340  -4.007 132.867  0.00  0.00    +0.000 C 
BRANCH  20  21
ATOM     21  C   UNL     1      -6.862  -4.207 134.395  0.00  0.00    +0.000 C 
ATOM     22  C   UNL     1      -8.374  -4.063 134.697  0.00  0.00    +0.000 C 
ATOM     23  C   UNL     1      -6.519  -5.663 134.843  0.00  0.00    +0.000 C 
ENDBRANCH  20  21
ENDBRANCH   9  20
TORSDOF 4
ENDMDL
MODEL 7
REMARK VINA RESULT:      -6.3      4.237      4.978
REMARK  Name = Tetrabenazine
REMARK  8 active torsions:
REMARK  status: ('A' for Active; 'I' for Inactive)
REMARK    1  A    between atoms: C_1  and  O_2
REMARK    2  A    between atoms: O_2  and  C_3
REMARK    3  A    between atoms: C_4  and  O_5
REMARK    4  A    between atoms: O_5  and  C_6
REMARK    5  A    between atoms: C_13  and  C_14
REMARK    6  A    between atoms: C_14  and  C_15
REMARK    7  A    between atoms: C_15  and  C_16
REMARK    8  A    between atoms: C_15  and  C_17
REMARK                            x       y       z     vdW  Elec       q    Type
REMARK                         _______ _______ _______ _____ _____    ______ ____
ROOT
ATOM      1  C   UNL     1      -6.179   1.023 133.492  0.00  0.00    +0.000 A 
ATOM      2  C   UNL     1      -7.016   0.647 132.433  0.00  0.00    +0.000 A 
ATOM      3  C   UNL     1      -8.089   1.494 132.080  0.00  0.00    +0.000 A 
ATOM      4  C   UNL     1      -8.333   2.728 132.733  0.00  0.00    +0.000 A 
ATOM      5  C   UNL     1      -9.452   3.660 132.242  0.00  0.00    +0.000 C 
ATOM      6  C   UNL     1      -9.146   4.077 130.817  0.00  0.00    +0.000 C 
ATOM      7  C   UNL     1     -10.428   4.723 130.351  0.00  0.00    +0.000 C 
ATOM      8  O   UNL     1     -11.473   4.127 130.217  0.00  0.00    +0.000 OA
ATOM      9  C   UNL     1     -10.353   6.207 130.507  0.00  0.00    +0.000 C 
ATOM     10  C   UNL     1     -10.483   6.038 132.189  0.00  0.00    +0.000 C 
ATOM     11  N   UNL     1      -9.705   4.932 133.002  0.00  0.00    +0.000 NA
ATOM     12  C   UNL     1      -8.509   5.415 133.713  0.00  0.00    +0.000 C 
ATOM     13  C   UNL     1      -7.701   4.365 134.521  0.00  0.00    +0.000 C 
ATOM     14  C   UNL     1      -7.483   3.081 133.780  0.00  0.00    +0.000 A 
ATOM     15  C   UNL     1      -6.425   2.230 134.156  0.00  0.00    +0.000 A 
ENDROOT
BRANCH   1  17
ATOM     16  C   UNL     1      -3.879   0.669 133.075  0.00  0.00    +0.000 C 
ATOM     17  O   UNL     1      -5.055   0.295 133.785  0.00  0.00    +0.000 OA
ENDBRANCH   1  17
BRANCH   2  18
ATOM     18  O   UNL     1      -6.919  -0.483 131.654  0.00  0.00    +0.000 OA
ATOM     19  C   UNL     1      -7.471  -1.688 132.176  0.00  0.00    +0.000 C 
ENDBRANCH   2  18
BRANCH   9  20
ATOM     20  C   UNL     1     -11.472   6.934 129.594  0.00  0.00    +0.000 C 
BRANCH  20  21
ATOM     21  C   UNL     1     -11.243   8.250 128.665  0.00  0.00    +0.000 C 
ATOM     22  C   UNL     1     -10.837   8.062 127.183  0.00  0.00    +0.000 C 
ATOM     23  C   UNL     1     -12.588   9.040 128.597  0.00  0.00    +0.000 C 
ENDBRANCH  20  21
ENDBRANCH   9  20
TORSDOF 4
ENDMDL
MODEL 8
REMARK VINA RESULT:      -6.3      7.194      9.967
REMARK  Name = Tetrabenazine
REMARK  8 active torsions:
REMARK  status: ('A' for Active; 'I' for Inactive)
REMARK    1  A    between atoms: C_1  and  O_2
REMARK    2  A    between atoms: O_2  and  C_3
REMARK    3  A    between atoms: C_4  and  O_5
REMARK    4  A    between atoms: O_5  and  C_6
REMARK    5  A    between atoms: C_13  and  C_14
REMARK    6  A    between atoms: C_14  and  C_15
REMARK    7  A    between atoms: C_15  and  C_16
REMARK    8  A    between atoms: C_15  and  C_17
REMARK                            x       y       z     vdW  Elec       q    Type
REMARK                         _______ _______ _______ _____ _____    ______ ____
ROOT
ATOM      1  C   UNL     1      -8.503  -1.217 124.520  0.00  0.00    +0.000 A 
ATOM      2  C   UNL     1      -7.131  -1.335 124.775  0.00  0.00    +0.000 A 
ATOM      3  C   UNL     1      -6.359  -0.160 124.904  0.00  0.00    +0.000 A 
ATOM      4  C   UNL     1      -6.925   1.136 124.820  0.00  0.00    +0.000 A 
ATOM      5  C   UNL     1      -6.058   2.381 125.071  0.00  0.00    +0.000 C 
ATOM      6  C   UNL     1      -5.528   2.326 126.490  0.00  0.00    +0.000 C 
ATOM      7  C   UNL     1      -4.476   3.408 126.520  0.00  0.00    +0.000 C 
ATOM      8  O   UNL     1      -3.455   3.373 125.872  0.00  0.00    +0.000 OA
ATOM      9  C   UNL     1      -5.042   4.673 127.077  0.00  0.00    +0.000 C 
ATOM     10  C   UNL     1      -5.930   4.905 125.651  0.00  0.00    +0.000 C 
ATOM     11  N   UNL     1      -6.693   3.735 124.917  0.00  0.00    +0.000 NA
ATOM     12  C   UNL     1      -8.147   3.708 125.145  0.00  0.00    +0.000 C 
ATOM     13  C   UNL     1      -8.946   2.571 124.453  0.00  0.00    +0.000 C 
ATOM     14  C   UNL     1      -8.293   1.227 124.570  0.00  0.00    +0.000 A 
ATOM     15  C   UNL     1      -9.067   0.060 124.415  0.00  0.00    +0.000 A 
ENDROOT
BRANCH   1  17
ATOM     16  C   UNL     1      -9.575  -2.901 125.787  0.00  0.00    +0.000 C 
ATOM     17  O   UNL     1      -9.310  -2.325 124.512  0.00  0.00    +0.000 OA
ENDBRANCH   1  17
BRANCH   2  18
ATOM     18  O   UNL     1      -6.408  -2.496 124.932  0.00  0.00    +0.000 OA
ATOM     19  C   UNL     1      -5.412  -2.783 123.955  0.00  0.00    +0.000 C 
ENDBRANCH   2  18
BRANCH   9  20
ATOM     20  C   UNL     1      -3.861   5.663 127.563  0.00  0.00    +0.000 C 
BRANCH  20  21
ATOM     21  C   UNL     1      -2.698   5.308 128.644  0.00  0.00    +0.000 C 
ATOM     22  C   UNL     1      -1.998   6.464 129.400  0.00  0.00    +0.000 C 
ATOM     23  C   UNL     1      -3.331   4.439 129.776  0.00  0.00    +0.000 C 
ENDBRANCH  20  21
ENDBRANCH   9  20
TORSDOF 4
ENDMDL
MODEL 9
REMARK VINA RESULT:      -6.1      6.850      9.706
REMARK  Name = Tetrabenazine
REMARK  8 active torsions:
REMARK  status: ('A' for Active; 'I' for Inactive)
REMARK    1  A    between atoms: C_1  and  O_2
REMARK    2  A    between atoms: O_2  and  C_3
REMARK    3  A    between atoms: C_4  and  O_5
REMARK    4  A    between atoms: O_5  and  C_6
REMARK    5  A    between atoms: C_13  and  C_14
REMARK    6  A    between atoms: C_14  and  C_15
REMARK    7  A    between atoms: C_15  and  C_16
REMARK    8  A    between atoms: C_15  and  C_17
REMARK                            x       y       z     vdW  Elec       q    Type
REMARK                         _______ _______ _______ _____ _____    ______ ____
ROOT
ATOM      1  C   UNL     1      -9.112  -1.686 125.694  0.00  0.00    +0.000 A 
ATOM      2  C   UNL     1      -9.168  -0.351 125.277  0.00  0.00    +0.000 A 
ATOM      3  C   UNL     1      -8.366   0.604 125.940  0.00  0.00    +0.000 A 
ATOM      4  C   UNL     1      -7.479   0.257 126.990  0.00  0.00    +0.000 A 
ATOM      5  C   UNL     1      -6.553   1.317 127.608  0.00  0.00    +0.000 C 
ATOM      6  C   UNL     1      -5.625   1.839 126.529  0.00  0.00    +0.000 C 
ATOM      7  C   UNL     1      -4.990   3.054 127.162  0.00  0.00    +0.000 C 
ATOM      8  O   UNL     1      -5.603   4.052 127.468  0.00  0.00    +0.000 OA
ATOM      9  C   UNL     1      -3.661   2.705 127.748  0.00  0.00    +0.000 C 
ATOM     10  C   UNL     1      -4.433   1.858 128.998  0.00  0.00    +0.000 C 
ATOM     11  N   UNL     1      -5.670   0.910 128.755  0.00  0.00    +0.000 NA
ATOM     12  C   UNL     1      -5.354  -0.527 128.744  0.00  0.00    +0.000 C 
ATOM     13  C   UNL     1      -6.535  -1.505 128.499  0.00  0.00    +0.000 C 
ATOM     14  C   UNL     1      -7.439  -1.079 127.383  0.00  0.00    +0.000 A 
ATOM     15  C   UNL     1      -8.255  -2.034 126.744  0.00  0.00    +0.000 A 
ENDROOT
BRANCH   1  17
ATOM     16  C   UNL     1      -9.072  -3.216 123.891  0.00  0.00    +0.000 C 
ATOM     17  O   UNL     1      -9.776  -2.663 124.999  0.00  0.00    +0.000 OA
ENDBRANCH   1  17
BRANCH   2  18
ATOM     18  O   UNL     1      -9.928   0.174 124.256  0.00  0.00    +0.000 OA
ATOM     19  C   UNL     1      -9.436   1.343 123.608  0.00  0.00    +0.000 C 
ENDBRANCH   2  18
BRANCH   9  20
ATOM     20  C   UNL     1      -2.775   4.035 127.985  0.00  0.00    +0.000 C 
BRANCH  20  21
ATOM     21  C   UNL     1      -3.061   5.192 129.092  0.00  0.00    +0.000 C 
ATOM     22  C   UNL     1      -2.787   4.888 130.586  0.00  0.00    +0.000 C 
ATOM     23  C   UNL     1      -2.138   6.411 128.775  0.00  0.00    +0.000 C 
ENDBRANCH  20  21
ENDBRANCH   9  20
TORSDOF 4
ENDMDL
