MODEL 1
REMARK VINA RESULT:      -6.2      0.000      0.000
REMARK  Name = Tetradecyl hydrogen sulfate (ester)
REMARK  16 active torsions:
REMARK  status: ('A' for Active; 'I' for Inactive)
REMARK    1  A    between atoms: C_1  and  C_2
REMARK    2  A    between atoms: C_2  and  C_3
REMARK    3  A    between atoms: C_3  and  C_4
REMARK    4  A    between atoms: C_4  and  C_5
REMARK    5  A    between atoms: C_5  and  C_6
REMARK    6  A    between atoms: C_5  and  C_8
REMARK    7  A    between atoms: C_6  and  C_7
REMARK    8  A    between atoms: C_8  and  C_9
REMARK    9  A    between atoms: C_9  and  C_10
REMARK   10  A    between atoms: C_10  and  C_11
REMARK   11  A    between atoms: C_10  and  O_15
REMARK   12  A    between atoms: C_11  and  C_12
REMARK   13  A    between atoms: C_12  and  C_13
REMARK   14  A    between atoms: C_12  and  C_14
REMARK   15  A    between atoms: O_15  and  S_16
REMARK   16  A    between atoms: S_16  and  O_17
REMARK                            x       y       z     vdW  Elec       q    Type
REMARK                         _______ _______ _______ _____ _____    ______ ____
ROOT
ATOM      1  C   UNL     1      -6.991   2.893 124.064  0.00  0.00    +0.000 C 
ENDROOT
BRANCH   1   2
ATOM      2  C   UNL     1      -6.799   1.472 124.614  0.00  0.00    +0.000 C 
BRANCH   2   3
ATOM      3  C   UNL     1      -7.580   0.439 123.755  0.00  0.00    +0.000 C 
BRANCH   3   4
ATOM      4  C   UNL     1      -6.676  -0.760 123.318  0.00  0.00    +0.000 C 
BRANCH   4   5
ATOM      5  C   UNL     1      -7.709  -1.648 122.655  0.00  0.00    +0.000 C 
ATOM      6  C   UNL     1      -9.106  -1.606 123.184  0.00  0.00    +0.000 C 
ENDBRANCH   4   5
BRANCH   4   7
ATOM      7  C   UNL     1      -5.881  -1.384 124.505  0.00  0.00    +0.000 C 
BRANCH   7   8
ATOM      8  C   UNL     1      -5.651  -2.880 124.376  0.00  0.00    +0.000 C 
BRANCH   8  10
ATOM      9  C   UNL     1      -4.377  -4.814 123.574  0.00  0.00    +0.000 C 
ATOM     10  C   UNL     1      -4.507  -3.295 123.487  0.00  0.00    +0.000 C 
ENDBRANCH   8  10
ENDBRANCH   7   8
ENDBRANCH   4   7
ENDBRANCH   3   4
ENDBRANCH   2   3
ENDBRANCH   1   2
BRANCH   1  11
ATOM     11  C   UNL     1      -7.293   2.908 122.546  0.00  0.00    +0.000 C 
BRANCH  11  12
ATOM     12  C   UNL     1      -6.168   3.262 121.585  0.00  0.00    +0.000 C 
ATOM     13  C   UNL     1      -6.634   3.975 120.320  0.00  0.00    +0.000 C 
ATOM     14  C   UNL     1      -5.224   4.292 122.152  0.00  0.00    +0.000 C 
ENDBRANCH  11  12
ENDBRANCH   1  11
BRANCH   1  15
ATOM     15  O   UNL     1      -8.058   3.549 124.757  0.00  0.00    +0.000 OA
BRANCH  15  16
ATOM     16  S   UNL     1      -7.754   4.804 125.768  0.00  0.00    +0.000 S 
ATOM     17  O   UNL     1      -8.973   5.593 125.931  0.00  0.00    +0.000 OA
ATOM     18  O   UNL     1      -7.057   4.323 126.918  0.00  0.00    +0.000 OA
BRANCH  16  19
ATOM     19  O   UNL     1      -6.735   5.722 124.912  0.00  0.00    +0.000 OA
ATOM     20  H   UNL     1      -5.946   5.220 124.638  0.00  0.00    +0.000 HD
ENDBRANCH  16  19
ENDBRANCH  15  16
ENDBRANCH   1  15
TORSDOF 12
ENDMDL
MODEL 2
REMARK VINA RESULT:      -6.1      2.879      4.708
REMARK  Name = Tetradecyl hydrogen sulfate (ester)
REMARK  16 active torsions:
REMARK  status: ('A' for Active; 'I' for Inactive)
REMARK    1  A    between atoms: C_1  and  C_2
REMARK    2  A    between atoms: C_2  and  C_3
REMARK    3  A    between atoms: C_3  and  C_4
REMARK    4  A    between atoms: C_4  and  C_5
REMARK    5  A    between atoms: C_5  and  C_6
REMARK    6  A    between atoms: C_5  and  C_8
REMARK    7  A    between atoms: C_6  and  C_7
REMARK    8  A    between atoms: C_8  and  C_9
REMARK    9  A    between atoms: C_9  and  C_10
REMARK   10  A    between atoms: C_10  and  C_11
REMARK   11  A    between atoms: C_10  and  O_15
REMARK   12  A    between atoms: C_11  and  C_12
REMARK   13  A    between atoms: C_12  and  C_13
REMARK   14  A    between atoms: C_12  and  C_14
REMARK   15  A    between atoms: O_15  and  S_16
REMARK   16  A    between atoms: S_16  and  O_17
REMARK                            x       y       z     vdW  Elec       q    Type
REMARK                         _______ _______ _______ _____ _____    ______ ____
ROOT
ATOM      1  C   UNL     1      -7.522   0.103 124.406  0.00  0.00    +0.000 C 
ENDROOT
BRANCH   1   2
ATOM      2  C   UNL     1      -6.675  -0.897 123.606  0.00  0.00    +0.000 C 
BRANCH   2   3
ATOM      3  C   UNL     1      -5.587  -1.543 124.509  0.00  0.00    +0.000 C 
BRANCH   3   4
ATOM      4  C   UNL     1      -5.688  -3.104 124.519  0.00  0.00    +0.000 C 
BRANCH   4   5
ATOM      5  C   UNL     1      -4.503  -3.454 123.641  0.00  0.00    +0.000 C 
ATOM      6  C   UNL     1      -4.183  -4.901 123.448  0.00  0.00    +0.000 C 
ENDBRANCH   4   5
BRANCH   4   7
ATOM      7  C   UNL     1      -7.079  -3.625 124.049  0.00  0.00    +0.000 C 
BRANCH   7   8
ATOM      8  C   UNL     1      -8.105  -3.738 125.164  0.00  0.00    +0.000 C 
BRANCH   8  10
ATOM      9  C   UNL     1      -9.655  -3.187 123.348  0.00  0.00    +0.000 C 
ATOM     10  C   UNL     1      -9.469  -3.173 124.863  0.00  0.00    +0.000 C 
ENDBRANCH   8  10
ENDBRANCH   7   8
ENDBRANCH   4   7
ENDBRANCH   3   4
ENDBRANCH   2   3
ENDBRANCH   1   2
BRANCH   1  11
ATOM     11  C   UNL     1      -7.071   0.219 125.882  0.00  0.00    +0.000 C 
BRANCH  11  12
ATOM     12  C   UNL     1      -8.090  -0.064 126.976  0.00  0.00    +0.000 C 
ATOM     13  C   UNL     1      -7.705  -1.216 127.900  0.00  0.00    +0.000 C 
ATOM     14  C   UNL     1      -8.201   1.063 127.972  0.00  0.00    +0.000 C 
ENDBRANCH  11  12
ENDBRANCH   1  11
BRANCH   1  15
ATOM     15  O   UNL     1      -7.460   1.398 123.797  0.00  0.00    +0.000 OA
BRANCH  15  16
ATOM     16  S   UNL     1      -8.819   2.291 123.589  0.00  0.00    +0.000 S 
ATOM     17  O   UNL     1      -9.587   1.740 122.475  0.00  0.00    +0.000 OA
ATOM     18  O   UNL     1      -9.446   2.496 124.855  0.00  0.00    +0.000 OA
BRANCH  16  19
ATOM     19  O   UNL     1      -8.245   3.713 123.078  0.00  0.00    +0.000 OA
ATOM     20  H   UNL     1      -7.960   3.671 122.147  0.00  0.00    +0.000 HD
ENDBRANCH  16  19
ENDBRANCH  15  16
ENDBRANCH   1  15
TORSDOF 12
ENDMDL
MODEL 3
REMARK VINA RESULT:      -5.7      2.043      2.682
REMARK  Name = Tetradecyl hydrogen sulfate (ester)
REMARK  16 active torsions:
REMARK  status: ('A' for Active; 'I' for Inactive)
REMARK    1  A    between atoms: C_1  and  C_2
REMARK    2  A    between atoms: C_2  and  C_3
REMARK    3  A    between atoms: C_3  and  C_4
REMARK    4  A    between atoms: C_4  and  C_5
REMARK    5  A    between atoms: C_5  and  C_6
REMARK    6  A    between atoms: C_5  and  C_8
REMARK    7  A    between atoms: C_6  and  C_7
REMARK    8  A    between atoms: C_8  and  C_9
REMARK    9  A    between atoms: C_9  and  C_10
REMARK   10  A    between atoms: C_10  and  C_11
REMARK   11  A    between atoms: C_10  and  O_15
REMARK   12  A    between atoms: C_11  and  C_12
REMARK   13  A    between atoms: C_12  and  C_13
REMARK   14  A    between atoms: C_12  and  C_14
REMARK   15  A    between atoms: O_15  and  S_16
REMARK   16  A    between atoms: S_16  and  O_17
REMARK                            x       y       z     vdW  Elec       q    Type
REMARK                         _______ _______ _______ _____ _____    ______ ____
ROOT
ATOM      1  C   UNL     1      -8.451   1.987 125.228  0.00  0.00    +0.000 C 
ENDROOT
BRANCH   1   2
ATOM      2  C   UNL     1      -7.672   0.830 125.870  0.00  0.00    +0.000 C 
BRANCH   2   3
ATOM      3  C   UNL     1      -8.585  -0.414 126.053  0.00  0.00    +0.000 C 
BRANCH   3   4
ATOM      4  C   UNL     1      -7.941  -1.705 125.451  0.00  0.00    +0.000 C 
BRANCH   4   5
ATOM      5  C   UNL     1      -9.182  -2.546 125.230  0.00  0.00    +0.000 C 
ATOM      6  C   UNL     1      -9.294  -3.297 123.942  0.00  0.00    +0.000 C 
ENDBRANCH   4   5
BRANCH   4   7
ATOM      7  C   UNL     1      -6.840  -2.318 126.369  0.00  0.00    +0.000 C 
BRANCH   7   8
ATOM      8  C   UNL     1      -5.450  -2.307 125.758  0.00  0.00    +0.000 C 
BRANCH   8  10
ATOM      9  C   UNL     1      -5.013  -3.720 123.803  0.00  0.00    +0.000 C 
ATOM     10  C   UNL     1      -5.393  -2.311 124.252  0.00  0.00    +0.000 C 
ENDBRANCH   8  10
ENDBRANCH   7   8
ENDBRANCH   4   7
ENDBRANCH   3   4
ENDBRANCH   2   3
ENDBRANCH   1   2
BRANCH   1  11
ATOM     11  C   UNL     1      -9.839   1.550 124.701  0.00  0.00    +0.000 C 
BRANCH  11  12
ATOM     12  C   UNL     1     -10.072   1.531 123.197  0.00  0.00    +0.000 C 
ATOM     13  C   UNL     1      -9.043   2.326 122.400  0.00  0.00    +0.000 C 
ATOM     14  C   UNL     1      -9.885   0.159 122.599  0.00  0.00    +0.000 C 
ENDBRANCH  11  12
ENDBRANCH   1  11
BRANCH   1  15
ATOM     15  O   UNL     1      -8.625   3.048 126.173  0.00  0.00    +0.000 OA
BRANCH  15  16
ATOM     16  S   UNL     1      -7.891   4.498 125.950  0.00  0.00    +0.000 S 
ATOM     17  O   UNL     1      -8.905   5.550 125.940  0.00  0.00    +0.000 OA
ATOM     18  O   UNL     1      -6.769   4.597 126.826  0.00  0.00    +0.000 OA
BRANCH  16  19
ATOM     19  O   UNL     1      -7.337   4.395 124.435  0.00  0.00    +0.000 OA
ATOM     20  H   UNL     1      -7.830   4.982 123.833  0.00  0.00    +0.000 HD
ENDBRANCH  16  19
ENDBRANCH  15  16
ENDBRANCH   1  15
TORSDOF 12
ENDMDL
MODEL 4
REMARK VINA RESULT:      -5.7      2.684      3.905
REMARK  Name = Tetradecyl hydrogen sulfate (ester)
REMARK  16 active torsions:
REMARK  status: ('A' for Active; 'I' for Inactive)
REMARK    1  A    between atoms: C_1  and  C_2
REMARK    2  A    between atoms: C_2  and  C_3
REMARK    3  A    between atoms: C_3  and  C_4
REMARK    4  A    between atoms: C_4  and  C_5
REMARK    5  A    between atoms: C_5  and  C_6
REMARK    6  A    between atoms: C_5  and  C_8
REMARK    7  A    between atoms: C_6  and  C_7
REMARK    8  A    between atoms: C_8  and  C_9
REMARK    9  A    between atoms: C_9  and  C_10
REMARK   10  A    between atoms: C_10  and  C_11
REMARK   11  A    between atoms: C_10  and  O_15
REMARK   12  A    between atoms: C_11  and  C_12
REMARK   13  A    between atoms: C_12  and  C_13
REMARK   14  A    between atoms: C_12  and  C_14
REMARK   15  A    between atoms: O_15  and  S_16
REMARK   16  A    between atoms: S_16  and  O_17
REMARK                            x       y       z     vdW  Elec       q    Type
REMARK                         _______ _______ _______ _____ _____    ______ ____
ROOT
ATOM      1  C   UNL     1      -8.002   0.661 125.616  0.00  0.00    +0.000 C 
ENDROOT
BRANCH   1   2
ATOM      2  C   UNL     1      -8.450  -0.631 126.316  0.00  0.00    +0.000 C 
BRANCH   2   3
ATOM      3  C   UNL     1      -9.067  -1.626 125.294  0.00  0.00    +0.000 C 
BRANCH   3   4
ATOM      4  C   UNL     1      -8.622  -3.099 125.572  0.00  0.00    +0.000 C 
BRANCH   4   5
ATOM      5  C   UNL     1      -8.323  -3.013 127.055  0.00  0.00    +0.000 C 
ATOM      6  C   UNL     1      -8.955  -4.028 127.953  0.00  0.00    +0.000 C 
ENDBRANCH   4   5
BRANCH   4   7
ATOM      7  C   UNL     1      -7.452  -3.563 124.652  0.00  0.00    +0.000 C 
BRANCH   7   8
ATOM      8  C   UNL     1      -7.020  -2.524 123.632  0.00  0.00    +0.000 C 
BRANCH   8  10
ATOM      9  C   UNL     1      -4.903  -3.707 123.986  0.00  0.00    +0.000 C 
ATOM     10  C   UNL     1      -5.584  -2.602 123.182  0.00  0.00    +0.000 C 
ENDBRANCH   8  10
ENDBRANCH   7   8
ENDBRANCH   4   7
ENDBRANCH   3   4
ENDBRANCH   2   3
ENDBRANCH   1   2
BRANCH   1  11
ATOM     11  C   UNL     1      -6.463   0.821 125.594  0.00  0.00    +0.000 C 
BRANCH  11  12
ATOM     12  C   UNL     1      -5.866   2.152 126.029  0.00  0.00    +0.000 C 
ATOM     13  C   UNL     1      -4.397   2.070 126.434  0.00  0.00    +0.000 C 
ATOM     14  C   UNL     1      -5.786   3.149 124.901  0.00  0.00    +0.000 C 
ENDBRANCH  11  12
ENDBRANCH   1  11
BRANCH   1  15
ATOM     15  O   UNL     1      -8.492   0.687 124.271  0.00  0.00    +0.000 OA
BRANCH  15  16
ATOM     16  S   UNL     1      -9.605   1.799 123.807  0.00  0.00    +0.000 S 
ATOM     17  O   UNL     1      -9.265   2.287 122.472  0.00  0.00    +0.000 OA
ATOM     18  O   UNL     1     -10.913   1.292 124.069  0.00  0.00    +0.000 OA
BRANCH  16  19
ATOM     19  O   UNL     1      -9.333   3.030 124.818  0.00  0.00    +0.000 OA
ATOM     20  H   UNL     1      -8.832   2.744 125.603  0.00  0.00    +0.000 HD
ENDBRANCH  16  19
ENDBRANCH  15  16
ENDBRANCH   1  15
TORSDOF 12
ENDMDL
MODEL 5
REMARK VINA RESULT:      -5.7      3.049      5.151
REMARK  Name = Tetradecyl hydrogen sulfate (ester)
REMARK  16 active torsions:
REMARK  status: ('A' for Active; 'I' for Inactive)
REMARK    1  A    between atoms: C_1  and  C_2
REMARK    2  A    between atoms: C_2  and  C_3
REMARK    3  A    between atoms: C_3  and  C_4
REMARK    4  A    between atoms: C_4  and  C_5
REMARK    5  A    between atoms: C_5  and  C_6
REMARK    6  A    between atoms: C_5  and  C_8
REMARK    7  A    between atoms: C_6  and  C_7
REMARK    8  A    between atoms: C_8  and  C_9
REMARK    9  A    between atoms: C_9  and  C_10
REMARK   10  A    between atoms: C_10  and  C_11
REMARK   11  A    between atoms: C_10  and  O_15
REMARK   12  A    between atoms: C_11  and  C_12
REMARK   13  A    between atoms: C_12  and  C_13
REMARK   14  A    between atoms: C_12  and  C_14
REMARK   15  A    between atoms: O_15  and  S_16
REMARK   16  A    between atoms: S_16  and  O_17
REMARK                            x       y       z     vdW  Elec       q    Type
REMARK                         _______ _______ _______ _____ _____    ______ ____
ROOT
ATOM      1  C   UNL     1      -8.201  -0.422 123.619  0.00  0.00    +0.000 C 
ENDROOT
BRANCH   1   2
ATOM      2  C   UNL     1      -6.779  -0.928 123.339  0.00  0.00    +0.000 C 
BRANCH   2   3
ATOM      3  C   UNL     1      -5.857  -0.689 124.567  0.00  0.00    +0.000 C 
BRANCH   3   4
ATOM      4  C   UNL     1      -5.124  -1.998 125.010  0.00  0.00    +0.000 C 
BRANCH   4   5
ATOM      5  C   UNL     1      -5.263  -2.823 123.748  0.00  0.00    +0.000 C 
ATOM      6  C   UNL     1      -4.510  -4.113 123.672  0.00  0.00    +0.000 C 
ENDBRANCH   4   5
BRANCH   4   7
ATOM      7  C   UNL     1      -5.718  -2.614 126.313  0.00  0.00    +0.000 C 
BRANCH   7   8
ATOM      8  C   UNL     1      -5.755  -1.655 127.489  0.00  0.00    +0.000 C 
BRANCH   8  10
ATOM      9  C   UNL     1      -7.535  -2.372 129.013  0.00  0.00    +0.000 C 
ATOM     10  C   UNL     1      -7.125  -1.300 128.006  0.00  0.00    +0.000 C 
ENDBRANCH   8  10
ENDBRANCH   7   8
ENDBRANCH   4   7
ENDBRANCH   3   4
ENDBRANCH   2   3
ENDBRANCH   1   2
BRANCH   1  11
ATOM     11  C   UNL     1      -8.882  -1.176 124.786  0.00  0.00    +0.000 C 
BRANCH  11  12
ATOM     12  C   UNL     1      -8.819  -2.696 124.803  0.00  0.00    +0.000 C 
ATOM     13  C   UNL     1      -9.562  -3.335 125.973  0.00  0.00    +0.000 C 
ATOM     14  C   UNL     1      -9.548  -3.320 123.639  0.00  0.00    +0.000 C 
ENDBRANCH  11  12
ENDBRANCH   1  11
BRANCH   1  15
ATOM     15  O   UNL     1      -8.175   0.978 123.921  0.00  0.00    +0.000 OA
BRANCH  15  16
ATOM     16  S   UNL     1      -9.430   1.948 123.507  0.00  0.00    +0.000 S 
ATOM     17  O   UNL     1      -9.103   2.651 122.269  0.00  0.00    +0.000 OA
ATOM     18  O   UNL     1     -10.648   1.209 123.607  0.00  0.00    +0.000 OA
BRANCH  16  19
ATOM     19  O   UNL     1      -9.426   3.067 124.673  0.00  0.00    +0.000 OA
ATOM     20  H   UNL     1     -10.188   2.964 125.271  0.00  0.00    +0.000 HD
ENDBRANCH  16  19
ENDBRANCH  15  16
ENDBRANCH   1  15
TORSDOF 12
ENDMDL
MODEL 6
REMARK VINA RESULT:      -5.7      3.605      5.359
REMARK  Name = Tetradecyl hydrogen sulfate (ester)
REMARK  16 active torsions:
REMARK  status: ('A' for Active; 'I' for Inactive)
REMARK    1  A    between atoms: C_1  and  C_2
REMARK    2  A    between atoms: C_2  and  C_3
REMARK    3  A    between atoms: C_3  and  C_4
REMARK    4  A    between atoms: C_4  and  C_5
REMARK    5  A    between atoms: C_5  and  C_6
REMARK    6  A    between atoms: C_5  and  C_8
REMARK    7  A    between atoms: C_6  and  C_7
REMARK    8  A    between atoms: C_8  and  C_9
REMARK    9  A    between atoms: C_9  and  C_10
REMARK   10  A    between atoms: C_10  and  C_11
REMARK   11  A    between atoms: C_10  and  O_15
REMARK   12  A    between atoms: C_11  and  C_12
REMARK   13  A    between atoms: C_12  and  C_13
REMARK   14  A    between atoms: C_12  and  C_14
REMARK   15  A    between atoms: O_15  and  S_16
REMARK   16  A    between atoms: S_16  and  O_17
REMARK                            x       y       z     vdW  Elec       q    Type
REMARK                         _______ _______ _______ _____ _____    ______ ____
ROOT
ATOM      1  C   UNL     1      -8.766  -0.978 124.574  0.00  0.00    +0.000 C 
ENDROOT
BRANCH   1   2
ATOM      2  C   UNL     1      -9.348  -1.383 125.937  0.00  0.00    +0.000 C 
BRANCH   2   3
ATOM      3  C   UNL     1      -8.866  -2.803 126.342  0.00  0.00    +0.000 C 
BRANCH   3   4
ATOM      4  C   UNL     1      -7.764  -2.752 127.450  0.00  0.00    +0.000 C 
BRANCH   4   5
ATOM      5  C   UNL     1      -8.478  -3.476 128.573  0.00  0.00    +0.000 C 
ATOM      6  C   UNL     1      -8.033  -3.202 129.973  0.00  0.00    +0.000 C 
ENDBRANCH   4   5
BRANCH   4   7
ATOM      7  C   UNL     1      -7.278  -1.302 127.756  0.00  0.00    +0.000 C 
BRANCH   7   8
ATOM      8  C   UNL     1      -5.772  -1.174 127.903  0.00  0.00    +0.000 C 
BRANCH   8  10
ATOM      9  C   UNL     1      -4.378  -2.810 129.080  0.00  0.00    +0.000 C 
ATOM     10  C   UNL     1      -4.983  -2.445 127.727  0.00  0.00    +0.000 C 
ENDBRANCH   8  10
ENDBRANCH   7   8
ENDBRANCH   4   7
ENDBRANCH   3   4
ENDBRANCH   2   3
ENDBRANCH   1   2
BRANCH   1  11
ATOM     11  C   UNL     1      -8.164  -2.178 123.805  0.00  0.00    +0.000 C 
BRANCH  11  12
ATOM     12  C   UNL     1      -6.662  -2.204 123.561  0.00  0.00    +0.000 C 
ATOM     13  C   UNL     1      -5.899  -1.086 124.265  0.00  0.00    +0.000 C 
ATOM     14  C   UNL     1      -5.997  -3.415 124.166  0.00  0.00    +0.000 C 
ENDBRANCH  11  12
ENDBRANCH   1  11
BRANCH   1  15
ATOM     15  O   UNL     1      -9.780  -0.369 123.768  0.00  0.00    +0.000 OA
BRANCH  15  16
ATOM     16  S   UNL     1     -10.031   1.251 123.820  0.00  0.00    +0.000 S 
ATOM     17  O   UNL     1      -9.552   1.768 125.101  0.00  0.00    +0.000 OA
ATOM     18  O   UNL     1      -9.577   1.837 122.601  0.00  0.00    +0.000 OA
BRANCH  16  19
ATOM     19  O   UNL     1     -11.642   1.368 123.863  0.00  0.00    +0.000 OA
ATOM     20  H   UNL     1     -12.028   0.762 124.521  0.00  0.00    +0.000 HD
ENDBRANCH  16  19
ENDBRANCH  15  16
ENDBRANCH   1  15
TORSDOF 12
ENDMDL
MODEL 7
REMARK VINA RESULT:      -5.7      1.541      2.408
REMARK  Name = Tetradecyl hydrogen sulfate (ester)
REMARK  16 active torsions:
REMARK  status: ('A' for Active; 'I' for Inactive)
REMARK    1  A    between atoms: C_1  and  C_2
REMARK    2  A    between atoms: C_2  and  C_3
REMARK    3  A    between atoms: C_3  and  C_4
REMARK    4  A    between atoms: C_4  and  C_5
REMARK    5  A    between atoms: C_5  and  C_6
REMARK    6  A    between atoms: C_5  and  C_8
REMARK    7  A    between atoms: C_6  and  C_7
REMARK    8  A    between atoms: C_8  and  C_9
REMARK    9  A    between atoms: C_9  and  C_10
REMARK   10  A    between atoms: C_10  and  C_11
REMARK   11  A    between atoms: C_10  and  O_15
REMARK   12  A    between atoms: C_11  and  C_12
REMARK   13  A    between atoms: C_12  and  C_13
REMARK   14  A    between atoms: C_12  and  C_14
REMARK   15  A    between atoms: O_15  and  S_16
REMARK   16  A    between atoms: S_16  and  O_17
REMARK                            x       y       z     vdW  Elec       q    Type
REMARK                         _______ _______ _______ _____ _____    ______ ____
ROOT
ATOM      1  C   UNL     1      -7.051   3.295 123.713  0.00  0.00    +0.000 C 
ENDROOT
BRANCH   1   2
ATOM      2  C   UNL     1      -6.713   1.913 124.291  0.00  0.00    +0.000 C 
BRANCH   2   3
ATOM      3  C   UNL     1      -7.192   0.784 123.337  0.00  0.00    +0.000 C 
BRANCH   3   4
ATOM      4  C   UNL     1      -7.950  -0.347 124.105  0.00  0.00    +0.000 C 
BRANCH   4   5
ATOM      5  C   UNL     1      -8.265   0.373 125.401  0.00  0.00    +0.000 C 
ATOM      6  C   UNL     1      -9.703   0.563 125.761  0.00  0.00    +0.000 C 
ENDBRANCH   4   5
BRANCH   4   7
ATOM      7  C   UNL     1      -7.120  -1.661 124.224  0.00  0.00    +0.000 C 
BRANCH   7   8
ATOM      8  C   UNL     1      -7.893  -2.915 123.852  0.00  0.00    +0.000 C 
BRANCH   8  10
ATOM      9  C   UNL     1      -8.841  -3.342 126.072  0.00  0.00    +0.000 C 
ATOM     10  C   UNL     1      -9.183  -3.137 124.598  0.00  0.00    +0.000 C 
ENDBRANCH   8  10
ENDBRANCH   7   8
ENDBRANCH   4   7
ENDBRANCH   3   4
ENDBRANCH   2   3
ENDBRANCH   1   2
BRANCH   1  11
ATOM     11  C   UNL     1      -7.358   3.246 122.197  0.00  0.00    +0.000 C 
BRANCH  11  12
ATOM     12  C   UNL     1      -6.217   3.474 121.217  0.00  0.00    +0.000 C 
ATOM     13  C   UNL     1      -6.619   4.248 119.965  0.00  0.00    +0.000 C 
ATOM     14  C   UNL     1      -5.148   4.383 121.771  0.00  0.00    +0.000 C 
ENDBRANCH  11  12
ENDBRANCH   1  11
BRANCH   1  15
ATOM     15  O   UNL     1      -8.176   3.855 124.398  0.00  0.00    +0.000 OA
BRANCH  15  16
ATOM     16  S   UNL     1      -7.974   4.703 125.787  0.00  0.00    +0.000 S 
ATOM     17  O   UNL     1      -6.572   5.096 125.907  0.00  0.00    +0.000 OA
ATOM     18  O   UNL     1      -9.002   5.688 125.891  0.00  0.00    +0.000 OA
BRANCH  16  19
ATOM     19  O   UNL     1      -8.227   3.591 126.933  0.00  0.00    +0.000 OA
ATOM     20  H   UNL     1      -9.104   3.176 126.841  0.00  0.00    +0.000 HD
ENDBRANCH  16  19
ENDBRANCH  15  16
ENDBRANCH   1  15
TORSDOF 12
ENDMDL
MODEL 8
REMARK VINA RESULT:      -5.7      3.422      5.122
REMARK  Name = Tetradecyl hydrogen sulfate (ester)
REMARK  16 active torsions:
REMARK  status: ('A' for Active; 'I' for Inactive)
REMARK    1  A    between atoms: C_1  and  C_2
REMARK    2  A    between atoms: C_2  and  C_3
REMARK    3  A    between atoms: C_3  and  C_4
REMARK    4  A    between atoms: C_4  and  C_5
REMARK    5  A    between atoms: C_5  and  C_6
REMARK    6  A    between atoms: C_5  and  C_8
REMARK    7  A    between atoms: C_6  and  C_7
REMARK    8  A    between atoms: C_8  and  C_9
REMARK    9  A    between atoms: C_9  and  C_10
REMARK   10  A    between atoms: C_10  and  C_11
REMARK   11  A    between atoms: C_10  and  O_15
REMARK   12  A    between atoms: C_11  and  C_12
REMARK   13  A    between atoms: C_12  and  C_13
REMARK   14  A    between atoms: C_12  and  C_14
REMARK   15  A    between atoms: O_15  and  S_16
REMARK   16  A    between atoms: S_16  and  O_17
REMARK                            x       y       z     vdW  Elec       q    Type
REMARK                         _______ _______ _______ _____ _____    ______ ____
ROOT
ATOM      1  C   UNL     1      -8.709  -0.439 124.311  0.00  0.00    +0.000 C 
ENDROOT
BRANCH   1   2
ATOM      2  C   UNL     1      -9.175  -0.547 125.770  0.00  0.00    +0.000 C 
BRANCH   2   3
ATOM      3  C   UNL     1      -8.014  -0.205 126.746  0.00  0.00    +0.000 C 
BRANCH   3   4
ATOM      4  C   UNL     1      -7.485  -1.475 127.490  0.00  0.00    +0.000 C 
BRANCH   4   5
ATOM      5  C   UNL     1      -6.116  -1.607 126.855  0.00  0.00    +0.000 C 
ATOM      6  C   UNL     1      -5.497  -0.378 126.270  0.00  0.00    +0.000 C 
ENDBRANCH   4   5
BRANCH   4   7
ATOM      7  C   UNL     1      -8.437  -2.701 127.351  0.00  0.00    +0.000 C 
BRANCH   7   8
ATOM      8  C   UNL     1      -8.523  -3.561 128.600  0.00  0.00    +0.000 C 
BRANCH   8  10
ATOM      9  C   UNL     1      -6.563  -3.908 130.029  0.00  0.00    +0.000 C 
ATOM     10  C   UNL     1      -7.797  -3.036 129.811  0.00  0.00    +0.000 C 
ENDBRANCH   8  10
ENDBRANCH   7   8
ENDBRANCH   4   7
ENDBRANCH   3   4
ENDBRANCH   2   3
ENDBRANCH   1   2
BRANCH   1  11
ATOM     11  C   UNL     1      -8.990  -1.726 123.500  0.00  0.00    +0.000 C 
BRANCH  11  12
ATOM     12  C   UNL     1      -7.810  -2.593 123.083  0.00  0.00    +0.000 C 
ATOM     13  C   UNL     1      -6.503  -1.825 122.919  0.00  0.00    +0.000 C 
ATOM     14  C   UNL     1      -7.416  -3.587 124.147  0.00  0.00    +0.000 C 
ENDBRANCH  11  12
ENDBRANCH   1  11
BRANCH   1  15
ATOM     15  O   UNL     1      -9.355   0.666 123.669  0.00  0.00    +0.000 OA
BRANCH  15  16
ATOM     16  S   UNL     1      -8.649   2.146 123.637  0.00  0.00    +0.000 S 
ATOM     17  O   UNL     1      -7.244   2.014 124.019  0.00  0.00    +0.000 OA
ATOM     18  O   UNL     1      -8.997   2.807 122.421  0.00  0.00    +0.000 OA
BRANCH  16  19
ATOM     19  O   UNL     1      -9.374   2.921 124.856  0.00  0.00    +0.000 OA
ATOM     20  H   UNL     1      -9.978   3.613 124.530  0.00  0.00    +0.000 HD
ENDBRANCH  16  19
ENDBRANCH  15  16
ENDBRANCH   1  15
TORSDOF 12
ENDMDL
MODEL 9
REMARK VINA RESULT:      -5.6      2.532      3.926
REMARK  Name = Tetradecyl hydrogen sulfate (ester)
REMARK  16 active torsions:
REMARK  status: ('A' for Active; 'I' for Inactive)
REMARK    1  A    between atoms: C_1  and  C_2
REMARK    2  A    between atoms: C_2  and  C_3
REMARK    3  A    between atoms: C_3  and  C_4
REMARK    4  A    between atoms: C_4  and  C_5
REMARK    5  A    between atoms: C_5  and  C_6
REMARK    6  A    between atoms: C_5  and  C_8
REMARK    7  A    between atoms: C_6  and  C_7
REMARK    8  A    between atoms: C_8  and  C_9
REMARK    9  A    between atoms: C_9  and  C_10
REMARK   10  A    between atoms: C_10  and  C_11
REMARK   11  A    between atoms: C_10  and  O_15
REMARK   12  A    between atoms: C_11  and  C_12
REMARK   13  A    between atoms: C_12  and  C_13
REMARK   14  A    between atoms: C_12  and  C_14
REMARK   15  A    between atoms: O_15  and  S_16
REMARK   16  A    between atoms: S_16  and  O_17
REMARK                            x       y       z     vdW  Elec       q    Type
REMARK                         _______ _______ _______ _____ _____    ______ ____
ROOT
ATOM      1  C   UNL     1      -7.153   1.267 124.838  0.00  0.00    +0.000 C 
ENDROOT
BRANCH   1   2
ATOM      2  C   UNL     1      -6.183   0.143 125.231  0.00  0.00    +0.000 C 
BRANCH   2   3
ATOM      3  C   UNL     1      -6.171  -0.976 124.153  0.00  0.00    +0.000 C 
BRANCH   3   4
ATOM      4  C   UNL     1      -5.734  -2.355 124.747  0.00  0.00    +0.000 C 
BRANCH   4   5
ATOM      5  C   UNL     1      -5.248  -3.047 123.490  0.00  0.00    +0.000 C 
ATOM      6  C   UNL     1      -4.319  -4.207 123.649  0.00  0.00    +0.000 C 
ENDBRANCH   4   5
BRANCH   4   7
ATOM      7  C   UNL     1      -6.877  -3.065 125.534  0.00  0.00    +0.000 C 
BRANCH   7   8
ATOM      8  C   UNL     1      -7.864  -3.810 124.652  0.00  0.00    +0.000 C 
BRANCH   8  10
ATOM      9  C   UNL     1      -9.350  -2.720 123.038  0.00  0.00    +0.000 C 
ATOM     10  C   UNL     1      -9.217  -3.168 124.491  0.00  0.00    +0.000 C 
ENDBRANCH   8  10
ENDBRANCH   7   8
ENDBRANCH   4   7
ENDBRANCH   3   4
ENDBRANCH   2   3
ENDBRANCH   1   2
BRANCH   1  11
ATOM     11  C   UNL     1      -6.437   2.463 124.166  0.00  0.00    +0.000 C 
BRANCH  11  12
ATOM     12  C   UNL     1      -6.151   3.701 125.004  0.00  0.00    +0.000 C 
ATOM     13  C   UNL     1      -7.025   3.825 126.247  0.00  0.00    +0.000 C 
ATOM     14  C   UNL     1      -4.780   3.673 125.631  0.00  0.00    +0.000 C 
ENDBRANCH  11  12
ENDBRANCH   1  11
BRANCH   1  15
ATOM     15  O   UNL     1      -8.155   0.764 123.947  0.00  0.00    +0.000 OA
BRANCH  15  16
ATOM     16  S   UNL     1      -9.748   0.938 124.294  0.00  0.00    +0.000 S 
ATOM     17  O   UNL     1     -10.528   0.731 123.076  0.00  0.00    +0.000 OA
ATOM     18  O   UNL     1     -10.057   0.194 125.473  0.00  0.00    +0.000 OA
BRANCH  16  19
ATOM     19  O   UNL     1      -9.874   2.510 124.646  0.00  0.00    +0.000 OA
ATOM     20  H   UNL     1      -9.020   2.883 124.929  0.00  0.00    +0.000 HD
ENDBRANCH  16  19
ENDBRANCH  15  16
ENDBRANCH   1  15
TORSDOF 12
ENDMDL
