MODEL 1
REMARK VINA RESULT:      -5.7      0.000      0.000
REMARK  Name = Tetracaine
REMARK  12 active torsions:
REMARK  status: ('A' for Active; 'I' for Inactive)
REMARK    1  A    between atoms: C_1  and  C_2
REMARK    2  A    between atoms: C_2  and  C_3
REMARK    3  A    between atoms: C_3  and  C_4
REMARK    4  A    between atoms: C_4  and  N_5
REMARK    5  A    between atoms: N_5  and  C_6
REMARK    6  A    between atoms: C_9  and  C_12
REMARK    7  A    between atoms: C_12  and  O_14
REMARK    8  A    between atoms: O_14  and  C_15
REMARK    9  A    between atoms: C_15  and  C_16
REMARK   10  A    between atoms: C_16  and  N_17
REMARK   11  A    between atoms: N_17  and  C_18
REMARK   12  A    between atoms: N_17  and  C_19
REMARK                            x       y       z     vdW  Elec       q    Type
REMARK                         _______ _______ _______ _____ _____    ______ ____
ROOT
ATOM      1  C   UNL     1     -10.303   6.268 131.755  0.00  0.00    +0.000 A 
ATOM      2  C   UNL     1      -9.724   6.882 130.640  0.00  0.00    +0.000 A 
ATOM      3  C   UNL     1      -8.332   6.990 130.510  0.00  0.00    +0.000 A 
ATOM      4  C   UNL     1      -7.481   6.544 131.532  0.00  0.00    +0.000 A 
ATOM      5  C   UNL     1      -8.048   5.935 132.652  0.00  0.00    +0.000 A 
ATOM      6  C   UNL     1      -9.443   5.809 132.759  0.00  0.00    +0.000 A 
ENDROOT
BRANCH   1   7
ATOM      7  N   UNL     1     -11.681   6.168 131.829  0.00  0.00    +0.000 N 
ATOM      8  H   UNL     1     -12.077   5.927 132.733  0.00  0.00    +0.000 HD
BRANCH   7   9
ATOM      9  C   UNL     1     -12.553   6.725 130.811  0.00  0.00    +0.000 C 
BRANCH   9  10
ATOM     10  C   UNL     1     -12.989   8.141 131.180  0.00  0.00    +0.000 C 
BRANCH  10  12
ATOM     11  C   UNL     1     -12.591   8.304 128.703  0.00  0.00    +0.000 C 
ATOM     12  C   UNL     1     -12.808   9.082 129.989  0.00  0.00    +0.000 C 
ENDBRANCH  10  12
ENDBRANCH   9  10
ENDBRANCH   7   9
ENDBRANCH   1   7
BRANCH   4  13
ATOM     13  C   UNL     1      -6.015   6.795 131.403  0.00  0.00    +0.000 C 
ATOM     14  O   UNL     1      -5.203   6.364 132.216  0.00  0.00    +0.000 OA
BRANCH  13  15
ATOM     15  O   UNL     1      -5.700   7.501 130.281  0.00  0.00    +0.000 OA
BRANCH  15  16
ATOM     16  C   UNL     1      -4.302   7.851 130.202  0.00  0.00    +0.000 C 
BRANCH  16  17
ATOM     17  C   UNL     1      -3.605   7.113 129.041  0.00  0.00    +0.000 C 
BRANCH  17  18
ATOM     18  N   UNL     1      -2.610   6.110 129.483  0.00  0.00    +0.000 NA
ATOM     19  C   UNL     1      -1.994   6.487 130.758  0.00  0.00    +0.000 C 
ATOM     20  C   UNL     1      -3.237   4.791 129.628  0.00  0.00    +0.000 C 
ENDBRANCH  17  18
ENDBRANCH  16  17
ENDBRANCH  15  16
ENDBRANCH  13  15
ENDBRANCH   4  13
TORSDOF 9
ENDMDL
MODEL 2
REMARK VINA RESULT:      -5.5      3.629      4.636
REMARK  Name = Tetracaine
REMARK  12 active torsions:
REMARK  status: ('A' for Active; 'I' for Inactive)
REMARK    1  A    between atoms: C_1  and  C_2
REMARK    2  A    between atoms: C_2  and  C_3
REMARK    3  A    between atoms: C_3  and  C_4
REMARK    4  A    between atoms: C_4  and  N_5
REMARK    5  A    between atoms: N_5  and  C_6
REMARK    6  A    between atoms: C_9  and  C_12
REMARK    7  A    between atoms: C_12  and  O_14
REMARK    8  A    between atoms: O_14  and  C_15
REMARK    9  A    between atoms: C_15  and  C_16
REMARK   10  A    between atoms: C_16  and  N_17
REMARK   11  A    between atoms: N_17  and  C_18
REMARK   12  A    between atoms: N_17  and  C_19
REMARK                            x       y       z     vdW  Elec       q    Type
REMARK                         _______ _______ _______ _____ _____    ______ ____
ROOT
ATOM      1  C   UNL     1     -11.091   7.106 130.243  0.00  0.00    +0.000 A 
ATOM      2  C   UNL     1     -11.528   6.587 131.465  0.00  0.00    +0.000 A 
ATOM      3  C   UNL     1     -10.616   6.154 132.439  0.00  0.00    +0.000 A 
ATOM      4  C   UNL     1      -9.237   6.167 132.184  0.00  0.00    +0.000 A 
ATOM      5  C   UNL     1      -8.790   6.678 130.965  0.00  0.00    +0.000 A 
ATOM      6  C   UNL     1      -9.712   7.132 130.007  0.00  0.00    +0.000 A 
ENDROOT
BRANCH   1   7
ATOM      7  N   UNL     1     -12.029   7.539 129.321  0.00  0.00    +0.000 N 
ATOM      8  H   UNL     1     -12.923   7.055 129.314  0.00  0.00    +0.000 HD
BRANCH   7   9
ATOM      9  C   UNL     1     -11.925   8.823 128.655  0.00  0.00    +0.000 C 
BRANCH   9  10
ATOM     10  C   UNL     1     -13.223   9.615 128.790  0.00  0.00    +0.000 C 
BRANCH  10  12
ATOM     11  C   UNL     1     -13.780  11.785 129.931  0.00  0.00    +0.000 C 
ATOM     12  C   UNL     1     -13.251  10.374 130.117  0.00  0.00    +0.000 C 
ENDBRANCH  10  12
ENDBRANCH   9  10
ENDBRANCH   7   9
ENDBRANCH   1   7
BRANCH   4  13
ATOM     13  C   UNL     1      -8.315   5.579 133.201  0.00  0.00    +0.000 C 
ATOM     14  O   UNL     1      -8.165   6.075 134.313  0.00  0.00    +0.000 OA
BRANCH  13  15
ATOM     15  O   UNL     1      -7.717   4.434 132.767  0.00  0.00    +0.000 OA
BRANCH  15  16
ATOM     16  C   UNL     1      -8.061   3.278 133.558  0.00  0.00    +0.000 C 
BRANCH  16  17
ATOM     17  C   UNL     1      -8.917   2.281 132.750  0.00  0.00    +0.000 C 
BRANCH  17  18
ATOM     18  N   UNL     1      -8.854   2.490 131.286  0.00  0.00    +0.000 NA
ATOM     19  C   UNL     1      -8.448   1.269 130.585  0.00  0.00    +0.000 C 
ATOM     20  C   UNL     1     -10.157   2.926 130.771  0.00  0.00    +0.000 C 
ENDBRANCH  17  18
ENDBRANCH  16  17
ENDBRANCH  15  16
ENDBRANCH  13  15
ENDBRANCH   4  13
TORSDOF 9
ENDMDL
MODEL 3
REMARK VINA RESULT:      -5.3      9.645     11.118
REMARK  Name = Tetracaine
REMARK  12 active torsions:
REMARK  status: ('A' for Active; 'I' for Inactive)
REMARK    1  A    between atoms: C_1  and  C_2
REMARK    2  A    between atoms: C_2  and  C_3
REMARK    3  A    between atoms: C_3  and  C_4
REMARK    4  A    between atoms: C_4  and  N_5
REMARK    5  A    between atoms: N_5  and  C_6
REMARK    6  A    between atoms: C_9  and  C_12
REMARK    7  A    between atoms: C_12  and  O_14
REMARK    8  A    between atoms: O_14  and  C_15
REMARK    9  A    between atoms: C_15  and  C_16
REMARK   10  A    between atoms: C_16  and  N_17
REMARK   11  A    between atoms: N_17  and  C_18
REMARK   12  A    between atoms: N_17  and  C_19
REMARK                            x       y       z     vdW  Elec       q    Type
REMARK                         _______ _______ _______ _____ _____    ______ ____
ROOT
ATOM      1  C   UNL     1      -8.523  -2.490 126.245  0.00  0.00    +0.000 A 
ATOM      2  C   UNL     1      -8.988  -3.582 126.985  0.00  0.00    +0.000 A 
ATOM      3  C   UNL     1      -8.545  -3.813 128.296  0.00  0.00    +0.000 A 
ATOM      4  C   UNL     1      -7.567  -2.993 128.877  0.00  0.00    +0.000 A 
ATOM      5  C   UNL     1      -7.091  -1.904 128.145  0.00  0.00    +0.000 A 
ATOM      6  C   UNL     1      -7.562  -1.667 126.842  0.00  0.00    +0.000 A 
ENDROOT
BRANCH   1   7
ATOM      7  N   UNL     1      -9.005  -2.292 124.963  0.00  0.00    +0.000 N 
ATOM      8  H   UNL     1      -9.629  -1.503 124.824  0.00  0.00    +0.000 HD
BRANCH   7   9
ATOM      9  C   UNL     1      -8.394  -2.913 123.802  0.00  0.00    +0.000 C 
BRANCH   9  10
ATOM     10  C   UNL     1      -7.506  -1.920 123.055  0.00  0.00    +0.000 C 
BRANCH  10  12
ATOM     11  C   UNL     1      -5.822  -3.525 124.008  0.00  0.00    +0.000 C 
ATOM     12  C   UNL     1      -6.036  -2.146 123.411  0.00  0.00    +0.000 C 
ENDBRANCH  10  12
ENDBRANCH   9  10
ENDBRANCH   7   9
ENDBRANCH   1   7
BRANCH   4  13
ATOM     13  C   UNL     1      -7.037  -3.355 130.224  0.00  0.00    +0.000 C 
ATOM     14  O   UNL     1      -7.271  -2.682 131.223  0.00  0.00    +0.000 OA
BRANCH  13  15
ATOM     15  O   UNL     1      -6.322  -4.515 130.212  0.00  0.00    +0.000 OA
BRANCH  15  16
ATOM     16  C   UNL     1      -5.088  -4.430 130.955  0.00  0.00    +0.000 C 
BRANCH  16  17
ATOM     17  C   UNL     1      -4.002  -3.684 130.152  0.00  0.00    +0.000 C 
BRANCH  17  18
ATOM     18  N   UNL     1      -3.351  -2.589 130.904  0.00  0.00    +0.000 NA
ATOM     19  C   UNL     1      -3.774  -1.274 130.416  0.00  0.00    +0.000 C 
ATOM     20  C   UNL     1      -3.661  -2.690 132.335  0.00  0.00    +0.000 C 
ENDBRANCH  17  18
ENDBRANCH  16  17
ENDBRANCH  15  16
ENDBRANCH  13  15
ENDBRANCH   4  13
TORSDOF 9
ENDMDL
MODEL 4
REMARK VINA RESULT:      -5.3      9.554     11.429
REMARK  Name = Tetracaine
REMARK  12 active torsions:
REMARK  status: ('A' for Active; 'I' for Inactive)
REMARK    1  A    between atoms: C_1  and  C_2
REMARK    2  A    between atoms: C_2  and  C_3
REMARK    3  A    between atoms: C_3  and  C_4
REMARK    4  A    between atoms: C_4  and  N_5
REMARK    5  A    between atoms: N_5  and  C_6
REMARK    6  A    between atoms: C_9  and  C_12
REMARK    7  A    between atoms: C_12  and  O_14
REMARK    8  A    between atoms: O_14  and  C_15
REMARK    9  A    between atoms: C_15  and  C_16
REMARK   10  A    between atoms: C_16  and  N_17
REMARK   11  A    between atoms: N_17  and  C_18
REMARK   12  A    between atoms: N_17  and  C_19
REMARK                            x       y       z     vdW  Elec       q    Type
REMARK                         _______ _______ _______ _____ _____    ______ ____
ROOT
ATOM      1  C   UNL     1      -7.910  -2.804 129.159  0.00  0.00    +0.000 A 
ATOM      2  C   UNL     1      -8.673  -3.759 128.478  0.00  0.00    +0.000 A 
ATOM      3  C   UNL     1      -8.848  -3.692 127.088  0.00  0.00    +0.000 A 
ATOM      4  C   UNL     1      -8.320  -2.623 126.350  0.00  0.00    +0.000 A 
ATOM      5  C   UNL     1      -7.562  -1.662 127.020  0.00  0.00    +0.000 A 
ATOM      6  C   UNL     1      -7.371  -1.753 128.409  0.00  0.00    +0.000 A 
ENDROOT
BRANCH   1   7
ATOM      7  N   UNL     1      -7.749  -2.924 130.528  0.00  0.00    +0.000 N 
ATOM      8  H   UNL     1      -8.572  -3.183 131.066  0.00  0.00    +0.000 HD
BRANCH   7   9
ATOM      9  C   UNL     1      -6.442  -3.047 131.147  0.00  0.00    +0.000 C 
BRANCH   9  10
ATOM     10  C   UNL     1      -5.728  -4.308 130.667  0.00  0.00    +0.000 C 
BRANCH  10  12
ATOM     11  C   UNL     1      -4.117  -2.481 130.046  0.00  0.00    +0.000 C 
ATOM     12  C   UNL     1      -4.486  -3.941 129.854  0.00  0.00    +0.000 C 
ENDBRANCH  10  12
ENDBRANCH   9  10
ENDBRANCH   7   9
ENDBRANCH   1   7
BRANCH   4  13
ATOM     13  C   UNL     1      -8.640  -2.530 124.895  0.00  0.00    +0.000 C 
ATOM     14  O   UNL     1      -9.764  -2.754 124.456  0.00  0.00    +0.000 OA
BRANCH  13  15
ATOM     15  O   UNL     1      -7.573  -2.131 124.148  0.00  0.00    +0.000 OA
BRANCH  15  16
ATOM     16  C   UNL     1      -7.931  -1.225 123.083  0.00  0.00    +0.000 C 
BRANCH  16  17
ATOM     17  C   UNL     1      -7.870   0.243 123.553  0.00  0.00    +0.000 C 
BRANCH  17  18
ATOM     18  N   UNL     1      -9.179   0.934 123.521  0.00  0.00    +0.000 NA
ATOM     19  C   UNL     1      -9.763   1.043 124.860  0.00  0.00    +0.000 C 
ATOM     20  C   UNL     1      -9.038   2.278 122.949  0.00  0.00    +0.000 C 
ENDBRANCH  17  18
ENDBRANCH  16  17
ENDBRANCH  15  16
ENDBRANCH  13  15
ENDBRANCH   4  13
TORSDOF 9
ENDMDL
MODEL 5
REMARK VINA RESULT:      -5.2      2.354      7.628
REMARK  Name = Tetracaine
REMARK  12 active torsions:
REMARK  status: ('A' for Active; 'I' for Inactive)
REMARK    1  A    between atoms: C_1  and  C_2
REMARK    2  A    between atoms: C_2  and  C_3
REMARK    3  A    between atoms: C_3  and  C_4
REMARK    4  A    between atoms: C_4  and  N_5
REMARK    5  A    between atoms: N_5  and  C_6
REMARK    6  A    between atoms: C_9  and  C_12
REMARK    7  A    between atoms: C_12  and  O_14
REMARK    8  A    between atoms: O_14  and  C_15
REMARK    9  A    between atoms: C_15  and  C_16
REMARK   10  A    between atoms: C_16  and  N_17
REMARK   11  A    between atoms: N_17  and  C_18
REMARK   12  A    between atoms: N_17  and  C_19
REMARK                            x       y       z     vdW  Elec       q    Type
REMARK                         _______ _______ _______ _____ _____    ______ ____
ROOT
ATOM      1  C   UNL     1      -5.665   6.229 132.290  0.00  0.00    +0.000 A 
ATOM      2  C   UNL     1      -6.217   6.830 131.155  0.00  0.00    +0.000 A 
ATOM      3  C   UNL     1      -7.606   6.910 130.978  0.00  0.00    +0.000 A 
ATOM      4  C   UNL     1      -8.481   6.324 131.905  0.00  0.00    +0.000 A 
ATOM      5  C   UNL     1      -7.940   5.716 133.038  0.00  0.00    +0.000 A 
ATOM      6  C   UNL     1      -6.547   5.665 133.218  0.00  0.00    +0.000 A 
ENDROOT
BRANCH   1   7
ATOM      7  N   UNL     1      -4.288   6.192 132.429  0.00  0.00    +0.000 N 
ATOM      8  H   UNL     1      -3.878   5.305 132.709  0.00  0.00    +0.000 HD
BRANCH   7   9
ATOM      9  C   UNL     1      -3.425   7.212 131.864  0.00  0.00    +0.000 C 
BRANCH   9  10
ATOM     10  C   UNL     1      -2.247   6.583 131.123  0.00  0.00    +0.000 C 
BRANCH  10  12
ATOM     11  C   UNL     1      -0.314   7.175 132.617  0.00  0.00    +0.000 C 
ATOM     12  C   UNL     1      -1.211   6.057 132.117  0.00  0.00    +0.000 C 
ENDBRANCH  10  12
ENDBRANCH   9  10
ENDBRANCH   7   9
ENDBRANCH   1   7
BRANCH   4  13
ATOM     13  C   UNL     1      -9.944   6.325 131.609  0.00  0.00    +0.000 C 
ATOM     14  O   UNL     1     -10.788   6.523 132.477  0.00  0.00    +0.000 OA
BRANCH  13  15
ATOM     15  O   UNL     1     -10.211   6.131 130.286  0.00  0.00    +0.000 OA
BRANCH  15  16
ATOM     16  C   UNL     1     -11.577   5.741 130.034  0.00  0.00    +0.000 C 
BRANCH  16  17
ATOM     17  C   UNL     1     -12.260   6.704 129.041  0.00  0.00    +0.000 C 
BRANCH  17  18
ATOM     18  N   UNL     1     -11.658   8.055 129.011  0.00  0.00    +0.000 NA
ATOM     19  C   UNL     1     -10.913   8.286 127.770  0.00  0.00    +0.000 C 
ATOM     20  C   UNL     1     -12.695   9.085 129.145  0.00  0.00    +0.000 C 
ENDBRANCH  17  18
ENDBRANCH  16  17
ENDBRANCH  15  16
ENDBRANCH  13  15
ENDBRANCH   4  13
TORSDOF 9
ENDMDL
MODEL 6
REMARK VINA RESULT:      -5.2      8.957     10.581
REMARK  Name = Tetracaine
REMARK  12 active torsions:
REMARK  status: ('A' for Active; 'I' for Inactive)
REMARK    1  A    between atoms: C_1  and  C_2
REMARK    2  A    between atoms: C_2  and  C_3
REMARK    3  A    between atoms: C_3  and  C_4
REMARK    4  A    between atoms: C_4  and  N_5
REMARK    5  A    between atoms: N_5  and  C_6
REMARK    6  A    between atoms: C_9  and  C_12
REMARK    7  A    between atoms: C_12  and  O_14
REMARK    8  A    between atoms: O_14  and  C_15
REMARK    9  A    between atoms: C_15  and  C_16
REMARK   10  A    between atoms: C_16  and  N_17
REMARK   11  A    between atoms: N_17  and  C_18
REMARK   12  A    between atoms: N_17  and  C_19
REMARK                            x       y       z     vdW  Elec       q    Type
REMARK                         _______ _______ _______ _____ _____    ______ ____
ROOT
ATOM      1  C   UNL     1      -7.059   3.266 122.901  0.00  0.00    +0.000 A 
ATOM      2  C   UNL     1      -6.584   2.767 124.119  0.00  0.00    +0.000 A 
ATOM      3  C   UNL     1      -7.359   1.898 124.900  0.00  0.00    +0.000 A 
ATOM      4  C   UNL     1      -8.663   1.560 124.515  0.00  0.00    +0.000 A 
ATOM      5  C   UNL     1      -9.150   2.056 123.305  0.00  0.00    +0.000 A 
ATOM      6  C   UNL     1      -8.355   2.905 122.517  0.00  0.00    +0.000 A 
ENDROOT
BRANCH   1   7
ATOM      7  N   UNL     1      -6.249   4.105 122.156  0.00  0.00    +0.000 N 
ATOM      8  H   UNL     1      -5.689   4.778 122.670  0.00  0.00    +0.000 HD
BRANCH   7   9
ATOM      9  C   UNL     1      -5.911   3.826 120.772  0.00  0.00    +0.000 C 
BRANCH   9  10
ATOM     10  C   UNL     1      -5.296   5.053 120.103  0.00  0.00    +0.000 C 
BRANCH  10  12
ATOM     11  C   UNL     1      -7.300   4.550 118.671  0.00  0.00    +0.000 C 
ATOM     12  C   UNL     1      -6.038   5.383 118.808  0.00  0.00    +0.000 C 
ENDBRANCH  10  12
ENDBRANCH   9  10
ENDBRANCH   7   9
ENDBRANCH   1   7
BRANCH   4  13
ATOM     13  C   UNL     1      -9.493   0.735 125.442  0.00  0.00    +0.000 C 
ATOM     14  O   UNL     1     -10.717   0.809 125.468  0.00  0.00    +0.000 OA
BRANCH  13  15
ATOM     15  O   UNL     1      -8.744  -0.117 126.199  0.00  0.00    +0.000 OA
BRANCH  15  16
ATOM     16  C   UNL     1      -8.846  -1.492 125.775  0.00  0.00    +0.000 C 
BRANCH  16  17
ATOM     17  C   UNL     1      -7.503  -2.232 125.947  0.00  0.00    +0.000 C 
BRANCH  17  18
ATOM     18  N   UNL     1      -6.485  -1.861 124.939  0.00  0.00    +0.000 NA
ATOM     19  C   UNL     1      -5.363  -1.139 125.546  0.00  0.00    +0.000 C 
ATOM     20  C   UNL     1      -5.973  -3.057 124.261  0.00  0.00    +0.000 C 
ENDBRANCH  17  18
ENDBRANCH  16  17
ENDBRANCH  15  16
ENDBRANCH  13  15
ENDBRANCH   4  13
TORSDOF 9
ENDMDL
MODEL 7
REMARK VINA RESULT:      -5.1      1.954      2.247
REMARK  Name = Tetracaine
REMARK  12 active torsions:
REMARK  status: ('A' for Active; 'I' for Inactive)
REMARK    1  A    between atoms: C_1  and  C_2
REMARK    2  A    between atoms: C_2  and  C_3
REMARK    3  A    between atoms: C_3  and  C_4
REMARK    4  A    between atoms: C_4  and  N_5
REMARK    5  A    between atoms: N_5  and  C_6
REMARK    6  A    between atoms: C_9  and  C_12
REMARK    7  A    between atoms: C_12  and  O_14
REMARK    8  A    between atoms: O_14  and  C_15
REMARK    9  A    between atoms: C_15  and  C_16
REMARK   10  A    between atoms: C_16  and  N_17
REMARK   11  A    between atoms: N_17  and  C_18
REMARK   12  A    between atoms: N_17  and  C_19
REMARK                            x       y       z     vdW  Elec       q    Type
REMARK                         _______ _______ _______ _____ _____    ______ ____
ROOT
ATOM      1  C   UNL     1     -10.616   5.741 131.157  0.00  0.00    +0.000 A 
ATOM      2  C   UNL     1      -9.551   6.571 131.524  0.00  0.00    +0.000 A 
ATOM      3  C   UNL     1      -8.236   6.280 131.136  0.00  0.00    +0.000 A 
ATOM      4  C   UNL     1      -7.941   5.107 130.425  0.00  0.00    +0.000 A 
ATOM      5  C   UNL     1      -8.995   4.269 130.059  0.00  0.00    +0.000 A 
ATOM      6  C   UNL     1     -10.313   4.584 130.431  0.00  0.00    +0.000 A 
ENDROOT
BRANCH   1   7
ATOM      7  N   UNL     1     -11.899   6.081 131.547  0.00  0.00    +0.000 N 
ATOM      8  H   UNL     1     -12.290   5.571 132.335  0.00  0.00    +0.000 HD
BRANCH   7   9
ATOM      9  C   UNL     1     -12.532   7.319 131.134  0.00  0.00    +0.000 C 
BRANCH   9  10
ATOM     10  C   UNL     1     -12.786   7.327 129.628  0.00  0.00    +0.000 C 
BRANCH  10  12
ATOM     11  C   UNL     1     -10.816   8.341 128.441  0.00  0.00    +0.000 C 
ATOM     12  C   UNL     1     -12.206   8.593 128.995  0.00  0.00    +0.000 C 
ENDBRANCH  10  12
ENDBRANCH   9  10
ENDBRANCH   7   9
ENDBRANCH   1   7
BRANCH   4  13
ATOM     13  C   UNL     1      -6.512   4.778 130.145  0.00  0.00    +0.000 C 
ATOM     14  O   UNL     1      -5.839   4.088 130.904  0.00  0.00    +0.000 OA
BRANCH  13  15
ATOM     15  O   UNL     1      -6.080   5.288 128.958  0.00  0.00    +0.000 OA
BRANCH  15  16
ATOM     16  C   UNL     1      -5.301   4.349 128.187  0.00  0.00    +0.000 C 
BRANCH  16  17
ATOM     17  C   UNL     1      -4.421   5.074 127.146  0.00  0.00    +0.000 C 
BRANCH  17  18
ATOM     18  N   UNL     1      -2.969   4.927 127.387  0.00  0.00    +0.000 NA
ATOM     19  C   UNL     1      -2.518   5.771 128.496  0.00  0.00    +0.000 C 
ATOM     20  C   UNL     1      -2.634   3.529 127.683  0.00  0.00    +0.000 C 
ENDBRANCH  17  18
ENDBRANCH  16  17
ENDBRANCH  15  16
ENDBRANCH  13  15
ENDBRANCH   4  13
TORSDOF 9
ENDMDL
MODEL 8
REMARK VINA RESULT:      -5.1      1.663      2.252
REMARK  Name = Tetracaine
REMARK  12 active torsions:
REMARK  status: ('A' for Active; 'I' for Inactive)
REMARK    1  A    between atoms: C_1  and  C_2
REMARK    2  A    between atoms: C_2  and  C_3
REMARK    3  A    between atoms: C_3  and  C_4
REMARK    4  A    between atoms: C_4  and  N_5
REMARK    5  A    between atoms: N_5  and  C_6
REMARK    6  A    between atoms: C_9  and  C_12
REMARK    7  A    between atoms: C_12  and  O_14
REMARK    8  A    between atoms: O_14  and  C_15
REMARK    9  A    between atoms: C_15  and  C_16
REMARK   10  A    between atoms: C_16  and  N_17
REMARK   11  A    between atoms: N_17  and  C_18
REMARK   12  A    between atoms: N_17  and  C_19
REMARK                            x       y       z     vdW  Elec       q    Type
REMARK                         _______ _______ _______ _____ _____    ______ ____
ROOT
ATOM      1  C   UNL     1     -11.324   6.990 130.682  0.00  0.00    +0.000 A 
ATOM      2  C   UNL     1     -10.155   7.353 130.005  0.00  0.00    +0.000 A 
ATOM      3  C   UNL     1      -8.890   7.017 130.509  0.00  0.00    +0.000 A 
ATOM      4  C   UNL     1      -8.760   6.367 131.744  0.00  0.00    +0.000 A 
ATOM      5  C   UNL     1      -9.920   6.005 132.431  0.00  0.00    +0.000 A 
ATOM      6  C   UNL     1     -11.183   6.324 131.904  0.00  0.00    +0.000 A 
ENDROOT
BRANCH   1   7
ATOM      7  N   UNL     1     -12.550   7.327 130.135  0.00  0.00    +0.000 N 
ATOM      8  H   UNL     1     -13.367   6.857 130.515  0.00  0.00    +0.000 HD
BRANCH   7   9
ATOM      9  C   UNL     1     -12.740   8.526 129.342  0.00  0.00    +0.000 C 
BRANCH   9  10
ATOM     10  C   UNL     1     -13.539   8.223 128.076  0.00  0.00    +0.000 C 
BRANCH  10  12
ATOM     11  C   UNL     1     -11.702   7.378 126.583  0.00  0.00    +0.000 C 
ATOM     12  C   UNL     1     -12.956   7.008 127.355  0.00  0.00    +0.000 C 
ENDBRANCH  10  12
ENDBRANCH   9  10
ENDBRANCH   7   9
ENDBRANCH   1   7
BRANCH   4  13
ATOM     13  C   UNL     1      -7.391   6.144 132.296  0.00  0.00    +0.000 C 
ATOM     14  O   UNL     1      -7.202   5.581 133.370  0.00  0.00    +0.000 OA
BRANCH  13  15
ATOM     15  O   UNL     1      -6.410   6.590 131.462  0.00  0.00    +0.000 OA
BRANCH  15  16
ATOM     16  C   UNL     1      -5.329   5.648 131.300  0.00  0.00    +0.000 C 
BRANCH  16  17
ATOM     17  C   UNL     1      -4.066   6.335 130.741  0.00  0.00    +0.000 C 
BRANCH  17  18
ATOM     18  N   UNL     1      -3.020   6.579 131.758  0.00  0.00    +0.000 NA
ATOM     19  C   UNL     1      -2.896   8.004 132.074  0.00  0.00    +0.000 C 
ATOM     20  C   UNL     1      -3.317   5.841 132.991  0.00  0.00    +0.000 C 
ENDBRANCH  17  18
ENDBRANCH  16  17
ENDBRANCH  15  16
ENDBRANCH  13  15
ENDBRANCH   4  13
TORSDOF 9
ENDMDL
MODEL 9
REMARK VINA RESULT:      -5.0     10.000     11.872
REMARK  Name = Tetracaine
REMARK  12 active torsions:
REMARK  status: ('A' for Active; 'I' for Inactive)
REMARK    1  A    between atoms: C_1  and  C_2
REMARK    2  A    between atoms: C_2  and  C_3
REMARK    3  A    between atoms: C_3  and  C_4
REMARK    4  A    between atoms: C_4  and  N_5
REMARK    5  A    between atoms: N_5  and  C_6
REMARK    6  A    between atoms: C_9  and  C_12
REMARK    7  A    between atoms: C_12  and  O_14
REMARK    8  A    between atoms: O_14  and  C_15
REMARK    9  A    between atoms: C_15  and  C_16
REMARK   10  A    between atoms: C_16  and  N_17
REMARK   11  A    between atoms: N_17  and  C_18
REMARK   12  A    between atoms: N_17  and  C_19
REMARK                            x       y       z     vdW  Elec       q    Type
REMARK                         _______ _______ _______ _____ _____    ______ ____
ROOT
ATOM      1  C   UNL     1      -7.107  -2.345 126.316  0.00  0.00    +0.000 A 
ATOM      2  C   UNL     1      -8.170  -2.923 127.017  0.00  0.00    +0.000 A 
ATOM      3  C   UNL     1      -8.041  -3.280 128.368  0.00  0.00    +0.000 A 
ATOM      4  C   UNL     1      -6.817  -3.130 129.034  0.00  0.00    +0.000 A 
ATOM      5  C   UNL     1      -5.748  -2.560 128.343  0.00  0.00    +0.000 A 
ATOM      6  C   UNL     1      -5.896  -2.181 126.997  0.00  0.00    +0.000 A 
ENDROOT
BRANCH   1   7
ATOM      7  N   UNL     1      -7.289  -1.991 124.990  0.00  0.00    +0.000 N 
ATOM      8  H   UNL     1      -8.244  -1.817 124.689  0.00  0.00    +0.000 HD
BRANCH   7   9
ATOM      9  C   UNL     1      -6.197  -1.527 124.156  0.00  0.00    +0.000 C 
BRANCH   9  10
ATOM     10  C   UNL     1      -5.766  -2.608 123.168  0.00  0.00    +0.000 C 
BRANCH  10  12
ATOM     11  C   UNL     1      -4.540  -4.752 123.635  0.00  0.00    +0.000 C 
ATOM     12  C   UNL     1      -4.444  -3.237 123.607  0.00  0.00    +0.000 C 
ENDBRANCH  10  12
ENDBRANCH   9  10
ENDBRANCH   7   9
ENDBRANCH   1   7
BRANCH   4  13
ATOM     13  C   UNL     1      -6.694  -3.642 130.431  0.00  0.00    +0.000 C 
ATOM     14  O   UNL     1      -5.880  -4.504 130.744  0.00  0.00    +0.000 OA
BRANCH  13  15
ATOM     15  O   UNL     1      -7.543  -3.016 131.295  0.00  0.00    +0.000 OA
BRANCH  15  16
ATOM     16  C   UNL     1      -6.899  -1.997 132.088  0.00  0.00    +0.000 C 
BRANCH  16  17
ATOM     17  C   UNL     1      -6.600  -2.503 133.514  0.00  0.00    +0.000 C 
BRANCH  17  18
ATOM     18  N   UNL     1      -7.371  -3.707 133.894  0.00  0.00    +0.000 NA
ATOM     19  C   UNL     1      -6.489  -4.817 134.264  0.00  0.00    +0.000 C 
ATOM     20  C   UNL     1      -8.267  -3.413 135.018  0.00  0.00    +0.000 C 
ENDBRANCH  17  18
ENDBRANCH  16  17
ENDBRANCH  15  16
ENDBRANCH  13  15
ENDBRANCH   4  13
TORSDOF 9
ENDMDL
