MODEL 1
REMARK VINA RESULT:      -6.4      0.000      0.000
REMARK  Name = Tetryzoline
REMARK  1 active torsions:
REMARK  status: ('A' for Active; 'I' for Inactive)
REMARK    1  A    between atoms: C_4  and  C_6
REMARK                            x       y       z     vdW  Elec       q    Type
REMARK                         _______ _______ _______ _____ _____    ______ ____
ROOT
ATOM      1  C   UNL     1     -11.279   5.885 130.602  0.00  0.00    +0.000 C 
ATOM      2  C   UNL     1     -11.729   6.664 131.842  0.00  0.00    +0.000 C 
ATOM      3  C   UNL     1     -13.013   7.387 131.449  0.00  0.00    +0.000 C 
ATOM      4  C   UNL     1     -12.731   8.420 130.356  0.00  0.00    +0.000 C 
ATOM      5  C   UNL     1     -11.822   7.922 129.243  0.00  0.00    +0.000 A 
ATOM      6  C   UNL     1     -11.845   8.594 128.011  0.00  0.00    +0.000 A 
ATOM      7  C   UNL     1     -11.090   8.122 126.940  0.00  0.00    +0.000 A 
ATOM      8  C   UNL     1     -10.275   7.002 127.102  0.00  0.00    +0.000 A 
ATOM      9  C   UNL     1     -10.211   6.343 128.334  0.00  0.00    +0.000 A 
ATOM     10  C   UNL     1     -10.995   6.774 129.408  0.00  0.00    +0.000 A 
ENDROOT
BRANCH   1  14
ATOM     11  C   UNL     1      -9.218   3.333 132.312  0.00  0.00    +0.000 C 
ATOM     12  C   UNL     1      -9.876   2.512 131.201  0.00  0.00    +0.000 C 
ATOM     13  N   UNL     1     -10.503   3.496 130.237  0.00  0.00    +0.000 NA
ATOM     14  C   UNL     1     -10.585   4.590 130.949  0.00  0.00    +0.000 C 
ATOM     15  N   UNL     1      -9.957   4.543 132.172  0.00  0.00    +0.000 N 
ATOM     16  H   UNL     1      -9.931   5.303 132.830  0.00  0.00    +0.000 HD
ENDBRANCH   1  14
TORSDOF 1
ENDMDL
MODEL 2
REMARK VINA RESULT:      -6.2      8.151     10.547
REMARK  Name = Tetryzoline
REMARK  1 active torsions:
REMARK  status: ('A' for Active; 'I' for Inactive)
REMARK    1  A    between atoms: C_4  and  C_6
REMARK                            x       y       z     vdW  Elec       q    Type
REMARK                         _______ _______ _______ _____ _____    ______ ____
ROOT
ATOM      1  C   UNL     1      -8.615  -0.873 124.091  0.00  0.00    +0.000 C 
ATOM      2  C   UNL     1      -8.502  -1.875 122.938  0.00  0.00    +0.000 C 
ATOM      3  C   UNL     1      -9.405  -3.048 123.303  0.00  0.00    +0.000 C 
ATOM      4  C   UNL     1      -8.882  -3.754 124.556  0.00  0.00    +0.000 C 
ATOM      5  C   UNL     1      -8.448  -2.815 125.670  0.00  0.00    +0.000 A 
ATOM      6  C   UNL     1      -8.370  -3.318 126.977  0.00  0.00    +0.000 A 
ATOM      7  C   UNL     1      -8.056  -2.472 128.039  0.00  0.00    +0.000 A 
ATOM      8  C   UNL     1      -7.775  -1.128 127.797  0.00  0.00    +0.000 A 
ATOM      9  C   UNL     1      -7.809  -0.617 126.496  0.00  0.00    +0.000 A 
ATOM     10  C   UNL     1      -8.167  -1.440 125.422  0.00  0.00    +0.000 A 
ENDROOT
BRANCH   1  14
ATOM     11  C   UNL     1      -7.213   2.376 123.011  0.00  0.00    +0.000 C 
ATOM     12  C   UNL     1      -8.715   2.604 122.823  0.00  0.00    +0.000 C 
ATOM     13  N   UNL     1      -9.425   1.464 123.520  0.00  0.00    +0.000 NA
ATOM     14  C   UNL     1      -8.487   0.560 123.631  0.00  0.00    +0.000 C 
ATOM     15  N   UNL     1      -7.225   0.977 123.278  0.00  0.00    +0.000 N 
ATOM     16  H   UNL     1      -6.402   0.398 123.310  0.00  0.00    +0.000 HD
ENDBRANCH   1  14
TORSDOF 1
ENDMDL
MODEL 3
REMARK VINA RESULT:      -6.1      1.840      2.119
REMARK  Name = Tetryzoline
REMARK  1 active torsions:
REMARK  status: ('A' for Active; 'I' for Inactive)
REMARK    1  A    between atoms: C_4  and  C_6
REMARK                            x       y       z     vdW  Elec       q    Type
REMARK                         _______ _______ _______ _____ _____    ______ ____
ROOT
ATOM      1  C   UNL     1     -10.095   6.017 130.201  0.00  0.00    +0.000 C 
ATOM      2  C   UNL     1     -10.224   6.354 131.690  0.00  0.00    +0.000 C 
ATOM      3  C   UNL     1     -11.718   6.363 131.997  0.00  0.00    +0.000 C 
ATOM      4  C   UNL     1     -12.414   7.487 131.226  0.00  0.00    +0.000 C 
ATOM      5  C   UNL     1     -11.983   7.611 129.773  0.00  0.00    +0.000 A 
ATOM      6  C   UNL     1     -12.831   8.283 128.880  0.00  0.00    +0.000 A 
ATOM      7  C   UNL     1     -12.514   8.349 127.525  0.00  0.00    +0.000 A 
ATOM      8  C   UNL     1     -11.329   7.782 127.059  0.00  0.00    +0.000 A 
ATOM      9  C   UNL     1     -10.453   7.141 127.942  0.00  0.00    +0.000 A 
ATOM     10  C   UNL     1     -10.775   7.026 129.298  0.00  0.00    +0.000 A 
ENDROOT
BRANCH   1  14
ATOM     11  C   UNL     1      -7.763   3.217 129.558  0.00  0.00    +0.000 C 
ATOM     12  C   UNL     1      -6.884   4.434 129.259  0.00  0.00    +0.000 C 
ATOM     13  N   UNL     1      -7.619   5.649 129.780  0.00  0.00    +0.000 NA
ATOM     14  C   UNL     1      -8.849   5.222 129.890  0.00  0.00    +0.000 C 
ATOM     15  N   UNL     1      -9.022   3.871 129.691  0.00  0.00    +0.000 N 
ATOM     16  H   UNL     1      -9.907   3.395 129.742  0.00  0.00    +0.000 HD
ENDBRANCH   1  14
TORSDOF 1
ENDMDL
MODEL 4
REMARK VINA RESULT:      -6.0      6.917      8.495
REMARK  Name = Tetryzoline
REMARK  1 active torsions:
REMARK  status: ('A' for Active; 'I' for Inactive)
REMARK    1  A    between atoms: C_4  and  C_6
REMARK                            x       y       z     vdW  Elec       q    Type
REMARK                         _______ _______ _______ _____ _____    ______ ____
ROOT
ATOM      1  C   UNL     1      -6.802   3.131 124.273  0.00  0.00    +0.000 C 
ATOM      2  C   UNL     1      -8.316   3.057 124.494  0.00  0.00    +0.000 C 
ATOM      3  C   UNL     1      -8.877   2.243 123.333  0.00  0.00    +0.000 C 
ATOM      4  C   UNL     1      -8.658   2.978 122.009  0.00  0.00    +0.000 C 
ATOM      5  C   UNL     1      -7.272   3.585 121.851  0.00  0.00    +0.000 A 
ATOM      6  C   UNL     1      -6.819   3.889 120.558  0.00  0.00    +0.000 A 
ATOM      7  C   UNL     1      -5.526   4.369 120.362  0.00  0.00    +0.000 A 
ATOM      8  C   UNL     1      -4.692   4.590 121.457  0.00  0.00    +0.000 A 
ATOM      9  C   UNL     1      -5.140   4.329 122.756  0.00  0.00    +0.000 A 
ATOM     10  C   UNL     1      -6.419   3.804 122.971  0.00  0.00    +0.000 A 
ENDROOT
BRANCH   1  14
ATOM     11  C   UNL     1      -5.392   4.213 127.517  0.00  0.00    +0.000 C 
ATOM     12  C   UNL     1      -4.887   2.771 127.420  0.00  0.00    +0.000 C 
ATOM     13  N   UNL     1      -5.131   2.312 126.000  0.00  0.00    +0.000 NA
ATOM     14  C   UNL     1      -6.025   3.162 125.568  0.00  0.00    +0.000 C 
ATOM     15  N   UNL     1      -6.290   4.216 126.411  0.00  0.00    +0.000 N 
ATOM     16  H   UNL     1      -6.951   4.950 126.219  0.00  0.00    +0.000 HD
ENDBRANCH   1  14
TORSDOF 1
ENDMDL
MODEL 5
REMARK VINA RESULT:      -5.9      9.598     10.392
REMARK  Name = Tetryzoline
REMARK  1 active torsions:
REMARK  status: ('A' for Active; 'I' for Inactive)
REMARK    1  A    between atoms: C_4  and  C_6
REMARK                            x       y       z     vdW  Elec       q    Type
REMARK                         _______ _______ _______ _____ _____    ______ ____
ROOT
ATOM      1  C   UNL     1      -6.585  -2.479 128.169  0.00  0.00    +0.000 C 
ATOM      2  C   UNL     1      -7.940  -2.522 128.882  0.00  0.00    +0.000 C 
ATOM      3  C   UNL     1      -8.687  -3.720 128.306  0.00  0.00    +0.000 C 
ATOM      4  C   UNL     1      -8.976  -3.505 126.819  0.00  0.00    +0.000 C 
ATOM      5  C   UNL     1      -7.804  -2.946 126.027  0.00  0.00    +0.000 A 
ATOM      6  C   UNL     1      -7.798  -3.114 124.634  0.00  0.00    +0.000 A 
ATOM      7  C   UNL     1      -6.706  -2.691 123.880  0.00  0.00    +0.000 A 
ATOM      8  C   UNL     1      -5.631  -2.060 124.505  0.00  0.00    +0.000 A 
ATOM      9  C   UNL     1      -5.637  -1.850 125.888  0.00  0.00    +0.000 A 
ATOM     10  C   UNL     1      -6.704  -2.308 126.668  0.00  0.00    +0.000 A 
ENDROOT
BRANCH   1  14
ATOM     11  C   UNL     1      -3.436  -2.200 130.091  0.00  0.00    +0.000 C 
ATOM     12  C   UNL     1      -4.025  -0.796 130.248  0.00  0.00    +0.000 C 
ATOM     13  N   UNL     1      -5.460  -0.864 129.771  0.00  0.00    +0.000 NA
ATOM     14  C   UNL     1      -5.478  -1.956 129.053  0.00  0.00    +0.000 C 
ATOM     15  N   UNL     1      -4.335  -2.718 129.114  0.00  0.00    +0.000 N 
ATOM     16  H   UNL     1      -4.198  -3.584 128.619  0.00  0.00    +0.000 HD
ENDBRANCH   1  14
TORSDOF 1
ENDMDL
MODEL 6
REMARK VINA RESULT:      -5.9      1.959      5.798
REMARK  Name = Tetryzoline
REMARK  1 active torsions:
REMARK  status: ('A' for Active; 'I' for Inactive)
REMARK    1  A    between atoms: C_4  and  C_6
REMARK                            x       y       z     vdW  Elec       q    Type
REMARK                         _______ _______ _______ _____ _____    ______ ____
ROOT
ATOM      1  C   UNL     1     -10.216   4.353 131.544  0.00  0.00    +0.000 C 
ATOM      2  C   UNL     1     -10.047   3.072 130.722  0.00  0.00    +0.000 C 
ATOM      3  C   UNL     1     -10.038   1.921 131.722  0.00  0.00    +0.000 C 
ATOM      4  C   UNL     1      -8.819   2.022 132.640  0.00  0.00    +0.000 C 
ATOM      5  C   UNL     1      -8.540   3.423 133.162  0.00  0.00    +0.000 A 
ATOM      6  C   UNL     1      -7.752   3.563 134.314  0.00  0.00    +0.000 A 
ATOM      7  C   UNL     1      -7.541   4.822 134.872  0.00  0.00    +0.000 A 
ATOM      8  C   UNL     1      -8.078   5.953 134.261  0.00  0.00    +0.000 A 
ATOM      9  C   UNL     1      -8.835   5.837 133.090  0.00  0.00    +0.000 A 
ATOM     10  C   UNL     1      -9.096   4.578 132.539  0.00  0.00    +0.000 A 
ENDROOT
BRANCH   1  14
ATOM     11  C   UNL     1     -12.674   6.996 130.732  0.00  0.00    +0.000 C 
ATOM     12  C   UNL     1     -11.791   6.994 129.482  0.00  0.00    +0.000 C 
ATOM     13  N   UNL     1     -10.935   5.748 129.549  0.00  0.00    +0.000 NA
ATOM     14  C   UNL     1     -10.999   5.417 130.812  0.00  0.00    +0.000 C 
ATOM     15  N   UNL     1     -11.898   6.138 131.563  0.00  0.00    +0.000 N 
ATOM     16  H   UNL     1     -12.061   6.000 132.546  0.00  0.00    +0.000 HD
ENDBRANCH   1  14
TORSDOF 1
ENDMDL
MODEL 7
REMARK VINA RESULT:      -5.8      7.614     10.011
REMARK  Name = Tetryzoline
REMARK  1 active torsions:
REMARK  status: ('A' for Active; 'I' for Inactive)
REMARK    1  A    between atoms: C_4  and  C_6
REMARK                            x       y       z     vdW  Elec       q    Type
REMARK                         _______ _______ _______ _____ _____    ______ ____
ROOT
ATOM      1  C   UNL     1      -8.553  -2.191 126.373  0.00  0.00    +0.000 C 
ATOM      2  C   UNL     1      -8.451  -3.707 126.568  0.00  0.00    +0.000 C 
ATOM      3  C   UNL     1      -9.152  -4.015 127.886  0.00  0.00    +0.000 C 
ATOM      4  C   UNL     1      -8.404  -3.367 129.053  0.00  0.00    +0.000 C 
ATOM      5  C   UNL     1      -7.963  -1.934 128.797  0.00  0.00    +0.000 A 
ATOM      6  C   UNL     1      -7.673  -1.117 129.900  0.00  0.00    +0.000 A 
ATOM      7  C   UNL     1      -7.346   0.224 129.714  0.00  0.00    +0.000 A 
ATOM      8  C   UNL     1      -7.264   0.748 128.425  0.00  0.00    +0.000 A 
ATOM      9  C   UNL     1      -7.512  -0.062 127.311  0.00  0.00    +0.000 A 
ATOM     10  C   UNL     1      -7.887  -1.399 127.479  0.00  0.00    +0.000 A 
ENDROOT
BRANCH   1  14
ATOM     11  C   UNL     1      -7.915  -1.893 122.741  0.00  0.00    +0.000 C 
ATOM     12  C   UNL     1      -9.232  -1.128 122.892  0.00  0.00    +0.000 C 
ATOM     13  N   UNL     1      -9.446  -0.906 124.374  0.00  0.00    +0.000 NA
ATOM     14  C   UNL     1      -8.660  -1.797 124.919  0.00  0.00    +0.000 C 
ATOM     15  N   UNL     1      -7.827  -2.458 124.046  0.00  0.00    +0.000 N 
ATOM     16  H   UNL     1      -7.166  -3.168 124.314  0.00  0.00    +0.000 HD
ENDBRANCH   1  14
TORSDOF 1
ENDMDL
MODEL 8
REMARK VINA RESULT:      -5.8      7.622      9.969
REMARK  Name = Tetryzoline
REMARK  1 active torsions:
REMARK  status: ('A' for Active; 'I' for Inactive)
REMARK    1  A    between atoms: C_4  and  C_6
REMARK                            x       y       z     vdW  Elec       q    Type
REMARK                         _______ _______ _______ _____ _____    ______ ____
ROOT
ATOM      1  C   UNL     1      -8.206   0.516 124.755  0.00  0.00    +0.000 C 
ATOM      2  C   UNL     1      -8.402   1.068 126.171  0.00  0.00    +0.000 C 
ATOM      3  C   UNL     1      -7.598   0.161 127.097  0.00  0.00    +0.000 C 
ATOM      4  C   UNL     1      -8.176  -1.255 127.090  0.00  0.00    +0.000 C 
ATOM      5  C   UNL     1      -8.530  -1.781 125.708  0.00  0.00    +0.000 A 
ATOM      6  C   UNL     1      -8.647  -3.168 125.530  0.00  0.00    +0.000 A 
ATOM      7  C   UNL     1      -8.890  -3.696 124.264  0.00  0.00    +0.000 A 
ATOM      8  C   UNL     1      -9.060  -2.842 123.174  0.00  0.00    +0.000 A 
ATOM      9  C   UNL     1      -8.984  -1.455 123.340  0.00  0.00    +0.000 A 
ATOM     10  C   UNL     1      -8.697  -0.908 124.594  0.00  0.00    +0.000 A 
ENDROOT
BRANCH   1  14
ATOM     11  C   UNL     1      -7.117   3.067 122.306  0.00  0.00    +0.000 C 
ATOM     12  C   UNL     1      -8.630   3.034 122.074  0.00  0.00    +0.000 C 
ATOM     13  N   UNL     1      -9.236   2.259 123.223  0.00  0.00    +0.000 NA
ATOM     14  C   UNL     1      -8.215   1.599 123.702  0.00  0.00    +0.000 C 
ATOM     15  N   UNL     1      -6.993   1.940 123.168  0.00  0.00    +0.000 N 
ATOM     16  H   UNL     1      -6.117   1.522 123.434  0.00  0.00    +0.000 HD
ENDBRANCH   1  14
TORSDOF 1
ENDMDL
MODEL 9
REMARK VINA RESULT:      -5.8      8.308     10.786
REMARK  Name = Tetryzoline
REMARK  1 active torsions:
REMARK  status: ('A' for Active; 'I' for Inactive)
REMARK    1  A    between atoms: C_4  and  C_6
REMARK                            x       y       z     vdW  Elec       q    Type
REMARK                         _______ _______ _______ _____ _____    ______ ____
ROOT
ATOM      1  C   UNL     1      -7.863  -0.585 124.777  0.00  0.00    +0.000 C 
ATOM      2  C   UNL     1      -8.492  -0.892 126.140  0.00  0.00    +0.000 C 
ATOM      3  C   UNL     1      -7.332  -1.080 127.111  0.00  0.00    +0.000 C 
ATOM      4  C   UNL     1      -6.501  -2.304 126.721  0.00  0.00    +0.000 C 
ATOM      5  C   UNL     1      -6.210  -2.415 125.232  0.00  0.00    +0.000 A 
ATOM      6  C   UNL     1      -5.132  -3.214 124.820  0.00  0.00    +0.000 A 
ATOM      7  C   UNL     1      -4.781  -3.278 123.473  0.00  0.00    +0.000 A 
ATOM      8  C   UNL     1      -5.528  -2.580 122.525  0.00  0.00    +0.000 A 
ATOM      9  C   UNL     1      -6.629  -1.810 122.914  0.00  0.00    +0.000 A 
ATOM     10  C   UNL     1      -6.970  -1.697 124.265  0.00  0.00    +0.000 A 
ENDROOT
BRANCH   1  14
ATOM     11  C   UNL     1      -9.047   2.377 122.903  0.00  0.00    +0.000 C 
ATOM     12  C   UNL     1     -10.140   1.352 122.593  0.00  0.00    +0.000 C 
ATOM     13  N   UNL     1      -9.943   0.193 123.546  0.00  0.00    +0.000 NA
ATOM     14  C   UNL     1      -8.708   0.351 123.944  0.00  0.00    +0.000 C 
ATOM     15  N   UNL     1      -8.106   1.522 123.546  0.00  0.00    +0.000 N 
ATOM     16  H   UNL     1      -7.162   1.786 123.773  0.00  0.00    +0.000 HD
ENDBRANCH   1  14
TORSDOF 1
ENDMDL
