MODEL 1
REMARK VINA RESULT:      -4.7      0.000      0.000
REMARK  Name = Tetrofosmin
REMARK  23 active torsions:
REMARK  status: ('A' for Active; 'I' for Inactive)
REMARK    1  A    between atoms: C_1  and  C_2
REMARK    2  A    between atoms: C_2  and  O_3
REMARK    3  A    between atoms: O_3  and  C_4
REMARK    4  A    between atoms: C_4  and  C_5
REMARK    5  A    between atoms: C_5  and  P_6
REMARK    6  A    between atoms: P_6  and  C_7
REMARK    7  A    between atoms: P_6  and  C_12
REMARK    8  A    between atoms: C_7  and  C_8
REMARK    9  A    between atoms: C_8  and  O_9
REMARK   10  A    between atoms: O_9  and  C_10
REMARK   11  A    between atoms: C_10  and  C_11
REMARK   12  A    between atoms: C_12  and  C_13
REMARK   13  A    between atoms: C_13  and  P_14
REMARK   14  A    between atoms: P_14  and  C_15
REMARK   15  A    between atoms: P_14  and  C_20
REMARK   16  A    between atoms: C_15  and  C_16
REMARK   17  A    between atoms: C_16  and  O_17
REMARK   18  A    between atoms: O_17  and  C_18
REMARK   19  A    between atoms: C_18  and  C_19
REMARK   20  A    between atoms: C_20  and  C_21
REMARK   21  A    between atoms: C_21  and  O_22
REMARK   22  A    between atoms: O_22  and  C_23
REMARK   23  A    between atoms: C_23  and  C_24
REMARK                            x       y       z     vdW  Elec       q    Type
REMARK                         _______ _______ _______ _____ _____    ______ ____
ROOT
ATOM      1  C   UNL     1      -7.985   2.049 126.110  0.00  0.00    +0.000 C 
ENDROOT
BRANCH   1   2
ATOM      2  C   UNL     1      -9.068   1.139 125.516  0.00  0.00    +0.000 C 
BRANCH   2   3
ATOM      3  P   UNL     1      -8.502  -0.612 125.290  0.00  0.00    +0.000 P 
BRANCH   3   4
ATOM      4  C   UNL     1      -7.265  -0.799 126.666  0.00  0.00    +0.000 C 
BRANCH   4   5
ATOM      5  C   UNL     1      -6.957  -2.280 126.900  0.00  0.00    +0.000 C 
BRANCH   5   6
ATOM      6  O   UNL     1      -6.918  -2.599 128.293  0.00  0.00    +0.000 OA
BRANCH   6   7
ATOM      7  C   UNL     1      -8.230  -2.949 128.747  0.00  0.00    +0.000 C 
ATOM      8  C   UNL     1      -8.818  -4.013 127.844  0.00  0.00    +0.000 C 
ENDBRANCH   6   7
ENDBRANCH   5   6
ENDBRANCH   4   5
ENDBRANCH   3   4
BRANCH   3   9
ATOM      9  C   UNL     1      -7.376  -0.528 123.806  0.00  0.00    +0.000 C 
BRANCH   9  10
ATOM     10  C   UNL     1      -7.517  -1.786 122.956  0.00  0.00    +0.000 C 
BRANCH  10  11
ATOM     11  O   UNL     1      -6.871  -2.937 123.490  0.00  0.00    +0.000 OA
BRANCH  11  12
ATOM     12  C   UNL     1      -5.451  -2.734 123.388  0.00  0.00    +0.000 C 
ATOM     13  C   UNL     1      -4.730  -3.977 123.844  0.00  0.00    +0.000 C 
ENDBRANCH  11  12
ENDBRANCH  10  11
ENDBRANCH   9  10
ENDBRANCH   3   9
ENDBRANCH   2   3
ENDBRANCH   1   2
BRANCH   1  14
ATOM     14  P   UNL     1      -7.604   3.535 125.111  0.00  0.00    +0.000 P 
BRANCH  14  15
ATOM     15  C   UNL     1      -8.300   3.013 123.479  0.00  0.00    +0.000 C 
BRANCH  15  16
ATOM     16  C   UNL     1      -7.241   3.142 122.399  0.00  0.00    +0.000 C 
BRANCH  16  17
ATOM     17  O   UNL     1      -7.725   3.653 121.166  0.00  0.00    +0.000 OA
BRANCH  17  18
ATOM     18  C   UNL     1      -6.600   3.834 120.294  0.00  0.00    +0.000 C 
ATOM     19  C   UNL     1      -5.345   3.891 121.120  0.00  0.00    +0.000 C 
ENDBRANCH  17  18
ENDBRANCH  16  17
ENDBRANCH  15  16
ENDBRANCH  14  15
BRANCH  14  20
ATOM     20  C   UNL     1      -5.742   3.364 124.918  0.00  0.00    +0.000 C 
BRANCH  20  21
ATOM     21  C   UNL     1      -5.021   3.914 126.148  0.00  0.00    +0.000 C 
BRANCH  21  22
ATOM     22  O   UNL     1      -4.024   3.064 126.713  0.00  0.00    +0.000 OA
BRANCH  22  24
ATOM     23  C   UNL     1      -1.618   2.931 126.547  0.00  0.00    +0.000 C 
ATOM     24  C   UNL     1      -2.804   3.822 126.817  0.00  0.00    +0.000 C 
ENDBRANCH  22  24
ENDBRANCH  21  22
ENDBRANCH  20  21
ENDBRANCH  14  20
ENDBRANCH   1  14
TORSDOF 19
ENDMDL
MODEL 2
REMARK VINA RESULT:      -4.5      1.063      7.830
REMARK  Name = Tetrofosmin
REMARK  23 active torsions:
REMARK  status: ('A' for Active; 'I' for Inactive)
REMARK    1  A    between atoms: C_1  and  C_2
REMARK    2  A    between atoms: C_2  and  O_3
REMARK    3  A    between atoms: O_3  and  C_4
REMARK    4  A    between atoms: C_4  and  C_5
REMARK    5  A    between atoms: C_5  and  P_6
REMARK    6  A    between atoms: P_6  and  C_7
REMARK    7  A    between atoms: P_6  and  C_12
REMARK    8  A    between atoms: C_7  and  C_8
REMARK    9  A    between atoms: C_8  and  O_9
REMARK   10  A    between atoms: O_9  and  C_10
REMARK   11  A    between atoms: C_10  and  C_11
REMARK   12  A    between atoms: C_12  and  C_13
REMARK   13  A    between atoms: C_13  and  P_14
REMARK   14  A    between atoms: P_14  and  C_15
REMARK   15  A    between atoms: P_14  and  C_20
REMARK   16  A    between atoms: C_15  and  C_16
REMARK   17  A    between atoms: C_16  and  O_17
REMARK   18  A    between atoms: O_17  and  C_18
REMARK   19  A    between atoms: C_18  and  C_19
REMARK   20  A    between atoms: C_20  and  C_21
REMARK   21  A    between atoms: C_21  and  O_22
REMARK   22  A    between atoms: O_22  and  C_23
REMARK   23  A    between atoms: C_23  and  C_24
REMARK                            x       y       z     vdW  Elec       q    Type
REMARK                         _______ _______ _______ _____ _____    ______ ____
ROOT
ATOM      1  C   UNL     1      -8.424   0.979 125.472  0.00  0.00    +0.000 C 
ENDROOT
BRANCH   1   2
ATOM      2  C   UNL     1      -7.459   1.711 124.530  0.00  0.00    +0.000 C 
BRANCH   2   3
ATOM      3  P   UNL     1      -7.301   3.518 124.913  0.00  0.00    +0.000 P 
BRANCH   3   4
ATOM      4  C   UNL     1      -5.975   4.052 123.723  0.00  0.00    +0.000 C 
BRANCH   4   5
ATOM      5  C   UNL     1      -6.233   3.446 122.341  0.00  0.00    +0.000 C 
BRANCH   5   6
ATOM      6  O   UNL     1      -5.384   4.022 121.344  0.00  0.00    +0.000 OA
BRANCH   6   7
ATOM      7  C   UNL     1      -6.168   4.428 120.217  0.00  0.00    +0.000 C 
ATOM      8  C   UNL     1      -5.403   5.445 119.400  0.00  0.00    +0.000 C 
ENDBRANCH   6   7
ENDBRANCH   5   6
ENDBRANCH   4   5
ENDBRANCH   3   4
BRANCH   3   9
ATOM      9  C   UNL     1      -6.369   3.552 126.527  0.00  0.00    +0.000 C 
BRANCH   9  10
ATOM     10  C   UNL     1      -4.880   3.771 126.280  0.00  0.00    +0.000 C 
BRANCH  10  11
ATOM     11  O   UNL     1      -4.082   2.596 126.389  0.00  0.00    +0.000 OA
BRANCH  11  12
ATOM     12  C   UNL     1      -2.963   2.900 127.239  0.00  0.00    +0.000 C 
ATOM     13  C   UNL     1      -1.741   3.149 126.393  0.00  0.00    +0.000 C 
ENDBRANCH  11  12
ENDBRANCH  10  11
ENDBRANCH   9  10
ENDBRANCH   3   9
ENDBRANCH   2   3
ENDBRANCH   1   2
BRANCH   1  14
ATOM     14  P   UNL     1      -8.147  -0.826 125.599  0.00  0.00    +0.000 P 
BRANCH  14  15
ATOM     15  C   UNL     1      -7.456  -0.926 127.311  0.00  0.00    +0.000 C 
BRANCH  15  16
ATOM     16  C   UNL     1      -6.803  -2.279 127.528  0.00  0.00    +0.000 C 
BRANCH  16  17
ATOM     17  O   UNL     1      -7.003  -2.822 128.824  0.00  0.00    +0.000 OA
BRANCH  17  18
ATOM     18  C   UNL     1      -8.400  -3.110 128.968  0.00  0.00    +0.000 C 
ATOM     19  C   UNL     1      -8.793  -4.151 127.957  0.00  0.00    +0.000 C 
ENDBRANCH  17  18
ENDBRANCH  16  17
ENDBRANCH  15  16
ENDBRANCH  14  15
BRANCH  14  20
ATOM     20  C   UNL     1      -6.660  -1.035 124.466  0.00  0.00    +0.000 C 
BRANCH  20  21
ATOM     21  C   UNL     1      -6.869  -2.214 123.516  0.00  0.00    +0.000 C 
BRANCH  21  22
ATOM     22  O   UNL     1      -6.231  -3.433 123.893  0.00  0.00    +0.000 OA
BRANCH  22  24
ATOM     23  C   UNL     1      -4.196  -4.704 123.607  0.00  0.00    +0.000 C 
ATOM     24  C   UNL     1      -4.850  -3.349 123.495  0.00  0.00    +0.000 C 
ENDBRANCH  22  24
ENDBRANCH  21  22
ENDBRANCH  20  21
ENDBRANCH  14  20
ENDBRANCH   1  14
TORSDOF 19
ENDMDL
MODEL 3
REMARK VINA RESULT:      -4.5      3.133      6.102
REMARK  Name = Tetrofosmin
REMARK  23 active torsions:
REMARK  status: ('A' for Active; 'I' for Inactive)
REMARK    1  A    between atoms: C_1  and  C_2
REMARK    2  A    between atoms: C_2  and  O_3
REMARK    3  A    between atoms: O_3  and  C_4
REMARK    4  A    between atoms: C_4  and  C_5
REMARK    5  A    between atoms: C_5  and  P_6
REMARK    6  A    between atoms: P_6  and  C_7
REMARK    7  A    between atoms: P_6  and  C_12
REMARK    8  A    between atoms: C_7  and  C_8
REMARK    9  A    between atoms: C_8  and  O_9
REMARK   10  A    between atoms: O_9  and  C_10
REMARK   11  A    between atoms: C_10  and  C_11
REMARK   12  A    between atoms: C_12  and  C_13
REMARK   13  A    between atoms: C_13  and  P_14
REMARK   14  A    between atoms: P_14  and  C_15
REMARK   15  A    between atoms: P_14  and  C_20
REMARK   16  A    between atoms: C_15  and  C_16
REMARK   17  A    between atoms: C_16  and  O_17
REMARK   18  A    between atoms: O_17  and  C_18
REMARK   19  A    between atoms: C_18  and  C_19
REMARK   20  A    between atoms: C_20  and  C_21
REMARK   21  A    between atoms: C_21  and  O_22
REMARK   22  A    between atoms: O_22  and  C_23
REMARK   23  A    between atoms: C_23  and  C_24
REMARK                            x       y       z     vdW  Elec       q    Type
REMARK                         _______ _______ _______ _____ _____    ______ ____
ROOT
ATOM      1  C   UNL     1      -6.540   2.335 126.385  0.00  0.00    +0.000 C 
ENDROOT
BRANCH   1   2
ATOM      2  C   UNL     1      -6.609   2.454 124.857  0.00  0.00    +0.000 C 
BRANCH   2   3
ATOM      3  P   UNL     1      -8.344   2.575 124.215  0.00  0.00    +0.000 P 
BRANCH   3   4
ATOM      4  C   UNL     1      -8.834   0.785 124.087  0.00  0.00    +0.000 C 
BRANCH   4   5
ATOM      5  C   UNL     1      -9.777   0.582 122.898  0.00  0.00    +0.000 C 
BRANCH   5   6
ATOM      6  O   UNL     1     -10.087  -0.800 122.699  0.00  0.00    +0.000 OA
BRANCH   6   7
ATOM      7  C   UNL     1      -9.002  -1.611 123.162  0.00  0.00    +0.000 C 
ATOM      8  C   UNL     1      -9.453  -3.050 123.284  0.00  0.00    +0.000 C 
ENDBRANCH   6   7
ENDBRANCH   5   6
ENDBRANCH   4   5
ENDBRANCH   3   4
BRANCH   3   9
ATOM      9  C   UNL     1      -8.124   3.015 122.417  0.00  0.00    +0.000 C 
BRANCH   9  10
ATOM     10  C   UNL     1      -6.645   3.045 122.050  0.00  0.00    +0.000 C 
BRANCH  10  11
ATOM     11  O   UNL     1      -6.095   4.351 121.910  0.00  0.00    +0.000 OA
BRANCH  11  12
ATOM     12  C   UNL     1      -5.443   4.421 120.631  0.00  0.00    +0.000 C 
ATOM     13  C   UNL     1      -6.478   4.554 119.544  0.00  0.00    +0.000 C 
ENDBRANCH  11  12
ENDBRANCH  10  11
ENDBRANCH   9  10
ENDBRANCH   3   9
ENDBRANCH   2   3
ENDBRANCH   1   2
BRANCH   1  14
ATOM     14  P   UNL     1      -6.029   3.866 127.249  0.00  0.00    +0.000 P 
BRANCH  14  15
ATOM     15  C   UNL     1      -4.308   4.045 126.597  0.00  0.00    +0.000 C 
BRANCH  15  16
ATOM     16  C   UNL     1      -3.554   5.088 127.403  0.00  0.00    +0.000 C 
BRANCH  16  17
ATOM     17  O   UNL     1      -4.337   6.210 127.780  0.00  0.00    +0.000 OA
BRANCH  17  18
ATOM     18  C   UNL     1      -3.487   7.115 128.499  0.00  0.00    +0.000 C 
ATOM     19  C   UNL     1      -2.188   6.424 128.811  0.00  0.00    +0.000 C 
ENDBRANCH  17  18
ENDBRANCH  16  17
ENDBRANCH  15  16
ENDBRANCH  14  15
BRANCH  14  20
ATOM     20  C   UNL     1      -5.817   3.228 129.004  0.00  0.00    +0.000 C 
BRANCH  20  21
ATOM     21  C   UNL     1      -6.394   4.221 130.012  0.00  0.00    +0.000 C 
BRANCH  21  22
ATOM     22  O   UNL     1      -7.150   5.297 129.457  0.00  0.00    +0.000 OA
BRANCH  22  24
ATOM     23  C   UNL     1      -7.903   6.824 131.171  0.00  0.00    +0.000 C 
ATOM     24  C   UNL     1      -8.228   5.592 130.364  0.00  0.00    +0.000 C 
ENDBRANCH  22  24
ENDBRANCH  21  22
ENDBRANCH  20  21
ENDBRANCH  14  20
ENDBRANCH   1  14
TORSDOF 19
ENDMDL
MODEL 4
REMARK VINA RESULT:      -4.5      5.540      8.429
REMARK  Name = Tetrofosmin
REMARK  23 active torsions:
REMARK  status: ('A' for Active; 'I' for Inactive)
REMARK    1  A    between atoms: C_1  and  C_2
REMARK    2  A    between atoms: C_2  and  O_3
REMARK    3  A    between atoms: O_3  and  C_4
REMARK    4  A    between atoms: C_4  and  C_5
REMARK    5  A    between atoms: C_5  and  P_6
REMARK    6  A    between atoms: P_6  and  C_7
REMARK    7  A    between atoms: P_6  and  C_12
REMARK    8  A    between atoms: C_7  and  C_8
REMARK    9  A    between atoms: C_8  and  O_9
REMARK   10  A    between atoms: O_9  and  C_10
REMARK   11  A    between atoms: C_10  and  C_11
REMARK   12  A    between atoms: C_12  and  C_13
REMARK   13  A    between atoms: C_13  and  P_14
REMARK   14  A    between atoms: P_14  and  C_15
REMARK   15  A    between atoms: P_14  and  C_20
REMARK   16  A    between atoms: C_15  and  C_16
REMARK   17  A    between atoms: C_16  and  O_17
REMARK   18  A    between atoms: O_17  and  C_18
REMARK   19  A    between atoms: C_18  and  C_19
REMARK   20  A    between atoms: C_20  and  C_21
REMARK   21  A    between atoms: C_21  and  O_22
REMARK   22  A    between atoms: O_22  and  C_23
REMARK   23  A    between atoms: C_23  and  C_24
REMARK                            x       y       z     vdW  Elec       q    Type
REMARK                         _______ _______ _______ _____ _____    ______ ____
ROOT
ATOM      1  C   UNL     1      -7.730   5.026 131.101  0.00  0.00    +0.000 C 
ENDROOT
BRANCH   1   2
ATOM      2  C   UNL     1      -8.058   3.764 130.292  0.00  0.00    +0.000 C 
BRANCH   2   3
ATOM      3  P   UNL     1      -6.607   3.114 129.340  0.00  0.00    +0.000 P 
BRANCH   3   4
ATOM      4  C   UNL     1      -5.643   4.667 128.996  0.00  0.00    +0.000 C 
BRANCH   4   5
ATOM      5  C   UNL     1      -4.236   4.315 128.504  0.00  0.00    +0.000 C 
BRANCH   5   6
ATOM      6  O   UNL     1      -4.097   4.535 127.098  0.00  0.00    +0.000 OA
BRANCH   6   7
ATOM      7  C   UNL     1      -3.464   3.404 126.491  0.00  0.00    +0.000 C 
ATOM      8  C   UNL     1      -2.050   3.267 127.013  0.00  0.00    +0.000 C 
ENDBRANCH   6   7
ENDBRANCH   5   6
ENDBRANCH   4   5
ENDBRANCH   3   4
BRANCH   3   9
ATOM      9  C   UNL     1      -7.310   2.749 127.652  0.00  0.00    +0.000 C 
BRANCH   9  10
ATOM     10  C   UNL     1      -7.635   4.044 126.916  0.00  0.00    +0.000 C 
BRANCH  10  11
ATOM     11  O   UNL     1      -8.596   3.908 125.873  0.00  0.00    +0.000 OA
BRANCH  11  12
ATOM     12  C   UNL     1      -7.983   3.171 124.802  0.00  0.00    +0.000 C 
ATOM     13  C   UNL     1      -9.048   2.460 124.006  0.00  0.00    +0.000 C 
ENDBRANCH  11  12
ENDBRANCH  10  11
ENDBRANCH   9  10
ENDBRANCH   3   9
ENDBRANCH   2   3
ENDBRANCH   1   2
BRANCH   1  14
ATOM     14  P   UNL     1      -8.854   6.440 130.801  0.00  0.00    +0.000 P 
BRANCH  14  15
ATOM     15  C   UNL     1     -10.071   6.179 132.170  0.00  0.00    +0.000 C 
BRANCH  15  16
ATOM     16  C   UNL     1     -11.431   5.827 131.594  0.00  0.00    +0.000 C 
BRANCH  16  17
ATOM     17  O   UNL     1     -12.436   6.800 131.835  0.00  0.00    +0.000 OA
BRANCH  17  18
ATOM     18  C   UNL     1     -13.016   7.153 130.572  0.00  0.00    +0.000 C 
ATOM     19  C   UNL     1     -12.696   8.591 130.271  0.00  0.00    +0.000 C 
ENDBRANCH  17  18
ENDBRANCH  16  17
ENDBRANCH  15  16
ENDBRANCH  14  15
BRANCH  14  20
ATOM     20  C   UNL     1      -9.744   5.860 129.249  0.00  0.00    +0.000 C 
BRANCH  20  21
ATOM     21  C   UNL     1     -10.047   7.043 128.330  0.00  0.00    +0.000 C 
BRANCH  21  22
ATOM     22  O   UNL     1     -10.079   6.749 126.934  0.00  0.00    +0.000 OA
BRANCH  22  24
ATOM     23  C   UNL     1     -12.465   7.091 126.766  0.00  0.00    +0.000 C 
ATOM     24  C   UNL     1     -11.101   7.567 126.333  0.00  0.00    +0.000 C 
ENDBRANCH  22  24
ENDBRANCH  21  22
ENDBRANCH  20  21
ENDBRANCH  14  20
ENDBRANCH   1  14
TORSDOF 19
ENDMDL
MODEL 5
REMARK VINA RESULT:      -4.5      2.314      3.679
REMARK  Name = Tetrofosmin
REMARK  23 active torsions:
REMARK  status: ('A' for Active; 'I' for Inactive)
REMARK    1  A    between atoms: C_1  and  C_2
REMARK    2  A    between atoms: C_2  and  O_3
REMARK    3  A    between atoms: O_3  and  C_4
REMARK    4  A    between atoms: C_4  and  C_5
REMARK    5  A    between atoms: C_5  and  P_6
REMARK    6  A    between atoms: P_6  and  C_7
REMARK    7  A    between atoms: P_6  and  C_12
REMARK    8  A    between atoms: C_7  and  C_8
REMARK    9  A    between atoms: C_8  and  O_9
REMARK   10  A    between atoms: O_9  and  C_10
REMARK   11  A    between atoms: C_10  and  C_11
REMARK   12  A    between atoms: C_12  and  C_13
REMARK   13  A    between atoms: C_13  and  P_14
REMARK   14  A    between atoms: P_14  and  C_15
REMARK   15  A    between atoms: P_14  and  C_20
REMARK   16  A    between atoms: C_15  and  C_16
REMARK   17  A    between atoms: C_16  and  O_17
REMARK   18  A    between atoms: O_17  and  C_18
REMARK   19  A    between atoms: C_18  and  C_19
REMARK   20  A    between atoms: C_20  and  C_21
REMARK   21  A    between atoms: C_21  and  O_22
REMARK   22  A    between atoms: O_22  and  C_23
REMARK   23  A    between atoms: C_23  and  C_24
REMARK                            x       y       z     vdW  Elec       q    Type
REMARK                         _______ _______ _______ _____ _____    ______ ____
ROOT
ATOM      1  C   UNL     1      -6.103   1.733 126.333  0.00  0.00    +0.000 C 
ENDROOT
BRANCH   1   2
ATOM      2  C   UNL     1      -6.599   0.601 125.423  0.00  0.00    +0.000 C 
BRANCH   2   3
ATOM      3  P   UNL     1      -7.278  -0.843 126.366  0.00  0.00    +0.000 P 
BRANCH   3   4
ATOM      4  C   UNL     1      -6.550  -2.285 125.444  0.00  0.00    +0.000 C 
BRANCH   4   5
ATOM      5  C   UNL     1      -5.366  -1.819 124.591  0.00  0.00    +0.000 C 
BRANCH   5   6
ATOM      6  O   UNL     1      -5.105  -2.721 123.512  0.00  0.00    +0.000 OA
BRANCH   6   7
ATOM      7  C   UNL     1      -5.302  -4.070 123.950  0.00  0.00    +0.000 C 
ATOM      8  C   UNL     1      -4.197  -4.951 123.409  0.00  0.00    +0.000 C 
ENDBRANCH   6   7
ENDBRANCH   5   6
ENDBRANCH   4   5
ENDBRANCH   3   4
BRANCH   3   9
ATOM      9  C   UNL     1      -9.059  -0.934 125.821  0.00  0.00    +0.000 C 
BRANCH   9  10
ATOM     10  C   UNL     1      -9.374   0.184 124.833  0.00  0.00    +0.000 C 
BRANCH  10  11
ATOM     11  O   UNL     1      -9.597  -0.253 123.496  0.00  0.00    +0.000 OA
BRANCH  11  12
ATOM     12  C   UNL     1     -10.116   0.860 122.749  0.00  0.00    +0.000 C 
ATOM     13  C   UNL     1      -9.178   2.034 122.876  0.00  0.00    +0.000 C 
ENDBRANCH  11  12
ENDBRANCH  10  11
ENDBRANCH   9  10
ENDBRANCH   3   9
ENDBRANCH   2   3
ENDBRANCH   1   2
BRANCH   1  14
ATOM     14  P   UNL     1      -6.819   3.378 125.965  0.00  0.00    +0.000 P 
BRANCH  14  15
ATOM     15  C   UNL     1      -5.458   4.099 124.941  0.00  0.00    +0.000 C 
BRANCH  15  16
ATOM     16  C   UNL     1      -5.781   3.944 123.466  0.00  0.00    +0.000 C 
BRANCH  16  17
ATOM     17  O   UNL     1      -5.239   4.962 122.639  0.00  0.00    +0.000 OA
BRANCH  17  18
ATOM     18  C   UNL     1      -4.909   4.372 121.375  0.00  0.00    +0.000 C 
ATOM     19  C   UNL     1      -5.967   3.365 121.014  0.00  0.00    +0.000 C 
ENDBRANCH  17  18
ENDBRANCH  16  17
ENDBRANCH  15  16
ENDBRANCH  14  15
BRANCH  14  20
ATOM     20  C   UNL     1      -6.658   4.215 127.640  0.00  0.00    +0.000 C 
BRANCH  20  21
ATOM     21  C   UNL     1      -5.190   4.315 128.053  0.00  0.00    +0.000 C 
BRANCH  21  22
ATOM     22  O   UNL     1      -4.625   5.625 128.018  0.00  0.00    +0.000 OA
BRANCH  22  24
ATOM     23  C   UNL     1      -2.453   6.645 128.299  0.00  0.00    +0.000 C 
ATOM     24  C   UNL     1      -3.226   5.494 127.705  0.00  0.00    +0.000 C 
ENDBRANCH  22  24
ENDBRANCH  21  22
ENDBRANCH  20  21
ENDBRANCH  14  20
ENDBRANCH   1  14
TORSDOF 19
ENDMDL
MODEL 6
REMARK VINA RESULT:      -4.4      2.525      3.064
REMARK  Name = Tetrofosmin
REMARK  23 active torsions:
REMARK  status: ('A' for Active; 'I' for Inactive)
REMARK    1  A    between atoms: C_1  and  C_2
REMARK    2  A    between atoms: C_2  and  O_3
REMARK    3  A    between atoms: O_3  and  C_4
REMARK    4  A    between atoms: C_4  and  C_5
REMARK    5  A    between atoms: C_5  and  P_6
REMARK    6  A    between atoms: P_6  and  C_7
REMARK    7  A    between atoms: P_6  and  C_12
REMARK    8  A    between atoms: C_7  and  C_8
REMARK    9  A    between atoms: C_8  and  O_9
REMARK   10  A    between atoms: O_9  and  C_10
REMARK   11  A    between atoms: C_10  and  C_11
REMARK   12  A    between atoms: C_12  and  C_13
REMARK   13  A    between atoms: C_13  and  P_14
REMARK   14  A    between atoms: P_14  and  C_15
REMARK   15  A    between atoms: P_14  and  C_20
REMARK   16  A    between atoms: C_15  and  C_16
REMARK   17  A    between atoms: C_16  and  O_17
REMARK   18  A    between atoms: O_17  and  C_18
REMARK   19  A    between atoms: C_18  and  C_19
REMARK   20  A    between atoms: C_20  and  C_21
REMARK   21  A    between atoms: C_21  and  O_22
REMARK   22  A    between atoms: O_22  and  C_23
REMARK   23  A    between atoms: C_23  and  C_24
REMARK                            x       y       z     vdW  Elec       q    Type
REMARK                         _______ _______ _______ _____ _____    ______ ____
ROOT
ATOM      1  C   UNL     1      -6.584   1.801 127.105  0.00  0.00    +0.000 C 
ENDROOT
BRANCH   1   2
ATOM      2  C   UNL     1      -5.894   1.325 125.820  0.00  0.00    +0.000 C 
BRANCH   2   3
ATOM      3  P   UNL     1      -7.010   0.330 124.723  0.00  0.00    +0.000 P 
BRANCH   3   4
ATOM      4  C   UNL     1      -8.329  -0.223 125.912  0.00  0.00    +0.000 C 
BRANCH   4   5
ATOM      5  C   UNL     1      -8.619  -1.714 125.719  0.00  0.00    +0.000 C 
BRANCH   5   6
ATOM      6  O   UNL     1      -9.578  -1.936 124.681  0.00  0.00    +0.000 OA
BRANCH   6   7
ATOM      7  C   UNL     1      -9.389  -3.238 124.118  0.00  0.00    +0.000 C 
ATOM      8  C   UNL     1      -8.397  -4.019 124.952  0.00  0.00    +0.000 C 
ENDBRANCH   6   7
ENDBRANCH   5   6
ENDBRANCH   4   5
ENDBRANCH   3   4
BRANCH   3   9
ATOM      9  C   UNL     1      -6.074  -1.262 124.462  0.00  0.00    +0.000 C 
BRANCH   9  10
ATOM     10  C   UNL     1      -6.203  -1.728 123.017  0.00  0.00    +0.000 C 
BRANCH  10  11
ATOM     11  O   UNL     1      -5.309  -2.774 122.649  0.00  0.00    +0.000 OA
BRANCH  11  12
ATOM     12  C   UNL     1      -4.960  -3.496 123.842  0.00  0.00    +0.000 C 
ATOM     13  C   UNL     1      -4.135  -4.703 123.477  0.00  0.00    +0.000 C 
ENDBRANCH  11  12
ENDBRANCH  10  11
ENDBRANCH   9  10
ENDBRANCH   3   9
ENDBRANCH   2   3
ENDBRANCH   1   2
BRANCH   1  14
ATOM     14  P   UNL     1      -6.735   3.619 127.261  0.00  0.00    +0.000 P 
BRANCH  14  15
ATOM     15  C   UNL     1      -7.180   4.056 125.519  0.00  0.00    +0.000 C 
BRANCH  15  16
ATOM     16  C   UNL     1      -6.263   5.154 125.011  0.00  0.00    +0.000 C 
BRANCH  16  17
ATOM     17  O   UNL     1      -5.694   4.895 123.736  0.00  0.00    +0.000 OA
BRANCH  17  18
ATOM     18  C   UNL     1      -6.424   3.813 123.142  0.00  0.00    +0.000 C 
ATOM     19  C   UNL     1      -5.825   3.496 121.799  0.00  0.00    +0.000 C 
ENDBRANCH  17  18
ENDBRANCH  16  17
ENDBRANCH  15  16
ENDBRANCH  14  15
BRANCH  14  20
ATOM     20  C   UNL     1      -4.929   4.110 127.435  0.00  0.00    +0.000 C 
BRANCH  20  21
ATOM     21  C   UNL     1      -4.651   4.648 128.839  0.00  0.00    +0.000 C 
BRANCH  21  22
ATOM     22  O   UNL     1      -5.209   5.927 129.134  0.00  0.00    +0.000 OA
BRANCH  22  24
ATOM     23  C   UNL     1      -4.133   7.916 129.985  0.00  0.00    +0.000 C 
ATOM     24  C   UNL     1      -4.489   6.476 130.254  0.00  0.00    +0.000 C 
ENDBRANCH  22  24
ENDBRANCH  21  22
ENDBRANCH  20  21
ENDBRANCH  14  20
ENDBRANCH   1  14
TORSDOF 19
ENDMDL
MODEL 7
REMARK VINA RESULT:      -4.4      2.442      3.940
REMARK  Name = Tetrofosmin
REMARK  23 active torsions:
REMARK  status: ('A' for Active; 'I' for Inactive)
REMARK    1  A    between atoms: C_1  and  C_2
REMARK    2  A    between atoms: C_2  and  O_3
REMARK    3  A    between atoms: O_3  and  C_4
REMARK    4  A    between atoms: C_4  and  C_5
REMARK    5  A    between atoms: C_5  and  P_6
REMARK    6  A    between atoms: P_6  and  C_7
REMARK    7  A    between atoms: P_6  and  C_12
REMARK    8  A    between atoms: C_7  and  C_8
REMARK    9  A    between atoms: C_8  and  O_9
REMARK   10  A    between atoms: O_9  and  C_10
REMARK   11  A    between atoms: C_10  and  C_11
REMARK   12  A    between atoms: C_12  and  C_13
REMARK   13  A    between atoms: C_13  and  P_14
REMARK   14  A    between atoms: P_14  and  C_15
REMARK   15  A    between atoms: P_14  and  C_20
REMARK   16  A    between atoms: C_15  and  C_16
REMARK   17  A    between atoms: C_16  and  O_17
REMARK   18  A    between atoms: O_17  and  C_18
REMARK   19  A    between atoms: C_18  and  C_19
REMARK   20  A    between atoms: C_20  and  C_21
REMARK   21  A    between atoms: C_21  and  O_22
REMARK   22  A    between atoms: O_22  and  C_23
REMARK   23  A    between atoms: C_23  and  C_24
REMARK                            x       y       z     vdW  Elec       q    Type
REMARK                         _______ _______ _______ _____ _____    ______ ____
ROOT
ATOM      1  C   UNL     1      -8.232   2.442 126.191  0.00  0.00    +0.000 C 
ENDROOT
BRANCH   1   2
ATOM      2  C   UNL     1      -6.820   1.892 126.435  0.00  0.00    +0.000 C 
BRANCH   2   3
ATOM      3  P   UNL     1      -6.783   0.047 126.619  0.00  0.00    +0.000 P 
BRANCH   3   4
ATOM      4  C   UNL     1      -6.390  -0.154 128.426  0.00  0.00    +0.000 C 
BRANCH   4   5
ATOM      5  C   UNL     1      -7.543  -0.864 129.139  0.00  0.00    +0.000 C 
BRANCH   5   6
ATOM      6  O   UNL     1      -7.644  -2.235 128.746  0.00  0.00    +0.000 OA
BRANCH   6   7
ATOM      7  C   UNL     1      -6.465  -2.942 129.148  0.00  0.00    +0.000 C 
ATOM      8  C   UNL     1      -6.712  -3.643 130.466  0.00  0.00    +0.000 C 
ENDBRANCH   6   7
ENDBRANCH   5   6
ENDBRANCH   4   5
ENDBRANCH   3   4
BRANCH   3   9
ATOM      9  C   UNL     1      -5.160  -0.444 125.844  0.00  0.00    +0.000 C 
BRANCH   9  10
ATOM     10  C   UNL     1      -5.362  -1.589 124.858  0.00  0.00    +0.000 C 
BRANCH  10  11
ATOM     11  O   UNL     1      -6.432  -2.470 125.185  0.00  0.00    +0.000 OA
BRANCH  11  12
ATOM     12  C   UNL     1      -6.313  -3.637 124.354  0.00  0.00    +0.000 C 
ATOM     13  C   UNL     1      -4.945  -3.668 123.722  0.00  0.00    +0.000 C 
ENDBRANCH  11  12
ENDBRANCH  10  11
ENDBRANCH   9  10
ENDBRANCH   3   9
ENDBRANCH   2   3
ENDBRANCH   1   2
BRANCH   1  14
ATOM     14  P   UNL     1      -8.691   2.612 124.427  0.00  0.00    +0.000 P 
BRANCH  14  15
ATOM     15  C   UNL     1      -9.797   1.141 124.240  0.00  0.00    +0.000 C 
BRANCH  15  16
ATOM     16  C   UNL     1     -10.050   0.868 122.768  0.00  0.00    +0.000 C 
BRANCH  16  17
ATOM     17  O   UNL     1     -10.244  -0.503 122.454  0.00  0.00    +0.000 OA
BRANCH  17  18
ATOM     18  C   UNL     1      -9.083  -1.221 122.893  0.00  0.00    +0.000 C 
ATOM     19  C   UNL     1      -9.449  -2.666 123.095  0.00  0.00    +0.000 C 
ENDBRANCH  17  18
ENDBRANCH  16  17
ENDBRANCH  15  16
ENDBRANCH  14  15
BRANCH  14  20
ATOM     20  C   UNL     1      -7.081   2.114 123.594  0.00  0.00    +0.000 C 
BRANCH  20  21
ATOM     21  C   UNL     1      -6.606   3.211 122.642  0.00  0.00    +0.000 C 
BRANCH  21  22
ATOM     22  O   UNL     1      -7.440   3.453 121.510  0.00  0.00    +0.000 OA
BRANCH  22  24
ATOM     23  C   UNL     1      -5.150   3.756 120.804  0.00  0.00    +0.000 C 
ATOM     24  C   UNL     1      -6.603   3.917 120.435  0.00  0.00    +0.000 C 
ENDBRANCH  22  24
ENDBRANCH  21  22
ENDBRANCH  20  21
ENDBRANCH  14  20
ENDBRANCH   1  14
TORSDOF 19
ENDMDL
MODEL 8
REMARK VINA RESULT:      -4.4      1.647      7.364
REMARK  Name = Tetrofosmin
REMARK  23 active torsions:
REMARK  status: ('A' for Active; 'I' for Inactive)
REMARK    1  A    between atoms: C_1  and  C_2
REMARK    2  A    between atoms: C_2  and  O_3
REMARK    3  A    between atoms: O_3  and  C_4
REMARK    4  A    between atoms: C_4  and  C_5
REMARK    5  A    between atoms: C_5  and  P_6
REMARK    6  A    between atoms: P_6  and  C_7
REMARK    7  A    between atoms: P_6  and  C_12
REMARK    8  A    between atoms: C_7  and  C_8
REMARK    9  A    between atoms: C_8  and  O_9
REMARK   10  A    between atoms: O_9  and  C_10
REMARK   11  A    between atoms: C_10  and  C_11
REMARK   12  A    between atoms: C_12  and  C_13
REMARK   13  A    between atoms: C_13  and  P_14
REMARK   14  A    between atoms: P_14  and  C_15
REMARK   15  A    between atoms: P_14  and  C_20
REMARK   16  A    between atoms: C_15  and  C_16
REMARK   17  A    between atoms: C_16  and  O_17
REMARK   18  A    between atoms: O_17  and  C_18
REMARK   19  A    between atoms: C_18  and  C_19
REMARK   20  A    between atoms: C_20  and  C_21
REMARK   21  A    between atoms: C_21  and  O_22
REMARK   22  A    between atoms: O_22  and  C_23
REMARK   23  A    between atoms: C_23  and  C_24
REMARK                            x       y       z     vdW  Elec       q    Type
REMARK                         _______ _______ _______ _____ _____    ______ ____
ROOT
ATOM      1  C   UNL     1      -7.621   1.390 125.025  0.00  0.00    +0.000 C 
ENDROOT
BRANCH   1   2
ATOM      2  C   UNL     1      -7.280   2.806 125.507  0.00  0.00    +0.000 C 
BRANCH   2   3
ATOM      3  P   UNL     1      -5.541   3.310 125.109  0.00  0.00    +0.000 P 
BRANCH   3   4
ATOM      4  C   UNL     1      -5.272   4.731 126.278  0.00  0.00    +0.000 C 
BRANCH   4   5
ATOM      5  C   UNL     1      -3.990   4.513 127.086  0.00  0.00    +0.000 C 
BRANCH   5   6
ATOM      6  O   UNL     1      -4.041   5.181 128.349  0.00  0.00    +0.000 OA
BRANCH   6   7
ATOM      7  C   UNL     1      -2.713   5.481 128.792  0.00  0.00    +0.000 C 
ATOM      8  C   UNL     1      -2.281   6.824 128.244  0.00  0.00    +0.000 C 
ENDBRANCH   6   7
ENDBRANCH   5   6
ENDBRANCH   4   5
ENDBRANCH   3   4
BRANCH   3   9
ATOM      9  C   UNL     1      -5.699   4.209 123.483  0.00  0.00    +0.000 C 
BRANCH   9  10
ATOM     10  C   UNL     1      -6.676   3.484 122.564  0.00  0.00    +0.000 C 
BRANCH  10  11
ATOM     11  O   UNL     1      -6.402   3.632 121.174  0.00  0.00    +0.000 OA
BRANCH  11  12
ATOM     12  C   UNL     1      -5.246   4.476 121.039  0.00  0.00    +0.000 C 
ATOM     13  C   UNL     1      -5.355   5.280 119.769  0.00  0.00    +0.000 C 
ENDBRANCH  11  12
ENDBRANCH  10  11
ENDBRANCH   9  10
ENDBRANCH   3   9
ENDBRANCH   2   3
ENDBRANCH   1   2
BRANCH   1  14
ATOM     14  P   UNL     1      -7.281   0.066 126.243  0.00  0.00    +0.000 P 
BRANCH  14  15
ATOM     15  C   UNL     1      -5.653  -0.542 125.610  0.00  0.00    +0.000 C 
BRANCH  15  16
ATOM     16  C   UNL     1      -5.869  -1.439 124.404  0.00  0.00    +0.000 C 
BRANCH  16  17
ATOM     17  O   UNL     1      -5.531  -2.801 124.622  0.00  0.00    +0.000 OA
BRANCH  17  18
ATOM     18  C   UNL     1      -4.831  -3.270 123.461  0.00  0.00    +0.000 C 
ATOM     19  C   UNL     1      -4.388  -4.688 123.696  0.00  0.00    +0.000 C 
ENDBRANCH  17  18
ENDBRANCH  16  17
ENDBRANCH  15  16
ENDBRANCH  14  15
BRANCH  14  20
ATOM     20  C   UNL     1      -8.525  -1.237 125.704  0.00  0.00    +0.000 C 
BRANCH  20  21
ATOM     21  C   UNL     1      -8.549  -2.400 126.696  0.00  0.00    +0.000 C 
BRANCH  21  22
ATOM     22  O   UNL     1      -7.810  -2.202 127.900  0.00  0.00    +0.000 OA
BRANCH  22  24
ATOM     23  C   UNL     1      -9.158  -4.189 128.169  0.00  0.00    +0.000 C 
ATOM     24  C   UNL     1      -8.156  -3.263 128.810  0.00  0.00    +0.000 C 
ENDBRANCH  22  24
ENDBRANCH  21  22
ENDBRANCH  20  21
ENDBRANCH  14  20
ENDBRANCH   1  14
TORSDOF 19
ENDMDL
MODEL 9
REMARK VINA RESULT:      -4.4      2.240      7.648
REMARK  Name = Tetrofosmin
REMARK  23 active torsions:
REMARK  status: ('A' for Active; 'I' for Inactive)
REMARK    1  A    between atoms: C_1  and  C_2
REMARK    2  A    between atoms: C_2  and  O_3
REMARK    3  A    between atoms: O_3  and  C_4
REMARK    4  A    between atoms: C_4  and  C_5
REMARK    5  A    between atoms: C_5  and  P_6
REMARK    6  A    between atoms: P_6  and  C_7
REMARK    7  A    between atoms: P_6  and  C_12
REMARK    8  A    between atoms: C_7  and  C_8
REMARK    9  A    between atoms: C_8  and  O_9
REMARK   10  A    between atoms: O_9  and  C_10
REMARK   11  A    between atoms: C_10  and  C_11
REMARK   12  A    between atoms: C_12  and  C_13
REMARK   13  A    between atoms: C_13  and  P_14
REMARK   14  A    between atoms: P_14  and  C_15
REMARK   15  A    between atoms: P_14  and  C_20
REMARK   16  A    between atoms: C_15  and  C_16
REMARK   17  A    between atoms: C_16  and  O_17
REMARK   18  A    between atoms: O_17  and  C_18
REMARK   19  A    between atoms: C_18  and  C_19
REMARK   20  A    between atoms: C_20  and  C_21
REMARK   21  A    between atoms: C_21  and  O_22
REMARK   22  A    between atoms: O_22  and  C_23
REMARK   23  A    between atoms: C_23  and  C_24
REMARK                            x       y       z     vdW  Elec       q    Type
REMARK                         _______ _______ _______ _____ _____    ______ ____
ROOT
ATOM      1  C   UNL     1      -6.348   0.850 126.960  0.00  0.00    +0.000 C 
ENDROOT
BRANCH   1   2
ATOM      2  C   UNL     1      -5.171   1.835 126.933  0.00  0.00    +0.000 C 
BRANCH   2   3
ATOM      3  P   UNL     1      -5.635   3.536 127.508  0.00  0.00    +0.000 P 
BRANCH   3   4
ATOM      4  C   UNL     1      -7.200   3.853 126.555  0.00  0.00    +0.000 C 
BRANCH   4   5
ATOM      5  C   UNL     1      -6.880   4.581 125.246  0.00  0.00    +0.000 C 
BRANCH   5   6
ATOM      6  O   UNL     1      -6.844   3.680 124.136  0.00  0.00    +0.000 OA
BRANCH   6   7
ATOM      7  C   UNL     1      -5.809   4.073 123.227  0.00  0.00    +0.000 C 
ATOM      8  C   UNL     1      -6.114   3.543 121.843  0.00  0.00    +0.000 C 
ENDBRANCH   6   7
ENDBRANCH   5   6
ENDBRANCH   4   5
ENDBRANCH   3   4
BRANCH   3   9
ATOM      9  C   UNL     1      -4.439   4.651 126.613  0.00  0.00    +0.000 C 
BRANCH   9  10
ATOM     10  C   UNL     1      -3.607   5.452 127.607  0.00  0.00    +0.000 C 
BRANCH  10  11
ATOM     11  O   UNL     1      -4.097   6.764 127.868  0.00  0.00    +0.000 OA
BRANCH  11  12
ATOM     12  C   UNL     1      -3.392   7.279 129.009  0.00  0.00    +0.000 C 
ATOM     13  C   UNL     1      -2.094   6.532 129.180  0.00  0.00    +0.000 C 
ENDBRANCH  11  12
ENDBRANCH  10  11
ENDBRANCH   9  10
ENDBRANCH   3   9
ENDBRANCH   2   3
ENDBRANCH   1   2
BRANCH   1  14
ATOM     14  P   UNL     1      -6.530  -0.163 125.446  0.00  0.00    +0.000 P 
BRANCH  14  15
ATOM     15  C   UNL     1      -8.372  -0.155 125.273  0.00  0.00    +0.000 C 
BRANCH  15  16
ATOM     16  C   UNL     1      -8.754   0.028 123.815  0.00  0.00    +0.000 C 
BRANCH  16  17
ATOM     17  O   UNL     1      -9.625  -0.974 123.311  0.00  0.00    +0.000 OA
BRANCH  17  18
ATOM     18  C   UNL     1      -8.834  -2.129 123.004  0.00  0.00    +0.000 C 
ATOM     19  C   UNL     1      -9.490  -3.345 123.599  0.00  0.00    +0.000 C 
ENDBRANCH  17  18
ENDBRANCH  16  17
ENDBRANCH  15  16
ENDBRANCH  14  15
BRANCH  14  20
ATOM     20  C   UNL     1      -6.116  -1.872 126.112  0.00  0.00    +0.000 C 
BRANCH  20  21
ATOM     21  C   UNL     1      -7.300  -2.448 126.888  0.00  0.00    +0.000 C 
BRANCH  21  22
ATOM     22  O   UNL     1      -7.135  -2.525 128.302  0.00  0.00    +0.000 OA
BRANCH  22  24
ATOM     23  C   UNL     1      -8.961  -4.011 127.758  0.00  0.00    +0.000 C 
ATOM     24  C   UNL     1      -8.274  -3.220 128.843  0.00  0.00    +0.000 C 
ENDBRANCH  22  24
ENDBRANCH  21  22
ENDBRANCH  20  21
ENDBRANCH  14  20
ENDBRANCH   1  14
TORSDOF 19
ENDMDL
