MODEL 1
REMARK VINA RESULT:      -7.9      0.000      0.000
REMARK  Name = Tetracycline
REMARK  10 active torsions:
REMARK  status: ('A' for Active; 'I' for Inactive)
REMARK    1  A    between atoms: C_7  and  O_8
REMARK    2  A    between atoms: C_9  and  O_10
REMARK    3  A    between atoms: C_13  and  C_14
REMARK    4  A    between atoms: C_17  and  O_18
REMARK    5  A    between atoms: C_19  and  N_20
REMARK    6  A    between atoms: N_20  and  C_21
REMARK    7  A    between atoms: N_20  and  C_22
REMARK    8  A    between atoms: C_26  and  O_27
REMARK    9  A    between atoms: C_32  and  C_33
REMARK   10  A    between atoms: C_32  and  O_34
REMARK                            x       y       z     vdW  Elec       q    Type
REMARK                         _______ _______ _______ _____ _____    ______ ____
ROOT
ATOM      1  C   UNL     1      -6.771   4.048 130.764  0.00  0.00    +0.000 C 
ATOM      2  C   UNL     1      -8.376   4.521 131.198  0.00  0.00    +0.000 C 
ATOM      3  C   UNL     1      -9.053   5.703 130.704  0.00  0.00    +0.000 C 
ATOM      4  C   UNL     1      -9.098   5.545 129.275  0.00  0.00    +0.000 C 
ATOM      5  C   UNL     1      -8.470   4.456 128.830  0.00  0.00    +0.000 C 
ATOM      6  C   UNL     1      -7.585   3.323 129.879  0.00  0.00    +0.000 C 
ATOM      7  C   UNL     1      -7.719   2.608 131.780  0.00  0.00    +0.000 C 
ATOM      8  O   UNL     1      -7.849   3.215 132.916  0.00  0.00    +0.000 OA
ATOM      9  C   UNL     1      -7.076   1.421 132.411  0.00  0.00    +0.000 C 
ATOM     10  C   UNL     1      -5.860   1.946 132.057  0.00  0.00    +0.000 C 
ATOM     11  C   UNL     1      -5.874   2.384 130.621  0.00  0.00    +0.000 C 
ATOM     12  C   UNL     1      -9.964   6.505 128.550  0.00  0.00    +0.000 C 
ATOM     13  O   UNL     1      -9.849   6.709 127.347  0.00  0.00    +0.000 OA
ATOM     14  C   UNL     1     -11.024   7.142 129.399  0.00  0.00    +0.000 A 
ATOM     15  C   UNL     1     -11.809   8.186 128.942  0.00  0.00    +0.000 A 
ATOM     16  C   UNL     1     -12.763   8.757 129.793  0.00  0.00    +0.000 A 
ATOM     17  C   UNL     1     -12.964   8.288 131.087  0.00  0.00    +0.000 A 
ATOM     18  C   UNL     1     -12.232   7.226 131.528  0.00  0.00    +0.000 A 
ATOM     19  C   UNL     1     -11.254   6.676 130.711  0.00  0.00    +0.000 A 
ATOM     20  C   UNL     1     -10.462   5.571 131.293  0.00  0.00    +0.000 C 
ATOM     21  C   UNL     1     -10.295   5.674 132.829  0.00  0.00    +0.000 C 
ENDROOT
BRANCH   9  22
ATOM     22  C   UNL     1      -8.176   0.372 132.222  0.00  0.00    +0.000 C 
ATOM     23  N   UNL     1      -9.388   0.841 131.791  0.00  0.00    +0.000 N 
ATOM     24  O   UNL     1      -8.012  -0.827 132.408  0.00  0.00    +0.000 OA
ATOM     25  H   UNL     1      -9.268   1.731 131.337  0.00  0.00    +0.000 HD
ATOM     26  H   UNL     1      -9.876   0.207 131.176  0.00  0.00    +0.000 HD
ENDBRANCH   9  22
BRANCH  11  27
ATOM     27  N   UNL     1      -6.655   1.083 129.921  0.00  0.00    +0.000 NA
ATOM     28  C   UNL     1      -7.644   1.129 128.818  0.00  0.00    +0.000 C 
ATOM     29  C   UNL     1      -5.869  -0.147 129.861  0.00  0.00    +0.000 C 
ENDBRANCH  11  27
BRANCH   5  30
ATOM     30  O   UNL     1      -8.262   4.364 127.433  0.00  0.00    +0.000 OA
ATOM     31  H   UNL     1      -7.282   4.327 127.270  0.00  0.00    +0.000 HD
ENDBRANCH   5  30
BRANCH   6  32
ATOM     32  O   UNL     1      -6.568   3.349 128.777  0.00  0.00    +0.000 OA
ATOM     33  H   UNL     1      -7.047   3.174 127.938  0.00  0.00    +0.000 HD
ENDBRANCH   6  32
BRANCH  10  34
ATOM     34  O   UNL     1      -5.149   2.884 132.842  0.00  0.00    +0.000 OA
ATOM     35  H   UNL     1      -4.507   3.379 132.290  0.00  0.00    +0.000 HD
ENDBRANCH  10  34
BRANCH  15  36
ATOM     36  O   UNL     1     -11.697   8.712 127.689  0.00  0.00    +0.000 OA
ATOM     37  H   UNL     1     -11.097   9.488 127.724  0.00  0.00    +0.000 HD
ENDBRANCH  15  36
BRANCH  20  38
ATOM     38  O   UNL     1     -11.155   4.359 130.931  0.00  0.00    +0.000 OA
ATOM     39  H   UNL     1     -10.763   3.593 131.393  0.00  0.00    +0.000 HD
ENDBRANCH  20  38
TORSDOF 7
ENDMDL
MODEL 2
REMARK VINA RESULT:      -7.5      1.828      3.676
REMARK  Name = Tetracycline
REMARK  10 active torsions:
REMARK  status: ('A' for Active; 'I' for Inactive)
REMARK    1  A    between atoms: C_7  and  O_8
REMARK    2  A    between atoms: C_9  and  O_10
REMARK    3  A    between atoms: C_13  and  C_14
REMARK    4  A    between atoms: C_17  and  O_18
REMARK    5  A    between atoms: C_19  and  N_20
REMARK    6  A    between atoms: N_20  and  C_21
REMARK    7  A    between atoms: N_20  and  C_22
REMARK    8  A    between atoms: C_26  and  O_27
REMARK    9  A    between atoms: C_32  and  C_33
REMARK   10  A    between atoms: C_32  and  O_34
REMARK                            x       y       z     vdW  Elec       q    Type
REMARK                         _______ _______ _______ _____ _____    ______ ____
ROOT
ATOM      1  C   UNL     1      -9.040   2.052 131.269  0.00  0.00    +0.000 C 
ATOM      2  C   UNL     1      -8.875   3.475 130.302  0.00  0.00    +0.000 C 
ATOM      3  C   UNL     1      -9.929   4.441 130.062  0.00  0.00    +0.000 C 
ATOM      4  C   UNL     1     -10.297   4.931 131.364  0.00  0.00    +0.000 C 
ATOM      5  C   UNL     1      -9.655   4.334 132.369  0.00  0.00    +0.000 C 
ATOM      6  C   UNL     1      -8.498   2.999 132.154  0.00  0.00    +0.000 C 
ATOM      7  C   UNL     1      -7.132   2.394 130.772  0.00  0.00    +0.000 C 
ATOM      8  O   UNL     1      -7.225   2.228 129.492  0.00  0.00    +0.000 OA
ATOM      9  C   UNL     1      -6.015   1.414 130.886  0.00  0.00    +0.000 C 
ATOM     10  C   UNL     1      -6.937   0.472 131.263  0.00  0.00    +0.000 C 
ATOM     11  C   UNL     1      -7.847   1.022 132.323  0.00  0.00    +0.000 C 
ATOM     12  C   UNL     1     -11.185   6.117 131.375  0.00  0.00    +0.000 C 
ATOM     13  O   UNL     1     -11.837   6.436 132.362  0.00  0.00    +0.000 OA
ATOM     14  C   UNL     1     -11.161   6.918 130.107  0.00  0.00    +0.000 A 
ATOM     15  C   UNL     1     -12.049   7.952 129.868  0.00  0.00    +0.000 A 
ATOM     16  C   UNL     1     -11.994   8.644 128.653  0.00  0.00    +0.000 A 
ATOM     17  C   UNL     1     -11.049   8.337 127.678  0.00  0.00    +0.000 A 
ATOM     18  C   UNL     1     -10.138   7.355 127.925  0.00  0.00    +0.000 A 
ATOM     19  C   UNL     1     -10.206   6.633 129.109  0.00  0.00    +0.000 A 
ATOM     20  C   UNL     1      -9.219   5.542 129.266  0.00  0.00    +0.000 C 
ATOM     21  C   UNL     1      -8.796   4.895 127.925  0.00  0.00    +0.000 C 
ENDROOT
BRANCH   9  22
ATOM     22  C   UNL     1      -4.854   2.350 131.234  0.00  0.00    +0.000 C 
ATOM     23  N   UNL     1      -5.103   3.691 131.108  0.00  0.00    +0.000 N 
ATOM     24  O   UNL     1      -3.762   1.963 131.633  0.00  0.00    +0.000 OA
ATOM     25  H   UNL     1      -6.094   3.860 131.146  0.00  0.00    +0.000 HD
ATOM     26  H   UNL     1      -4.633   4.261 131.796  0.00  0.00    +0.000 HD
ENDBRANCH   9  22
BRANCH  11  27
ATOM     27  N   UNL     1      -6.733   1.793 133.301  0.00  0.00    +0.000 NA
ATOM     28  C   UNL     1      -6.911   3.088 134.000  0.00  0.00    +0.000 C 
ATOM     29  C   UNL     1      -5.871   0.902 134.073  0.00  0.00    +0.000 C 
ENDBRANCH  11  27
BRANCH   5  30
ATOM     30  O   UNL     1     -10.137   4.588 133.675  0.00  0.00    +0.000 OA
ATOM     31  H   UNL     1     -10.233   5.572 133.782  0.00  0.00    +0.000 HD
ENDBRANCH   5  30
BRANCH   6  32
ATOM     32  O   UNL     1      -9.195   2.416 133.347  0.00  0.00    +0.000 OA
ATOM     33  H   UNL     1     -10.153   2.379 133.132  0.00  0.00    +0.000 HD
ENDBRANCH   6  32
BRANCH  10  34
ATOM     34  O   UNL     1      -7.677  -0.314 130.349  0.00  0.00    +0.000 OA
ATOM     35  H   UNL     1      -7.670  -1.256 130.621  0.00  0.00    +0.000 HD
ENDBRANCH  10  34
BRANCH  15  36
ATOM     36  O   UNL     1     -13.006   8.336 130.761  0.00  0.00    +0.000 OA
ATOM     37  H   UNL     1     -12.694   8.129 131.668  0.00  0.00    +0.000 HD
ENDBRANCH  15  36
BRANCH  20  38
ATOM     38  O   UNL     1      -8.085   6.133 129.932  0.00  0.00    +0.000 OA
ATOM     39  H   UNL     1      -8.336   6.987 130.335  0.00  0.00    +0.000 HD
ENDBRANCH  20  38
TORSDOF 7
ENDMDL
MODEL 3
REMARK VINA RESULT:      -7.4      5.942      7.724
REMARK  Name = Tetracycline
REMARK  10 active torsions:
REMARK  status: ('A' for Active; 'I' for Inactive)
REMARK    1  A    between atoms: C_7  and  O_8
REMARK    2  A    between atoms: C_9  and  O_10
REMARK    3  A    between atoms: C_13  and  C_14
REMARK    4  A    between atoms: C_17  and  O_18
REMARK    5  A    between atoms: C_19  and  N_20
REMARK    6  A    between atoms: N_20  and  C_21
REMARK    7  A    between atoms: N_20  and  C_22
REMARK    8  A    between atoms: C_26  and  O_27
REMARK    9  A    between atoms: C_32  and  C_33
REMARK   10  A    between atoms: C_32  and  O_34
REMARK                            x       y       z     vdW  Elec       q    Type
REMARK                         _______ _______ _______ _____ _____    ______ ____
ROOT
ATOM      1  C   UNL     1      -7.618  -1.115 130.334  0.00  0.00    +0.000 C 
ATOM      2  C   UNL     1      -7.601  -1.986 128.841  0.00  0.00    +0.000 C 
ATOM      3  C   UNL     1      -8.267  -1.561 127.626  0.00  0.00    +0.000 C 
ATOM      4  C   UNL     1      -7.689  -0.284 127.304  0.00  0.00    +0.000 C 
ATOM      5  C   UNL     1      -6.811   0.157 128.206  0.00  0.00    +0.000 C 
ATOM      6  C   UNL     1      -6.426  -0.701 129.718  0.00  0.00    +0.000 C 
ATOM      7  C   UNL     1      -6.305  -2.625 130.372  0.00  0.00    +0.000 C 
ATOM      8  O   UNL     1      -7.134  -3.615 130.279  0.00  0.00    +0.000 OA
ATOM      9  C   UNL     1      -5.663  -3.188 131.593  0.00  0.00    +0.000 C 
ATOM     10  C   UNL     1      -6.454  -2.354 132.341  0.00  0.00    +0.000 C 
ATOM     11  C   UNL     1      -6.414  -0.958 131.790  0.00  0.00    +0.000 C 
ATOM     12  C   UNL     1      -8.022   0.252 125.963  0.00  0.00    +0.000 C 
ATOM     13  O   UNL     1      -7.890   1.436 125.681  0.00  0.00    +0.000 OA
ATOM     14  C   UNL     1      -8.465  -0.788 124.977  0.00  0.00    +0.000 A 
ATOM     15  C   UNL     1      -8.981  -0.458 123.736  0.00  0.00    +0.000 A 
ATOM     16  C   UNL     1      -9.404  -1.474 122.871  0.00  0.00    +0.000 A 
ATOM     17  C   UNL     1      -9.297  -2.818 123.213  0.00  0.00    +0.000 A 
ATOM     18  C   UNL     1      -8.743  -3.155 124.411  0.00  0.00    +0.000 A 
ATOM     19  C   UNL     1      -8.357  -2.158 125.297  0.00  0.00    +0.000 A 
ATOM     20  C   UNL     1      -7.827  -2.612 126.601  0.00  0.00    +0.000 C 
ATOM     21  C   UNL     1      -8.430  -3.955 127.078  0.00  0.00    +0.000 C 
ENDROOT
BRANCH   9  22
ATOM     22  C   UNL     1      -4.288  -3.571 131.037  0.00  0.00    +0.000 C 
ATOM     23  N   UNL     1      -4.158  -3.532 129.675  0.00  0.00    +0.000 N 
ATOM     24  O   UNL     1      -3.330  -3.872 131.738  0.00  0.00    +0.000 OA
ATOM     25  H   UNL     1      -4.863  -2.932 129.280  0.00  0.00    +0.000 HD
ATOM     26  H   UNL     1      -3.245  -3.239 129.359  0.00  0.00    +0.000 HD
ENDBRANCH   9  22
BRANCH  11  27
ATOM     27  N   UNL     1      -4.777  -0.802 131.493  0.00  0.00    +0.000 NA
ATOM     28  C   UNL     1      -4.144  -0.112 130.345  0.00  0.00    +0.000 C 
ATOM     29  C   UNL     1      -3.943  -0.692 132.688  0.00  0.00    +0.000 C 
ENDBRANCH  11  27
BRANCH   5  30
ATOM     30  O   UNL     1      -6.390   1.503 128.084  0.00  0.00    +0.000 OA
ATOM     31  H   UNL     1      -6.250   1.694 127.119  0.00  0.00    +0.000 HD
ENDBRANCH   5  30
BRANCH   6  32
ATOM     32  O   UNL     1      -6.483   0.671 130.322  0.00  0.00    +0.000 OA
ATOM     33  H   UNL     1      -6.291   0.571 131.280  0.00  0.00    +0.000 HD
ENDBRANCH   6  32
BRANCH  10  34
ATOM     34  O   UNL     1      -7.769  -2.675 132.752  0.00  0.00    +0.000 OA
ATOM     35  H   UNL     1      -7.904  -3.647 132.742  0.00  0.00    +0.000 HD
ENDBRANCH  10  34
BRANCH  15  36
ATOM     36  O   UNL     1      -9.119   0.828 123.302  0.00  0.00    +0.000 OA
ATOM     37  H   UNL     1      -9.179   0.827 122.323  0.00  0.00    +0.000 HD
ENDBRANCH  15  36
BRANCH  20  38
ATOM     38  O   UNL     1      -6.400  -2.723 126.425  0.00  0.00    +0.000 OA
ATOM     39  H   UNL     1      -6.180  -3.542 125.940  0.00  0.00    +0.000 HD
ENDBRANCH  20  38
TORSDOF 7
ENDMDL
MODEL 4
REMARK VINA RESULT:      -7.4      3.711      7.234
REMARK  Name = Tetracycline
REMARK  10 active torsions:
REMARK  status: ('A' for Active; 'I' for Inactive)
REMARK    1  A    between atoms: C_7  and  O_8
REMARK    2  A    between atoms: C_9  and  O_10
REMARK    3  A    between atoms: C_13  and  C_14
REMARK    4  A    between atoms: C_17  and  O_18
REMARK    5  A    between atoms: C_19  and  N_20
REMARK    6  A    between atoms: N_20  and  C_21
REMARK    7  A    between atoms: N_20  and  C_22
REMARK    8  A    between atoms: C_26  and  O_27
REMARK    9  A    between atoms: C_32  and  C_33
REMARK   10  A    between atoms: C_32  and  O_34
REMARK                            x       y       z     vdW  Elec       q    Type
REMARK                         _______ _______ _______ _____ _____    ______ ____
ROOT
ATOM      1  C   UNL     1      -8.484   1.973 129.163  0.00  0.00    +0.000 C 
ATOM      2  C   UNL     1      -7.878   0.588 128.326  0.00  0.00    +0.000 C 
ATOM      3  C   UNL     1      -8.535  -0.057 127.206  0.00  0.00    +0.000 C 
ATOM      4  C   UNL     1      -8.641   0.959 126.193  0.00  0.00    +0.000 C 
ATOM      5  C   UNL     1      -8.201   2.158 126.578  0.00  0.00    +0.000 C 
ATOM      6  C   UNL     1      -7.601   2.515 128.216  0.00  0.00    +0.000 C 
ATOM      7  C   UNL     1      -6.606   1.544 129.702  0.00  0.00    +0.000 C 
ATOM      8  O   UNL     1      -6.815   0.398 130.267  0.00  0.00    +0.000 OA
ATOM      9  C   UNL     1      -5.900   2.082 130.900  0.00  0.00    +0.000 C 
ATOM     10  C   UNL     1      -7.075   2.687 131.267  0.00  0.00    +0.000 C 
ATOM     11  C   UNL     1      -7.679   3.412 130.100  0.00  0.00    +0.000 C 
ATOM     12  C   UNL     1      -9.054   0.486 124.851  0.00  0.00    +0.000 C 
ATOM     13  O   UNL     1      -9.502   1.244 123.999  0.00  0.00    +0.000 OA
ATOM     14  C   UNL     1      -8.813  -0.975 124.611  0.00  0.00    +0.000 A 
ATOM     15  C   UNL     1      -9.291  -1.629 123.489  0.00  0.00    +0.000 A 
ATOM     16  C   UNL     1      -9.057  -3.001 123.337  0.00  0.00    +0.000 A 
ATOM     17  C   UNL     1      -8.330  -3.728 124.274  0.00  0.00    +0.000 A 
ATOM     18  C   UNL     1      -7.812  -3.083 125.356  0.00  0.00    +0.000 A 
ATOM     19  C   UNL     1      -8.070  -1.731 125.542  0.00  0.00    +0.000 A 
ATOM     20  C   UNL     1      -7.524  -1.126 126.776  0.00  0.00    +0.000 C 
ATOM     21  C   UNL     1      -7.424  -2.120 127.959  0.00  0.00    +0.000 C 
ENDROOT
BRANCH   9  22
ATOM     22  C   UNL     1      -4.468   2.175 130.366  0.00  0.00    +0.000 C 
ATOM     23  N   UNL     1      -4.212   1.489 129.209  0.00  0.00    +0.000 N 
ATOM     24  O   UNL     1      -3.585   2.837 130.896  0.00  0.00    +0.000 OA
ATOM     25  H   UNL     1      -5.071   1.324 128.711  0.00  0.00    +0.000 HD
ATOM     26  H   UNL     1      -3.548   1.946 128.600  0.00  0.00    +0.000 HD
ENDBRANCH   9  22
BRANCH  11  27
ATOM     27  N   UNL     1      -6.318   4.147 129.469  0.00  0.00    +0.000 NA
ATOM     28  C   UNL     1      -5.959   4.274 128.037  0.00  0.00    +0.000 C 
ATOM     29  C   UNL     1      -5.833   5.298 130.228  0.00  0.00    +0.000 C 
ENDBRANCH  11  27
BRANCH   5  30
ATOM     30  O   UNL     1      -8.498   3.251 125.730  0.00  0.00    +0.000 OA
ATOM     31  H   UNL     1      -8.308   4.089 126.231  0.00  0.00    +0.000 HD
ENDBRANCH   5  30
BRANCH   6  32
ATOM     32  O   UNL     1      -8.398   3.776 128.059  0.00  0.00    +0.000 OA
ATOM     33  H   UNL     1      -9.073   3.780 128.771  0.00  0.00    +0.000 HD
ENDBRANCH   6  32
BRANCH  10  34
ATOM     34  O   UNL     1      -8.089   2.046 132.016  0.00  0.00    +0.000 OA
ATOM     35  H   UNL     1      -7.696   1.435 132.675  0.00  0.00    +0.000 HD
ENDBRANCH  10  34
BRANCH  15  36
ATOM     36  O   UNL     1     -10.006  -1.006 122.508  0.00  0.00    +0.000 OA
ATOM     37  H   UNL     1      -9.673  -0.089 122.408  0.00  0.00    +0.000 HD
ENDBRANCH  15  36
BRANCH  20  38
ATOM     38  O   UNL     1      -6.223  -0.617 126.419  0.00  0.00    +0.000 OA
ATOM     39  H   UNL     1      -5.593  -0.752 127.154  0.00  0.00    +0.000 HD
ENDBRANCH  20  38
TORSDOF 7
ENDMDL
MODEL 5
REMARK VINA RESULT:      -7.2      6.094      7.970
REMARK  Name = Tetracycline
REMARK  10 active torsions:
REMARK  status: ('A' for Active; 'I' for Inactive)
REMARK    1  A    between atoms: C_7  and  O_8
REMARK    2  A    between atoms: C_9  and  O_10
REMARK    3  A    between atoms: C_13  and  C_14
REMARK    4  A    between atoms: C_17  and  O_18
REMARK    5  A    between atoms: C_19  and  N_20
REMARK    6  A    between atoms: N_20  and  C_21
REMARK    7  A    between atoms: N_20  and  C_22
REMARK    8  A    between atoms: C_26  and  O_27
REMARK    9  A    between atoms: C_32  and  C_33
REMARK   10  A    between atoms: C_32  and  O_34
REMARK                            x       y       z     vdW  Elec       q    Type
REMARK                         _______ _______ _______ _____ _____    ______ ____
ROOT
ATOM      1  C   UNL     1      -5.221  -2.619 129.772  0.00  0.00    +0.000 C 
ATOM      2  C   UNL     1      -5.686  -1.498 128.541  0.00  0.00    +0.000 C 
ATOM      3  C   UNL     1      -6.321  -1.860 127.289  0.00  0.00    +0.000 C 
ATOM      4  C   UNL     1      -7.546  -2.516 127.660  0.00  0.00    +0.000 C 
ATOM      5  C   UNL     1      -7.703  -2.667 128.976  0.00  0.00    +0.000 C 
ATOM      6  C   UNL     1      -6.489  -2.177 130.183  0.00  0.00    +0.000 C 
ATOM      7  C   UNL     1      -5.080  -0.724 130.401  0.00  0.00    +0.000 C 
ATOM      8  O   UNL     1      -4.138  -0.319 129.612  0.00  0.00    +0.000 OA
ATOM      9  C   UNL     1      -4.352  -0.264 131.617  0.00  0.00    +0.000 C 
ATOM     10  C   UNL     1      -3.911  -1.551 131.788  0.00  0.00    +0.000 C 
ATOM     11  C   UNL     1      -5.051  -2.519 131.658  0.00  0.00    +0.000 C 
ATOM     12  C   UNL     1      -8.503  -2.762 126.556  0.00  0.00    +0.000 C 
ATOM     13  O   UNL     1      -9.408  -3.583 126.646  0.00  0.00    +0.000 OA
ATOM     14  C   UNL     1      -8.305  -1.878 125.361  0.00  0.00    +0.000 A 
ATOM     15  C   UNL     1      -8.985  -2.078 124.172  0.00  0.00    +0.000 A 
ATOM     16  C   UNL     1      -8.736  -1.235 123.083  0.00  0.00    +0.000 A 
ATOM     17  C   UNL     1      -7.835  -0.178 123.166  0.00  0.00    +0.000 A 
ATOM     18  C   UNL     1      -7.199   0.059 124.347  0.00  0.00    +0.000 A 
ATOM     19  C   UNL     1      -7.405  -0.793 125.424  0.00  0.00    +0.000 A 
ATOM     20  C   UNL     1      -6.624  -0.502 126.646  0.00  0.00    +0.000 C 
ATOM     21  C   UNL     1      -5.252   0.153 126.360  0.00  0.00    +0.000 C 
ENDROOT
BRANCH   9  22
ATOM     22  C   UNL     1      -5.241   0.905 132.053  0.00  0.00    +0.000 C 
ATOM     23  N   UNL     1      -6.239   1.258 131.184  0.00  0.00    +0.000 N 
ATOM     24  O   UNL     1      -5.118   1.494 133.119  0.00  0.00    +0.000 OA
ATOM     25  H   UNL     1      -6.450   0.486 130.573  0.00  0.00    +0.000 HD
ATOM     26  H   UNL     1      -7.084   1.574 131.637  0.00  0.00    +0.000 HD
ENDBRANCH   9  22
BRANCH  11  27
ATOM     27  N   UNL     1      -6.219  -1.724 132.550  0.00  0.00    +0.000 NA
ATOM     28  C   UNL     1      -7.674  -1.683 132.273  0.00  0.00    +0.000 C 
ATOM     29  C   UNL     1      -5.965  -1.670 133.988  0.00  0.00    +0.000 C 
ENDBRANCH  11  27
BRANCH   5  30
ATOM     30  O   UNL     1      -8.754  -3.513 129.402  0.00  0.00    +0.000 OA
ATOM     31  H   UNL     1      -8.471  -3.953 130.248  0.00  0.00    +0.000 HD
ENDBRANCH   5  30
BRANCH   6  32
ATOM     32  O   UNL     1      -6.837  -3.485 130.828  0.00  0.00    +0.000 OA
ATOM     33  H   UNL     1      -6.900  -3.323 131.794  0.00  0.00    +0.000 HD
ENDBRANCH   6  32
BRANCH  10  34
ATOM     34  O   UNL     1      -2.756  -2.076 131.162  0.00  0.00    +0.000 OA
ATOM     35  H   UNL     1      -2.493  -1.517 130.401  0.00  0.00    +0.000 HD
ENDBRANCH  10  34
BRANCH  15  36
ATOM     36  O   UNL     1      -9.894  -3.079 123.991  0.00  0.00    +0.000 OA
ATOM     37  H   UNL     1      -9.444  -3.942 124.115  0.00  0.00    +0.000 HD
ENDBRANCH  15  36
BRANCH  20  38
ATOM     38  O   UNL     1      -7.454   0.370 127.442  0.00  0.00    +0.000 OA
ATOM     39  H   UNL     1      -6.902   1.012 127.929  0.00  0.00    +0.000 HD
ENDBRANCH  20  38
TORSDOF 7
ENDMDL
MODEL 6
REMARK VINA RESULT:      -7.2      5.441      8.391
REMARK  Name = Tetracycline
REMARK  10 active torsions:
REMARK  status: ('A' for Active; 'I' for Inactive)
REMARK    1  A    between atoms: C_7  and  O_8
REMARK    2  A    between atoms: C_9  and  O_10
REMARK    3  A    between atoms: C_13  and  C_14
REMARK    4  A    between atoms: C_17  and  O_18
REMARK    5  A    between atoms: C_19  and  N_20
REMARK    6  A    between atoms: N_20  and  C_21
REMARK    7  A    between atoms: N_20  and  C_22
REMARK    8  A    between atoms: C_26  and  O_27
REMARK    9  A    between atoms: C_32  and  C_33
REMARK   10  A    between atoms: C_32  and  O_34
REMARK                            x       y       z     vdW  Elec       q    Type
REMARK                         _______ _______ _______ _____ _____    ______ ____
ROOT
ATOM      1  C   UNL     1      -6.323  -0.484 126.478  0.00  0.00    +0.000 C 
ATOM      2  C   UNL     1      -6.701  -1.544 127.790  0.00  0.00    +0.000 C 
ATOM      3  C   UNL     1      -6.426  -1.266 129.186  0.00  0.00    +0.000 C 
ATOM      4  C   UNL     1      -7.147  -0.057 129.481  0.00  0.00    +0.000 C 
ATOM      5  C   UNL     1      -7.764   0.477 128.426  0.00  0.00    +0.000 C 
ATOM      6  C   UNL     1      -7.662  -0.184 126.777  0.00  0.00    +0.000 C 
ATOM      7  C   UNL     1      -7.480  -2.008 125.891  0.00  0.00    +0.000 C 
ATOM      8  O   UNL     1      -6.651  -2.981 126.096  0.00  0.00    +0.000 OA
ATOM      9  C   UNL     1      -7.722  -2.422 124.480  0.00  0.00    +0.000 C 
ATOM     10  C   UNL     1      -6.807  -1.477 124.091  0.00  0.00    +0.000 C 
ATOM     11  C   UNL     1      -7.083  -0.168 124.770  0.00  0.00    +0.000 C 
ATOM     12  C   UNL     1      -7.232   0.306 130.915  0.00  0.00    +0.000 C 
ATOM     13  O   UNL     1      -7.509   1.439 131.287  0.00  0.00    +0.000 OA
ATOM     14  C   UNL     1      -7.018  -0.843 131.855  0.00  0.00    +0.000 A 
ATOM     15  C   UNL     1      -6.887  -0.666 133.222  0.00  0.00    +0.000 A 
ATOM     16  C   UNL     1      -6.661  -1.777 134.044  0.00  0.00    +0.000 A 
ATOM     17  C   UNL     1      -6.586  -3.067 133.528  0.00  0.00    +0.000 A 
ATOM     18  C   UNL     1      -6.764  -3.257 132.191  0.00  0.00    +0.000 A 
ATOM     19  C   UNL     1      -6.949  -2.162 131.357  0.00  0.00    +0.000 A 
ATOM     20  C   UNL     1      -7.068  -2.454 129.912  0.00  0.00    +0.000 C 
ATOM     21  C   UNL     1      -6.276  -3.707 129.468  0.00  0.00    +0.000 C 
ENDROOT
BRANCH   9  22
ATOM     22  C   UNL     1      -9.172  -2.909 124.574  0.00  0.00    +0.000 C 
ATOM     23  N   UNL     1      -9.697  -2.994 125.836  0.00  0.00    +0.000 N 
ATOM     24  O   UNL     1      -9.861  -3.187 123.602  0.00  0.00    +0.000 OA
ATOM     25  H   UNL     1      -9.179  -2.401 126.463  0.00  0.00    +0.000 HD
ATOM     26  H   UNL     1     -10.680  -2.767 125.886  0.00  0.00    +0.000 HD
ENDBRANCH   9  22
BRANCH  11  27
ATOM     27  N   UNL     1      -8.745  -0.093 124.608  0.00  0.00    +0.000 NA
ATOM     28  C   UNL     1      -9.708   0.476 125.581  0.00  0.00    +0.000 C 
ATOM     29  C   UNL     1      -9.222   0.092 123.239  0.00  0.00    +0.000 C 
ENDBRANCH  11  27
BRANCH   5  30
ATOM     30  O   UNL     1      -8.284   1.784 128.584  0.00  0.00    +0.000 OA
ATOM     31  H   UNL     1      -8.323   1.984 129.557  0.00  0.00    +0.000 HD
ENDBRANCH   5  30
BRANCH   6  32
ATOM     32  O   UNL     1      -7.523   1.255 126.381  0.00  0.00    +0.000 OA
ATOM     33  H   UNL     1      -8.048   1.783 127.022  0.00  0.00    +0.000 HD
ENDBRANCH   6  32
BRANCH  10  34
ATOM     34  O   UNL     1      -5.413  -1.710 124.034  0.00  0.00    +0.000 OA
ATOM     35  H   UNL     1      -5.179  -2.520 124.535  0.00  0.00    +0.000 HD
ENDBRANCH  10  34
BRANCH  15  36
ATOM     36  O   UNL     1      -6.954   0.554 133.827  0.00  0.00    +0.000 OA
ATOM     37  H   UNL     1      -7.885   0.732 134.080  0.00  0.00    +0.000 HD
ENDBRANCH  15  36
BRANCH  20  38
ATOM     38  O   UNL     1      -8.479  -2.621 129.662  0.00  0.00    +0.000 OA
ATOM     39  H   UNL     1      -9.001  -2.181 130.360  0.00  0.00    +0.000 HD
ENDBRANCH  20  38
TORSDOF 7
ENDMDL
MODEL 7
REMARK VINA RESULT:      -7.2      4.089      7.130
REMARK  Name = Tetracycline
REMARK  10 active torsions:
REMARK  status: ('A' for Active; 'I' for Inactive)
REMARK    1  A    between atoms: C_7  and  O_8
REMARK    2  A    between atoms: C_9  and  O_10
REMARK    3  A    between atoms: C_13  and  C_14
REMARK    4  A    between atoms: C_17  and  O_18
REMARK    5  A    between atoms: C_19  and  N_20
REMARK    6  A    between atoms: N_20  and  C_21
REMARK    7  A    between atoms: N_20  and  C_22
REMARK    8  A    between atoms: C_26  and  O_27
REMARK    9  A    between atoms: C_32  and  C_33
REMARK   10  A    between atoms: C_32  and  O_34
REMARK                            x       y       z     vdW  Elec       q    Type
REMARK                         _______ _______ _______ _____ _____    ______ ____
ROOT
ATOM      1  C   UNL     1      -4.531   3.079 127.076  0.00  0.00    +0.000 C 
ATOM      2  C   UNL     1      -6.143   2.935 126.469  0.00  0.00    +0.000 C 
ATOM      3  C   UNL     1      -6.556   2.024 125.419  0.00  0.00    +0.000 C 
ATOM      4  C   UNL     1      -6.237   0.710 125.910  0.00  0.00    +0.000 C 
ATOM      5  C   UNL     1      -5.616   0.708 127.091  0.00  0.00    +0.000 C 
ATOM      6  C   UNL     1      -5.146   2.185 127.967  0.00  0.00    +0.000 C 
ATOM      7  C   UNL     1      -5.842   4.083 128.206  0.00  0.00    +0.000 C 
ATOM      8  O   UNL     1      -6.209   4.975 127.344  0.00  0.00    +0.000 OA
ATOM      9  C   UNL     1      -5.499   5.113 129.228  0.00  0.00    +0.000 C 
ATOM     10  C   UNL     1      -4.189   5.003 128.835  0.00  0.00    +0.000 C 
ATOM     11  C   UNL     1      -3.785   3.561 128.751  0.00  0.00    +0.000 C 
ATOM     12  C   UNL     1      -6.789  -0.420 125.127  0.00  0.00    +0.000 C 
ATOM     13  O   UNL     1      -6.344  -1.557 125.216  0.00  0.00    +0.000 OA
ATOM     14  C   UNL     1      -7.972  -0.060 124.277  0.00  0.00    +0.000 A 
ATOM     15  C   UNL     1      -8.510  -0.935 123.350  0.00  0.00    +0.000 A 
ATOM     16  C   UNL     1      -9.598  -0.530 122.567  0.00  0.00    +0.000 A 
ATOM     17  C   UNL     1     -10.175   0.727 122.711  0.00  0.00    +0.000 A 
ATOM     18  C   UNL     1      -9.686   1.577 123.657  0.00  0.00    +0.000 A 
ATOM     19  C   UNL     1      -8.582   1.205 124.412  0.00  0.00    +0.000 A 
ATOM     20  C   UNL     1      -8.076   2.214 125.369  0.00  0.00    +0.000 C 
ATOM     21  C   UNL     1      -8.310   3.673 124.909  0.00  0.00    +0.000 C 
ENDROOT
BRANCH   9  22
ATOM     22  C   UNL     1      -6.602   4.863 130.261  0.00  0.00    +0.000 C 
ATOM     23  N   UNL     1      -7.582   3.981 129.893  0.00  0.00    +0.000 N 
ATOM     24  O   UNL     1      -6.625   5.379 131.371  0.00  0.00    +0.000 OA
ATOM     25  H   UNL     1      -7.245   3.379 129.160  0.00  0.00    +0.000 HD
ATOM     26  H   UNL     1      -7.937   3.422 130.656  0.00  0.00    +0.000 HD
ENDBRANCH   9  22
BRANCH  11  27
ATOM     27  N   UNL     1      -4.470   2.976 130.158  0.00  0.00    +0.000 NA
ATOM     28  C   UNL     1      -5.100   1.649 130.355  0.00  0.00    +0.000 C 
ATOM     29  C   UNL     1      -3.831   3.434 131.390  0.00  0.00    +0.000 C 
ENDBRANCH  11  27
BRANCH   5  30
ATOM     30  O   UNL     1      -5.057  -0.520 127.518  0.00  0.00    +0.000 OA
ATOM     31  H   UNL     1      -4.303  -0.743 126.908  0.00  0.00    +0.000 HD
ENDBRANCH   5  30
BRANCH   6  32
ATOM     32  O   UNL     1      -3.877   1.431 128.231  0.00  0.00    +0.000 OA
ATOM     33  H   UNL     1      -3.766   1.385 129.205  0.00  0.00    +0.000 HD
ENDBRANCH   6  32
BRANCH  10  34
ATOM     34  O   UNL     1      -3.628   5.728 127.758  0.00  0.00    +0.000 OA
ATOM     35  H   UNL     1      -4.335   6.091 127.182  0.00  0.00    +0.000 HD
ENDBRANCH  10  34
BRANCH  15  36
ATOM     36  O   UNL     1      -8.024  -2.192 123.139  0.00  0.00    +0.000 OA
ATOM     37  H   UNL     1      -7.515  -2.198 122.300  0.00  0.00    +0.000 HD
ENDBRANCH  15  36
BRANCH  20  38
ATOM     38  O   UNL     1      -8.757   1.950 126.612  0.00  0.00    +0.000 OA
ATOM     39  H   UNL     1      -9.708   2.159 126.529  0.00  0.00    +0.000 HD
ENDBRANCH  20  38
TORSDOF 7
ENDMDL
MODEL 8
REMARK VINA RESULT:      -7.1      3.925      7.426
REMARK  Name = Tetracycline
REMARK  10 active torsions:
REMARK  status: ('A' for Active; 'I' for Inactive)
REMARK    1  A    between atoms: C_7  and  O_8
REMARK    2  A    between atoms: C_9  and  O_10
REMARK    3  A    between atoms: C_13  and  C_14
REMARK    4  A    between atoms: C_17  and  O_18
REMARK    5  A    between atoms: C_19  and  N_20
REMARK    6  A    between atoms: N_20  and  C_21
REMARK    7  A    between atoms: N_20  and  C_22
REMARK    8  A    between atoms: C_26  and  O_27
REMARK    9  A    between atoms: C_32  and  C_33
REMARK   10  A    between atoms: C_32  and  O_34
REMARK                            x       y       z     vdW  Elec       q    Type
REMARK                         _______ _______ _______ _____ _____    ______ ____
ROOT
ATOM      1  C   UNL     1      -8.055  -0.136 130.451  0.00  0.00    +0.000 C 
ATOM      2  C   UNL     1      -6.943  -0.617 129.218  0.00  0.00    +0.000 C 
ATOM      3  C   UNL     1      -7.314  -0.977 127.863  0.00  0.00    +0.000 C 
ATOM      4  C   UNL     1      -7.966   0.188 127.326  0.00  0.00    +0.000 C 
ATOM      5  C   UNL     1      -8.106   1.183 128.203  0.00  0.00    +0.000 C 
ATOM      6  C   UNL     1      -7.608   1.080 129.909  0.00  0.00    +0.000 C 
ATOM      7  C   UNL     1      -6.156   0.167 131.004  0.00  0.00    +0.000 C 
ATOM      8  O   UNL     1      -5.758  -1.064 131.042  0.00  0.00    +0.000 OA
ATOM      9  C   UNL     1      -5.686   0.432 132.394  0.00  0.00    +0.000 C 
ATOM     10  C   UNL     1      -6.973   0.225 132.821  0.00  0.00    +0.000 C 
ATOM     11  C   UNL     1      -7.940   0.994 131.969  0.00  0.00    +0.000 C 
ATOM     12  C   UNL     1      -8.220   0.166 125.867  0.00  0.00    +0.000 C 
ATOM     13  O   UNL     1      -9.039   0.905 125.334  0.00  0.00    +0.000 OA
ATOM     14  C   UNL     1      -7.345  -0.784 125.103  0.00  0.00    +0.000 A 
ATOM     15  C   UNL     1      -7.554  -1.069 123.765  0.00  0.00    +0.000 A 
ATOM     16  C   UNL     1      -6.720  -1.986 123.115  0.00  0.00    +0.000 A 
ATOM     17  C   UNL     1      -5.663  -2.608 123.772  0.00  0.00    +0.000 A 
ATOM     18  C   UNL     1      -5.418  -2.296 125.076  0.00  0.00    +0.000 A 
ATOM     19  C   UNL     1      -6.261  -1.419 125.745  0.00  0.00    +0.000 A 
ATOM     20  C   UNL     1      -5.961  -1.188 127.175  0.00  0.00    +0.000 C 
ATOM     21  C   UNL     1      -5.310  -2.406 127.874  0.00  0.00    +0.000 C 
ENDROOT
BRANCH   9  22
ATOM     22  C   UNL     1      -4.514   1.378 132.119  0.00  0.00    +0.000 C 
ATOM     23  N   UNL     1      -4.156   1.528 130.806  0.00  0.00    +0.000 N 
ATOM     24  O   UNL     1      -3.924   2.003 132.992  0.00  0.00    +0.000 OA
ATOM     25  H   UNL     1      -4.927   1.276 130.210  0.00  0.00    +0.000 HD
ATOM     26  H   UNL     1      -3.836   2.457 130.573  0.00  0.00    +0.000 HD
ENDBRANCH   9  22
BRANCH  11  27
ATOM     27  N   UNL     1      -7.137   2.455 131.851  0.00  0.00    +0.000 NA
ATOM     28  C   UNL     1      -7.086   3.347 130.669  0.00  0.00    +0.000 C 
ATOM     29  C   UNL     1      -7.085   3.230 133.088  0.00  0.00    +0.000 C 
ENDBRANCH  11  27
BRANCH   5  30
ATOM     30  O   UNL     1      -8.948   2.255 127.824  0.00  0.00    +0.000 OA
ATOM     31  H   UNL     1      -9.870   1.898 127.713  0.00  0.00    +0.000 HD
ENDBRANCH   5  30
BRANCH   6  32
ATOM     32  O   UNL     1      -8.911   1.777 130.164  0.00  0.00    +0.000 OA
ATOM     33  H   UNL     1      -9.622   1.199 129.809  0.00  0.00    +0.000 HD
ENDBRANCH   6  32
BRANCH  10  34
ATOM     34  O   UNL     1      -7.504  -1.049 133.128  0.00  0.00    +0.000 OA
ATOM     35  H   UNL     1      -7.622  -1.579 132.311  0.00  0.00    +0.000 HD
ENDBRANCH  10  34
BRANCH  15  36
ATOM     36  O   UNL     1      -8.555  -0.506 123.029  0.00  0.00    +0.000 OA
ATOM     37  H   UNL     1      -9.353  -0.420 123.593  0.00  0.00    +0.000 HD
ENDBRANCH  15  36
BRANCH  20  38
ATOM     38  O   UNL     1      -5.082  -0.044 127.210  0.00  0.00    +0.000 OA
ATOM     39  H   UNL     1      -5.177   0.430 128.059  0.00  0.00    +0.000 HD
ENDBRANCH  20  38
TORSDOF 7
ENDMDL
MODEL 9
REMARK VINA RESULT:      -7.1      4.820      7.753
REMARK  Name = Tetracycline
REMARK  10 active torsions:
REMARK  status: ('A' for Active; 'I' for Inactive)
REMARK    1  A    between atoms: C_7  and  O_8
REMARK    2  A    between atoms: C_9  and  O_10
REMARK    3  A    between atoms: C_13  and  C_14
REMARK    4  A    between atoms: C_17  and  O_18
REMARK    5  A    between atoms: C_19  and  N_20
REMARK    6  A    between atoms: N_20  and  C_21
REMARK    7  A    between atoms: N_20  and  C_22
REMARK    8  A    between atoms: C_26  and  O_27
REMARK    9  A    between atoms: C_32  and  C_33
REMARK   10  A    between atoms: C_32  and  O_34
REMARK                            x       y       z     vdW  Elec       q    Type
REMARK                         _______ _______ _______ _____ _____    ______ ____
ROOT
ATOM      1  C   UNL     1      -7.068   2.928 127.964  0.00  0.00    +0.000 C 
ATOM      2  C   UNL     1      -6.719   1.467 127.108  0.00  0.00    +0.000 C 
ATOM      3  C   UNL     1      -7.681   0.714 126.328  0.00  0.00    +0.000 C 
ATOM      4  C   UNL     1      -8.142   1.624 125.314  0.00  0.00    +0.000 C 
ATOM      5  C   UNL     1      -7.641   2.855 125.421  0.00  0.00    +0.000 C 
ATOM      6  C   UNL     1      -6.556   3.374 126.734  0.00  0.00    +0.000 C 
ATOM      7  C   UNL     1      -5.103   2.556 127.902  0.00  0.00    +0.000 C 
ATOM      8  O   UNL     1      -5.081   1.472 128.609  0.00  0.00    +0.000 OA
ATOM      9  C   UNL     1      -4.067   3.210 128.751  0.00  0.00    +0.000 C 
ATOM     10  C   UNL     1      -5.080   3.848 129.420  0.00  0.00    +0.000 C 
ATOM     11  C   UNL     1      -6.052   4.454 128.449  0.00  0.00    +0.000 C 
ATOM     12  C   UNL     1      -8.950   1.020 124.228  0.00  0.00    +0.000 C 
ATOM     13  O   UNL     1      -9.673   1.689 123.501  0.00  0.00    +0.000 OA
ATOM     14  C   UNL     1      -8.751  -0.458 124.062  0.00  0.00    +0.000 A 
ATOM     15  C   UNL     1      -9.544  -1.221 123.222  0.00  0.00    +0.000 A 
ATOM     16  C   UNL     1      -9.327  -2.600 123.132  0.00  0.00    +0.000 A 
ATOM     17  C   UNL     1      -8.314  -3.231 123.846  0.00  0.00    +0.000 A 
ATOM     18  C   UNL     1      -7.495  -2.481 124.636  0.00  0.00    +0.000 A 
ATOM     19  C   UNL     1      -7.724  -1.118 124.768  0.00  0.00    +0.000 A 
ATOM     20  C   UNL     1      -6.829  -0.392 125.696  0.00  0.00    +0.000 C 
ATOM     21  C   UNL     1      -6.320  -1.263 126.870  0.00  0.00    +0.000 C 
ENDROOT
BRANCH   9  22
ATOM     22  C   UNL     1      -2.888   3.251 127.774  0.00  0.00    +0.000 C 
ATOM     23  N   UNL     1      -2.994   2.450 126.669  0.00  0.00    +0.000 N 
ATOM     24  O   UNL     1      -1.905   3.965 127.923  0.00  0.00    +0.000 OA
ATOM     25  H   UNL     1      -3.962   2.233 126.494  0.00  0.00    +0.000 HD
ATOM     26  H   UNL     1      -2.579   2.844 125.837  0.00  0.00    +0.000 HD
ENDBRANCH   9  22
BRANCH  11  27
ATOM     27  N   UNL     1      -4.991   5.123 127.345  0.00  0.00    +0.000 NA
ATOM     28  C   UNL     1      -5.177   5.215 125.878  0.00  0.00    +0.000 C 
ATOM     29  C   UNL     1      -4.224   6.263 127.842  0.00  0.00    +0.000 C 
ENDBRANCH  11  27
BRANCH   5  30
ATOM     30  O   UNL     1      -8.230   3.859 124.616  0.00  0.00    +0.000 OA
ATOM     31  H   UNL     1      -7.577   4.108 123.909  0.00  0.00    +0.000 HD
ENDBRANCH   5  30
BRANCH   6  32
ATOM     32  O   UNL     1      -7.401   4.612 126.727  0.00  0.00    +0.000 OA
ATOM     33  H   UNL     1      -7.161   5.120 125.921  0.00  0.00    +0.000 HD
ENDBRANCH   6  32
BRANCH  10  34
ATOM     34  O   UNL     1      -5.776   3.285 130.514  0.00  0.00    +0.000 OA
ATOM     35  H   UNL     1      -6.557   2.780 130.202  0.00  0.00    +0.000 HD
ENDBRANCH  10  34
BRANCH  15  36
ATOM     36  O   UNL     1     -10.557  -0.698 122.472  0.00  0.00    +0.000 OA
ATOM     37  H   UNL     1     -11.269  -1.367 122.392  0.00  0.00    +0.000 HD
ENDBRANCH  15  36
BRANCH  20  38
ATOM     38  O   UNL     1      -5.730   0.080 124.891  0.00  0.00    +0.000 OA
ATOM     39  H   UNL     1      -6.046   0.727 124.231  0.00  0.00    +0.000 HD
ENDBRANCH  20  38
TORSDOF 7
ENDMDL
