MODEL 1
REMARK VINA RESULT:      -3.8      0.000      0.000
REMARK  Name = Tetramethylthiuram monosulfide
REMARK  8 active torsions:
REMARK  status: ('A' for Active; 'I' for Inactive)
REMARK    1  A    between atoms: C_1  and  N_2
REMARK    2  A    between atoms: N_2  and  C_3
REMARK    3  A    between atoms: N_2  and  C_4
REMARK    4  A    between atoms: C_4  and  S_6
REMARK    5  A    between atoms: S_6  and  C_7
REMARK    6  A    between atoms: C_7  and  N_9
REMARK    7  A    between atoms: N_9  and  C_10
REMARK    8  A    between atoms: N_9  and  C_11
REMARK                            x       y       z     vdW  Elec       q    Type
REMARK                         _______ _______ _______ _____ _____    ______ ____
ROOT
ATOM      1  S   UNL     1     -10.157   7.657 129.308  0.00  0.00    +0.000 S 
ENDROOT
BRANCH   1   2
ATOM      2  C   UNL     1     -11.300   7.857 127.940  0.00  0.00    +0.000 C 
ATOM      3  S   UNL     1     -10.960   7.674 126.295  0.00  0.00    +0.000 S 
BRANCH   2   5
ATOM      4  C   UNL     1     -12.866   9.356 129.214  0.00  0.00    +0.000 C 
ATOM      5  N   UNL     1     -12.642   8.212 128.313  0.00  0.00    +0.000 N 
ATOM      6  C   UNL     1     -13.851   7.524 127.870  0.00  0.00    +0.000 C 
ENDBRANCH   2   5
ENDBRANCH   1   2
BRANCH   1   7
ATOM      7  C   UNL     1     -10.581   6.334 130.449  0.00  0.00    +0.000 C 
ATOM      8  S   UNL     1     -11.651   6.454 131.747  0.00  0.00    +0.000 S 
BRANCH   7   9
ATOM      9  N   UNL     1      -9.936   5.075 130.209  0.00  0.00    +0.000 N 
ATOM     10  C   UNL     1      -8.608   4.872 129.626  0.00  0.00    +0.000 C 
ATOM     11  C   UNL     1     -10.586   3.790 130.544  0.00  0.00    +0.000 C 
ENDBRANCH   7   9
ENDBRANCH   1   7
TORSDOF 4
ENDMDL
MODEL 2
REMARK VINA RESULT:      -3.7      0.726      4.918
REMARK  Name = Tetramethylthiuram monosulfide
REMARK  8 active torsions:
REMARK  status: ('A' for Active; 'I' for Inactive)
REMARK    1  A    between atoms: C_1  and  N_2
REMARK    2  A    between atoms: N_2  and  C_3
REMARK    3  A    between atoms: N_2  and  C_4
REMARK    4  A    between atoms: C_4  and  S_6
REMARK    5  A    between atoms: S_6  and  C_7
REMARK    6  A    between atoms: C_7  and  N_9
REMARK    7  A    between atoms: N_9  and  C_10
REMARK    8  A    between atoms: N_9  and  C_11
REMARK                            x       y       z     vdW  Elec       q    Type
REMARK                         _______ _______ _______ _____ _____    ______ ____
ROOT
ATOM      1  S   UNL     1     -10.117   7.708 129.313  0.00  0.00    +0.000 S 
ENDROOT
BRANCH   1   2
ATOM      2  C   UNL     1     -10.574   6.541 130.597  0.00  0.00    +0.000 C 
ATOM      3  S   UNL     1     -11.912   6.630 131.623  0.00  0.00    +0.000 S 
BRANCH   2   5
ATOM      4  C   UNL     1      -9.484   4.828 132.081  0.00  0.00    +0.000 C 
ATOM      5  N   UNL     1      -9.685   5.421 130.747  0.00  0.00    +0.000 N 
ATOM      6  C   UNL     1      -8.935   4.789 129.666  0.00  0.00    +0.000 C 
ENDBRANCH   2   5
ENDBRANCH   1   2
BRANCH   1   7
ATOM      7  C   UNL     1     -11.290   7.819 127.954  0.00  0.00    +0.000 C 
ATOM      8  S   UNL     1     -10.936   7.587 126.322  0.00  0.00    +0.000 S 
BRANCH   7   9
ATOM      9  N   UNL     1     -12.640   8.136 128.322  0.00  0.00    +0.000 N 
ATOM     10  C   UNL     1     -13.112   9.388 128.917  0.00  0.00    +0.000 C 
ATOM     11  C   UNL     1     -13.747   7.174 128.127  0.00  0.00    +0.000 C 
ENDBRANCH   7   9
ENDBRANCH   1   7
TORSDOF 4
ENDMDL
MODEL 3
REMARK VINA RESULT:      -3.7      1.706      2.473
REMARK  Name = Tetramethylthiuram monosulfide
REMARK  8 active torsions:
REMARK  status: ('A' for Active; 'I' for Inactive)
REMARK    1  A    between atoms: C_1  and  N_2
REMARK    2  A    between atoms: N_2  and  C_3
REMARK    3  A    between atoms: N_2  and  C_4
REMARK    4  A    between atoms: C_4  and  S_6
REMARK    5  A    between atoms: S_6  and  C_7
REMARK    6  A    between atoms: C_7  and  N_9
REMARK    7  A    between atoms: N_9  and  C_10
REMARK    8  A    between atoms: N_9  and  C_11
REMARK                            x       y       z     vdW  Elec       q    Type
REMARK                         _______ _______ _______ _____ _____    ______ ____
ROOT
ATOM      1  S   UNL     1      -9.631   7.071 130.179  0.00  0.00    +0.000 S 
ENDROOT
BRANCH   1   2
ATOM      2  C   UNL     1     -11.354   7.530 129.981  0.00  0.00    +0.000 C 
ATOM      3  S   UNL     1     -12.623   7.203 131.046  0.00  0.00    +0.000 S 
BRANCH   2   5
ATOM      4  C   UNL     1     -12.884   9.066 128.706  0.00  0.00    +0.000 C 
ATOM      5  N   UNL     1     -11.658   8.251 128.775  0.00  0.00    +0.000 N 
ATOM      6  C   UNL     1     -10.839   8.258 127.567  0.00  0.00    +0.000 C 
ENDBRANCH   2   5
ENDBRANCH   1   2
BRANCH   1   7
ATOM      7  C   UNL     1      -9.351   5.678 131.281  0.00  0.00    +0.000 C 
ATOM      8  S   UNL     1      -8.886   5.776 132.899  0.00  0.00    +0.000 S 
BRANCH   7   9
ATOM      9  N   UNL     1      -9.550   4.379 130.705  0.00  0.00    +0.000 N 
ATOM     10  C   UNL     1     -10.833   3.710 130.480  0.00  0.00    +0.000 C 
ATOM     11  C   UNL     1      -8.415   3.543 130.257  0.00  0.00    +0.000 C 
ENDBRANCH   7   9
ENDBRANCH   1   7
TORSDOF 4
ENDMDL
MODEL 4
REMARK VINA RESULT:      -3.7      1.642      4.982
REMARK  Name = Tetramethylthiuram monosulfide
REMARK  8 active torsions:
REMARK  status: ('A' for Active; 'I' for Inactive)
REMARK    1  A    between atoms: C_1  and  N_2
REMARK    2  A    between atoms: N_2  and  C_3
REMARK    3  A    between atoms: N_2  and  C_4
REMARK    4  A    between atoms: C_4  and  S_6
REMARK    5  A    between atoms: S_6  and  C_7
REMARK    6  A    between atoms: C_7  and  N_9
REMARK    7  A    between atoms: N_9  and  C_10
REMARK    8  A    between atoms: N_9  and  C_11
REMARK                            x       y       z     vdW  Elec       q    Type
REMARK                         _______ _______ _______ _____ _____    ______ ____
ROOT
ATOM      1  S   UNL     1      -9.686   7.082 130.105  0.00  0.00    +0.000 S 
ENDROOT
BRANCH   1   2
ATOM      2  C   UNL     1      -9.380   5.639 131.126  0.00  0.00    +0.000 C 
ATOM      3  S   UNL     1      -9.019   5.618 132.776  0.00  0.00    +0.000 S 
BRANCH   2   5
ATOM      4  C   UNL     1     -10.687   3.574 130.533  0.00  0.00    +0.000 C 
ATOM      5  N   UNL     1      -9.456   4.379 130.439  0.00  0.00    +0.000 N 
ATOM      6  C   UNL     1      -8.394   3.797 129.625  0.00  0.00    +0.000 C 
ENDBRANCH   2   5
ENDBRANCH   1   2
BRANCH   1   7
ATOM      7  C   UNL     1     -11.417   7.549 129.970  0.00  0.00    +0.000 C 
ATOM      8  S   UNL     1     -12.624   7.203 131.095  0.00  0.00    +0.000 S 
BRANCH   7   9
ATOM      9  N   UNL     1     -11.773   8.280 128.788  0.00  0.00    +0.000 N 
ATOM     10  C   UNL     1     -12.979   9.088 128.592  0.00  0.00    +0.000 C 
ATOM     11  C   UNL     1     -10.911   8.289 127.587  0.00  0.00    +0.000 C 
ENDBRANCH   7   9
ENDBRANCH   1   7
TORSDOF 4
ENDMDL
MODEL 5
REMARK VINA RESULT:      -3.6      1.202      4.514
REMARK  Name = Tetramethylthiuram monosulfide
REMARK  8 active torsions:
REMARK  status: ('A' for Active; 'I' for Inactive)
REMARK    1  A    between atoms: C_1  and  N_2
REMARK    2  A    between atoms: N_2  and  C_3
REMARK    3  A    between atoms: N_2  and  C_4
REMARK    4  A    between atoms: C_4  and  S_6
REMARK    5  A    between atoms: S_6  and  C_7
REMARK    6  A    between atoms: C_7  and  N_9
REMARK    7  A    between atoms: N_9  and  C_10
REMARK    8  A    between atoms: N_9  and  C_11
REMARK                            x       y       z     vdW  Elec       q    Type
REMARK                         _______ _______ _______ _____ _____    ______ ____
ROOT
ATOM      1  S   UNL     1      -9.982   7.721 129.378  0.00  0.00    +0.000 S 
ENDROOT
BRANCH   1   2
ATOM      2  C   UNL     1      -9.688   6.083 130.046  0.00  0.00    +0.000 C 
ATOM      3  S   UNL     1      -8.225   5.239 130.068  0.00  0.00    +0.000 S 
BRANCH   2   5
ATOM      4  C   UNL     1     -11.760   6.220 131.467  0.00  0.00    +0.000 C 
ATOM      5  N   UNL     1     -10.842   5.441 130.616  0.00  0.00    +0.000 N 
ATOM      6  C   UNL     1     -11.207   4.041 130.428  0.00  0.00    +0.000 C 
ENDBRANCH   2   5
ENDBRANCH   1   2
BRANCH   1   7
ATOM      7  C   UNL     1     -11.203   7.782 128.060  0.00  0.00    +0.000 C 
ATOM      8  S   UNL     1     -10.898   7.547 126.418  0.00  0.00    +0.000 S 
BRANCH   7   9
ATOM      9  N   UNL     1     -12.550   8.058 128.471  0.00  0.00    +0.000 N 
ATOM     10  C   UNL     1     -13.712   7.185 128.297  0.00  0.00    +0.000 C 
ATOM     11  C   UNL     1     -12.915   9.321 129.148  0.00  0.00    +0.000 C 
ENDBRANCH   7   9
ENDBRANCH   1   7
TORSDOF 4
ENDMDL
MODEL 6
REMARK VINA RESULT:      -3.6      2.207      2.709
REMARK  Name = Tetramethylthiuram monosulfide
REMARK  8 active torsions:
REMARK  status: ('A' for Active; 'I' for Inactive)
REMARK    1  A    between atoms: C_1  and  N_2
REMARK    2  A    between atoms: N_2  and  C_3
REMARK    3  A    between atoms: N_2  and  C_4
REMARK    4  A    between atoms: C_4  and  S_6
REMARK    5  A    between atoms: S_6  and  C_7
REMARK    6  A    between atoms: C_7  and  N_9
REMARK    7  A    between atoms: N_9  and  C_10
REMARK    8  A    between atoms: N_9  and  C_11
REMARK                            x       y       z     vdW  Elec       q    Type
REMARK                         _______ _______ _______ _____ _____    ______ ____
ROOT
ATOM      1  S   UNL     1     -11.533   5.710 129.749  0.00  0.00    +0.000 S 
ENDROOT
BRANCH   1   2
ATOM      2  C   UNL     1     -11.548   7.461 129.362  0.00  0.00    +0.000 C 
ATOM      3  S   UNL     1     -10.618   8.254 128.196  0.00  0.00    +0.000 S 
BRANCH   2   5
ATOM      4  C   UNL     1     -12.965   7.720 131.424  0.00  0.00    +0.000 C 
ATOM      5  N   UNL     1     -12.457   8.251 130.147  0.00  0.00    +0.000 N 
ATOM      6  C   UNL     1     -12.944   9.580 129.790  0.00  0.00    +0.000 C 
ENDBRANCH   2   5
ENDBRANCH   1   2
BRANCH   1   7
ATOM      7  C   UNL     1      -9.967   5.098 130.386  0.00  0.00    +0.000 C 
ATOM      8  S   UNL     1      -9.220   3.651 129.948  0.00  0.00    +0.000 S 
BRANCH   7   9
ATOM      9  N   UNL     1      -9.317   5.939 131.350  0.00  0.00    +0.000 N 
ATOM     10  C   UNL     1      -9.632   6.035 132.777  0.00  0.00    +0.000 C 
ATOM     11  C   UNL     1      -8.205   6.839 130.976  0.00  0.00    +0.000 C 
ENDBRANCH   7   9
ENDBRANCH   1   7
TORSDOF 4
ENDMDL
MODEL 7
REMARK VINA RESULT:      -3.6      2.087      2.736
REMARK  Name = Tetramethylthiuram monosulfide
REMARK  8 active torsions:
REMARK  status: ('A' for Active; 'I' for Inactive)
REMARK    1  A    between atoms: C_1  and  N_2
REMARK    2  A    between atoms: N_2  and  C_3
REMARK    3  A    between atoms: N_2  and  C_4
REMARK    4  A    between atoms: C_4  and  S_6
REMARK    5  A    between atoms: S_6  and  C_7
REMARK    6  A    between atoms: C_7  and  N_9
REMARK    7  A    between atoms: N_9  and  C_10
REMARK    8  A    between atoms: N_9  and  C_11
REMARK                            x       y       z     vdW  Elec       q    Type
REMARK                         _______ _______ _______ _____ _____    ______ ____
ROOT
ATOM      1  S   UNL     1      -9.677   7.258 129.985  0.00  0.00    +0.000 S 
ENDROOT
BRANCH   1   2
ATOM      2  C   UNL     1     -11.431   7.604 129.839  0.00  0.00    +0.000 C 
ATOM      3  S   UNL     1     -12.633   7.270 130.978  0.00  0.00    +0.000 S 
BRANCH   2   5
ATOM      4  C   UNL     1     -13.060   9.040 128.570  0.00  0.00    +0.000 C 
ATOM      5  N   UNL     1     -11.828   8.232 128.608  0.00  0.00    +0.000 N 
ATOM      6  C   UNL     1     -11.102   8.146 127.344  0.00  0.00    +0.000 C 
ENDBRANCH   2   5
ENDBRANCH   1   2
BRANCH   1   7
ATOM      7  C   UNL     1      -9.282   5.803 130.965  0.00  0.00    +0.000 C 
ATOM      8  S   UNL     1      -9.980   4.278 130.795  0.00  0.00    +0.000 S 
BRANCH   7   9
ATOM      9  N   UNL     1      -8.279   5.987 131.974  0.00  0.00    +0.000 N 
ATOM     10  C   UNL     1      -6.890   6.399 131.760  0.00  0.00    +0.000 C 
ATOM     11  C   UNL     1      -8.565   5.765 133.408  0.00  0.00    +0.000 C 
ENDBRANCH   7   9
ENDBRANCH   1   7
TORSDOF 4
ENDMDL
MODEL 8
REMARK VINA RESULT:      -3.5      2.254      4.597
REMARK  Name = Tetramethylthiuram monosulfide
REMARK  8 active torsions:
REMARK  status: ('A' for Active; 'I' for Inactive)
REMARK    1  A    between atoms: C_1  and  N_2
REMARK    2  A    between atoms: N_2  and  C_3
REMARK    3  A    between atoms: N_2  and  C_4
REMARK    4  A    between atoms: C_4  and  S_6
REMARK    5  A    between atoms: S_6  and  C_7
REMARK    6  A    between atoms: C_7  and  N_9
REMARK    7  A    between atoms: N_9  and  C_10
REMARK    8  A    between atoms: N_9  and  C_11
REMARK                            x       y       z     vdW  Elec       q    Type
REMARK                         _______ _______ _______ _____ _____    ______ ____
ROOT
ATOM      1  S   UNL     1     -11.262   5.046 130.278  0.00  0.00    +0.000 S 
ENDROOT
BRANCH   1   2
ATOM      2  C   UNL     1      -9.474   4.982 130.406  0.00  0.00    +0.000 C 
ATOM      3  S   UNL     1      -8.428   3.971 129.548  0.00  0.00    +0.000 S 
BRANCH   2   5
ATOM      4  C   UNL     1      -9.373   5.902 132.745  0.00  0.00    +0.000 C 
ATOM      5  N   UNL     1      -8.897   5.900 131.350  0.00  0.00    +0.000 N 
ATOM      6  C   UNL     1      -7.845   6.866 131.051  0.00  0.00    +0.000 C 
ENDBRANCH   2   5
ENDBRANCH   1   2
BRANCH   1   7
ATOM      7  C   UNL     1     -11.937   6.700 130.072  0.00  0.00    +0.000 C 
ATOM      8  S   UNL     1     -12.792   7.570 131.235  0.00  0.00    +0.000 S 
BRANCH   7   9
ATOM      9  N   UNL     1     -11.711   7.309 128.792  0.00  0.00    +0.000 N 
ATOM     10  C   UNL     1     -12.545   7.163 127.597  0.00  0.00    +0.000 C 
ATOM     11  C   UNL     1     -10.551   8.191 128.542  0.00  0.00    +0.000 C 
ENDBRANCH   7   9
ENDBRANCH   1   7
TORSDOF 4
ENDMDL
MODEL 9
REMARK VINA RESULT:      -3.4      8.662     10.473
REMARK  Name = Tetramethylthiuram monosulfide
REMARK  8 active torsions:
REMARK  status: ('A' for Active; 'I' for Inactive)
REMARK    1  A    between atoms: C_1  and  N_2
REMARK    2  A    between atoms: N_2  and  C_3
REMARK    3  A    between atoms: N_2  and  C_4
REMARK    4  A    between atoms: C_4  and  S_6
REMARK    5  A    between atoms: S_6  and  C_7
REMARK    6  A    between atoms: C_7  and  N_9
REMARK    7  A    between atoms: N_9  and  C_10
REMARK    8  A    between atoms: N_9  and  C_11
REMARK                            x       y       z     vdW  Elec       q    Type
REMARK                         _______ _______ _______ _____ _____    ______ ____
ROOT
ATOM      1  S   UNL     1      -6.981  -0.832 123.328  0.00  0.00    +0.000 S 
ENDROOT
BRANCH   1   2
ATOM      2  C   UNL     1      -7.335  -1.889 124.733  0.00  0.00    +0.000 C 
ATOM      3  S   UNL     1      -6.343  -2.173 126.069  0.00  0.00    +0.000 S 
BRANCH   2   5
ATOM      4  C   UNL     1      -9.168  -2.967 123.388  0.00  0.00    +0.000 C 
ATOM      5  N   UNL     1      -8.608  -2.556 124.688  0.00  0.00    +0.000 N 
ATOM      6  C   UNL     1      -9.432  -2.880 125.849  0.00  0.00    +0.000 C 
ENDBRANCH   2   5
ENDBRANCH   1   2
BRANCH   1   7
ATOM      7  C   UNL     1      -7.754   0.790 123.400  0.00  0.00    +0.000 C 
ATOM      8  S   UNL     1      -6.963   2.270 123.244  0.00  0.00    +0.000 S 
BRANCH   7   9
ATOM      9  N   UNL     1      -9.174   0.793 123.611  0.00  0.00    +0.000 N 
ATOM     10  C   UNL     1     -10.208   0.619 122.589  0.00  0.00    +0.000 C 
ATOM     11  C   UNL     1      -9.763   0.984 124.954  0.00  0.00    +0.000 C 
ENDBRANCH   7   9
ENDBRANCH   1   7
TORSDOF 4
ENDMDL
