MODEL 1
REMARK VINA RESULT:      -8.4      0.000      0.000
REMARK  Name = Tezacaftor
REMARK  13 active torsions:
REMARK  status: ('A' for Active; 'I' for Inactive)
REMARK    1  A    between atoms: C_1  and  C_2
REMARK    2  A    between atoms: C_2  and  C_3
REMARK    3  A    between atoms: C_2  and  C_4
REMARK    4  A    between atoms: C_2  and  C_6
REMARK    5  A    between atoms: C_4  and  O_5
REMARK    6  A    between atoms: C_10  and  N_11
REMARK    7  A    between atoms: C_12  and  C_14
REMARK    8  A    between atoms: C_14  and  C_17
REMARK    9  A    between atoms: N_32  and  C_33
REMARK   10  A    between atoms: C_33  and  C_34
REMARK   11  A    between atoms: C_34  and  O_35
REMARK   12  A    between atoms: C_34  and  C_36
REMARK   13  A    between atoms: C_36  and  O_37
REMARK                            x       y       z     vdW  Elec       q    Type
REMARK                         _______ _______ _______ _____ _____    ______ ____
ROOT
ATOM      1  C   UNL     1      -7.428  -0.313 126.070  0.00  0.00    +0.000 A 
ATOM      2  C   UNL     1      -7.903  -0.334 127.380  0.00  0.00    +0.000 A 
ATOM      3  C   UNL     1      -8.066   0.983 127.840  0.00  0.00    +0.000 A 
ATOM      4  C   UNL     1      -8.542   1.557 129.048  0.00  0.00    +0.000 A 
ATOM      5  C   UNL     1      -8.564   2.956 129.192  0.00  0.00    +0.000 A 
ATOM      6  C   UNL     1      -8.166   3.732 128.115  0.00  0.00    +0.000 A 
ATOM      7  F   UNL     1      -8.231   5.063 128.043  0.00  0.00    +0.000 F 
ATOM      8  C   UNL     1      -7.728   3.176 126.951  0.00  0.00    +0.000 A 
ATOM      9  C   UNL     1      -7.654   1.804 126.796  0.00  0.00    +0.000 A 
ATOM     10  N   UNL     1      -7.227   1.022 125.737  0.00  0.00    +0.000 N 
ENDROOT
BRANCH   5  11
ATOM     11  N   UNL     1      -9.033   3.515 130.400  0.00  0.00    +0.000 N 
ATOM     12  C   UNL     1      -8.231   4.342 131.191  0.00  0.00    +0.000 C 
ATOM     13  O   UNL     1      -7.042   4.453 131.109  0.00  0.00    +0.000 OA
ATOM     14  H   UNL     1      -9.952   3.251 130.712  0.00  0.00    +0.000 HD
BRANCH  12  15
ATOM     15  C   UNL     1      -8.924   5.159 132.271  0.00  0.00    +0.000 C 
ATOM     16  C   UNL     1      -8.783   4.620 133.688  0.00  0.00    +0.000 C 
ATOM     17  C   UNL     1      -8.036   5.854 133.338  0.00  0.00    +0.000 C 
BRANCH  15  18
ATOM     18  C   UNL     1      -9.925   6.196 131.600  0.00  0.00    +0.000 A 
ATOM     19  C   UNL     1      -9.384   6.940 130.529  0.00  0.00    +0.000 A 
ATOM     20  C   UNL     1     -10.139   7.182 129.373  0.00  0.00    +0.000 A 
ATOM     21  C   UNL     1     -11.476   6.806 129.338  0.00  0.00    +0.000 A 
ATOM     22  O   UNL     1     -12.374   7.258 128.387  0.00  0.00    +0.000 OA
ATOM     23  C   UNL     1     -12.610   8.458 129.090  0.00  0.00    +0.000 C 
ATOM     24  F   UNL     1     -11.573   9.273 128.724  0.00  0.00    +0.000 F 
ATOM     25  F   UNL     1     -13.732   9.090 128.666  0.00  0.00    +0.000 F 
ATOM     26  O   UNL     1     -12.650   8.160 130.549  0.00  0.00    +0.000 OA
ATOM     27  C   UNL     1     -12.060   6.826 130.568  0.00  0.00    +0.000 A 
ATOM     28  C   UNL     1     -11.340   6.240 131.648  0.00  0.00    +0.000 A 
ENDBRANCH  15  18
ENDBRANCH  12  15
ENDBRANCH   5  11
BRANCH   1  30
ATOM     29  C   UNL     1      -7.589  -2.780 126.069  0.00  0.00    +0.000 C 
ATOM     30  C   UNL     1      -7.237  -1.555 125.196  0.00  0.00    +0.000 C 
ATOM     31  C   UNL     1      -5.753  -1.629 124.781  0.00  0.00    +0.000 C 
BRANCH  30  32
ATOM     32  C   UNL     1      -8.109  -1.619 123.925  0.00  0.00    +0.000 C 
BRANCH  32  33
ATOM     33  O   UNL     1      -9.424  -1.109 124.094  0.00  0.00    +0.000 OA
ATOM     34  H   UNL     1     -10.039  -1.856 124.031  0.00  0.00    +0.000 HD
ENDBRANCH  32  33
ENDBRANCH  30  32
ENDBRANCH   1  30
BRANCH  10  35
ATOM     35  C   UNL     1      -6.665   1.529 124.483  0.00  0.00    +0.000 C 
BRANCH  35  36
ATOM     36  C   UNL     1      -7.599   1.826 123.319  0.00  0.00    +0.000 C 
BRANCH  36  37
ATOM     37  O   UNL     1      -8.965   1.829 123.749  0.00  0.00    +0.000 OA
ATOM     38  H   UNL     1      -9.061   1.279 124.543  0.00  0.00    +0.000 HD
ENDBRANCH  36  37
BRANCH  36  39
ATOM     39  C   UNL     1      -7.342   3.169 122.660  0.00  0.00    +0.000 C 
BRANCH  39  40
ATOM     40  O   UNL     1      -8.566   3.701 122.152  0.00  0.00    +0.000 OA
ATOM     41  H   UNL     1      -8.364   4.206 121.343  0.00  0.00    +0.000 HD
ENDBRANCH  39  40
ENDBRANCH  36  39
ENDBRANCH  35  36
ENDBRANCH  10  35
TORSDOF 11
ENDMDL
MODEL 2
REMARK VINA RESULT:      -8.1      1.711      2.121
REMARK  Name = Tezacaftor
REMARK  13 active torsions:
REMARK  status: ('A' for Active; 'I' for Inactive)
REMARK    1  A    between atoms: C_1  and  C_2
REMARK    2  A    between atoms: C_2  and  C_3
REMARK    3  A    between atoms: C_2  and  C_4
REMARK    4  A    between atoms: C_2  and  C_6
REMARK    5  A    between atoms: C_4  and  O_5
REMARK    6  A    between atoms: C_10  and  N_11
REMARK    7  A    between atoms: C_12  and  C_14
REMARK    8  A    between atoms: C_14  and  C_17
REMARK    9  A    between atoms: N_32  and  C_33
REMARK   10  A    between atoms: C_33  and  C_34
REMARK   11  A    between atoms: C_34  and  O_35
REMARK   12  A    between atoms: C_34  and  C_36
REMARK   13  A    between atoms: C_36  and  O_37
REMARK                            x       y       z     vdW  Elec       q    Type
REMARK                         _______ _______ _______ _____ _____    ______ ____
ROOT
ATOM      1  C   UNL     1      -8.034  -1.102 126.897  0.00  0.00    +0.000 A 
ATOM      2  C   UNL     1      -7.817  -0.853 128.250  0.00  0.00    +0.000 A 
ATOM      3  C   UNL     1      -7.803   0.533 128.476  0.00  0.00    +0.000 A 
ATOM      4  C   UNL     1      -7.665   1.347 129.630  0.00  0.00    +0.000 A 
ATOM      5  C   UNL     1      -7.685   2.747 129.502  0.00  0.00    +0.000 A 
ATOM      6  C   UNL     1      -7.896   3.287 128.243  0.00  0.00    +0.000 A 
ATOM      7  F   UNL     1      -8.056   4.582 127.964  0.00  0.00    +0.000 F 
ATOM      8  C   UNL     1      -8.048   2.501 127.141  0.00  0.00    +0.000 A 
ATOM      9  C   UNL     1      -7.988   1.122 127.229  0.00  0.00    +0.000 A 
ATOM     10  N   UNL     1      -8.087   0.136 126.264  0.00  0.00    +0.000 N 
ENDROOT
BRANCH   5  11
ATOM     11  N   UNL     1      -7.541   3.545 130.657  0.00  0.00    +0.000 N 
ATOM     12  C   UNL     1      -6.473   4.433 130.811  0.00  0.00    +0.000 C 
ATOM     13  O   UNL     1      -5.463   4.434 130.168  0.00  0.00    +0.000 OA
ATOM     14  H   UNL     1      -8.202   3.413 131.403  0.00  0.00    +0.000 HD
BRANCH  12  15
ATOM     15  C   UNL     1      -6.589   5.479 131.910  0.00  0.00    +0.000 C 
ATOM     16  C   UNL     1      -5.463   5.478 132.933  0.00  0.00    +0.000 C 
ATOM     17  C   UNL     1      -5.516   6.600 131.962  0.00  0.00    +0.000 C 
BRANCH  15  18
ATOM     18  C   UNL     1      -8.056   6.095 131.911  0.00  0.00    +0.000 A 
ATOM     19  C   UNL     1      -8.414   6.783 130.731  0.00  0.00    +0.000 A 
ATOM     20  C   UNL     1      -9.694   6.634 130.177  0.00  0.00    +0.000 A 
ATOM     21  C   UNL     1     -10.658   5.914 130.869  0.00  0.00    +0.000 A 
ATOM     22  O   UNL     1     -12.009   5.957 130.569  0.00  0.00    +0.000 OA
ATOM     23  C   UNL     1     -12.199   7.143 131.309  0.00  0.00    +0.000 C 
ATOM     24  F   UNL     1     -11.817   8.139 130.452  0.00  0.00    +0.000 F 
ATOM     25  F   UNL     1     -13.507   7.379 131.576  0.00  0.00    +0.000 F 
ATOM     26  O   UNL     1     -11.376   7.073 132.548  0.00  0.00    +0.000 OA
ATOM     27  C   UNL     1     -10.486   5.964 132.219  0.00  0.00    +0.000 A 
ATOM     28  C   UNL     1      -9.169   5.765 132.722  0.00  0.00    +0.000 A 
ENDBRANCH  15  18
ENDBRANCH  12  15
ENDBRANCH   5  11
BRANCH   1  30
ATOM     29  C   UNL     1      -8.316  -3.491 127.467  0.00  0.00    +0.000 C 
ATOM     30  C   UNL     1      -8.227  -2.494 126.290  0.00  0.00    +0.000 C 
ATOM     31  C   UNL     1      -6.988  -2.822 125.431  0.00  0.00    +0.000 C 
BRANCH  30  32
ATOM     32  C   UNL     1      -9.490  -2.677 125.424  0.00  0.00    +0.000 C 
BRANCH  32  33
ATOM     33  O   UNL     1      -9.238  -3.213 124.132  0.00  0.00    +0.000 OA
ATOM     34  H   UNL     1      -9.972  -2.949 123.557  0.00  0.00    +0.000 HD
ENDBRANCH  32  33
ENDBRANCH  30  32
ENDBRANCH   1  30
BRANCH  10  35
ATOM     35  C   UNL     1      -8.226   0.370 124.825  0.00  0.00    +0.000 C 
BRANCH  35  36
ATOM     36  C   UNL     1      -9.583   0.775 124.268  0.00  0.00    +0.000 C 
BRANCH  36  37
ATOM     37  O   UNL     1      -9.663   2.196 124.104  0.00  0.00    +0.000 OA
ATOM     38  H   UNL     1      -9.601   2.421 123.162  0.00  0.00    +0.000 HD
ENDBRANCH  36  37
BRANCH  36  39
ATOM     39  C   UNL     1      -9.897   0.158 122.918  0.00  0.00    +0.000 C 
BRANCH  39  40
ATOM     40  O   UNL     1     -11.272   0.368 122.597  0.00  0.00    +0.000 OA
ATOM     41  H   UNL     1     -11.427   0.034 121.695  0.00  0.00    +0.000 HD
ENDBRANCH  39  40
ENDBRANCH  36  39
ENDBRANCH  35  36
ENDBRANCH  10  35
TORSDOF 11
ENDMDL
MODEL 3
REMARK VINA RESULT:      -8.1      1.649      2.944
REMARK  Name = Tezacaftor
REMARK  13 active torsions:
REMARK  status: ('A' for Active; 'I' for Inactive)
REMARK    1  A    between atoms: C_1  and  C_2
REMARK    2  A    between atoms: C_2  and  C_3
REMARK    3  A    between atoms: C_2  and  C_4
REMARK    4  A    between atoms: C_2  and  C_6
REMARK    5  A    between atoms: C_4  and  O_5
REMARK    6  A    between atoms: C_10  and  N_11
REMARK    7  A    between atoms: C_12  and  C_14
REMARK    8  A    between atoms: C_14  and  C_17
REMARK    9  A    between atoms: N_32  and  C_33
REMARK   10  A    between atoms: C_33  and  C_34
REMARK   11  A    between atoms: C_34  and  O_35
REMARK   12  A    between atoms: C_34  and  C_36
REMARK   13  A    between atoms: C_36  and  O_37
REMARK                            x       y       z     vdW  Elec       q    Type
REMARK                         _______ _______ _______ _____ _____    ______ ____
ROOT
ATOM      1  C   UNL     1      -7.990   0.689 125.531  0.00  0.00    +0.000 A 
ATOM      2  C   UNL     1      -8.413   1.856 126.163  0.00  0.00    +0.000 A 
ATOM      3  C   UNL     1      -8.414   1.663 127.554  0.00  0.00    +0.000 A 
ATOM      4  C   UNL     1      -8.706   2.493 128.668  0.00  0.00    +0.000 A 
ATOM      5  C   UNL     1      -8.616   1.968 129.969  0.00  0.00    +0.000 A 
ATOM      6  C   UNL     1      -8.186   0.658 130.119  0.00  0.00    +0.000 A 
ATOM      7  F   UNL     1      -7.938   0.044 131.278  0.00  0.00    +0.000 F 
ATOM      8  C   UNL     1      -7.887  -0.127 129.048  0.00  0.00    +0.000 A 
ATOM      9  C   UNL     1      -8.010   0.348 127.755  0.00  0.00    +0.000 A 
ATOM     10  N   UNL     1      -7.792  -0.259 126.530  0.00  0.00    +0.000 N 
ENDROOT
BRANCH   5  11
ATOM     11  N   UNL     1      -8.915   2.800 131.069  0.00  0.00    +0.000 N 
ATOM     12  C   UNL     1      -8.120   3.901 131.400  0.00  0.00    +0.000 C 
ATOM     13  O   UNL     1      -7.009   4.108 131.003  0.00  0.00    +0.000 OA
ATOM     14  H   UNL     1      -9.692   2.543 131.653  0.00  0.00    +0.000 HD
BRANCH  12  15
ATOM     15  C   UNL     1      -8.704   4.917 132.369  0.00  0.00    +0.000 C 
ATOM     16  C   UNL     1      -8.512   4.597 133.845  0.00  0.00    +0.000 C 
ATOM     17  C   UNL     1      -7.721   5.712 133.268  0.00  0.00    +0.000 C 
BRANCH  15  18
ATOM     18  C   UNL     1      -9.684   5.899 131.590  0.00  0.00    +0.000 A 
ATOM     19  C   UNL     1      -9.208   6.347 130.339  0.00  0.00    +0.000 A 
ATOM     20  C   UNL     1     -10.069   6.430 129.235  0.00  0.00    +0.000 A 
ATOM     21  C   UNL     1     -11.427   6.201 129.408  0.00  0.00    +0.000 A 
ATOM     22  O   UNL     1     -12.388   6.545 128.473  0.00  0.00    +0.000 OA
ATOM     23  C   UNL     1     -12.438   7.881 128.923  0.00  0.00    +0.000 C 
ATOM     24  F   UNL     1     -11.384   8.488 128.295  0.00  0.00    +0.000 F 
ATOM     25  F   UNL     1     -13.543   8.532 128.483  0.00  0.00    +0.000 F 
ATOM     26  O   UNL     1     -12.333   7.891 130.409  0.00  0.00    +0.000 OA
ATOM     27  C   UNL     1     -11.862   6.533 130.656  0.00  0.00    +0.000 A 
ATOM     28  C   UNL     1     -11.075   6.104 131.762  0.00  0.00    +0.000 A 
ENDBRANCH  15  18
ENDBRANCH  12  15
ENDBRANCH   5  11
BRANCH   1  30
ATOM     29  C   UNL     1      -7.189   1.905 123.534  0.00  0.00    +0.000 C 
ATOM     30  C   UNL     1      -7.752   0.553 124.026  0.00  0.00    +0.000 C 
ATOM     31  C   UNL     1      -9.111   0.286 123.345  0.00  0.00    +0.000 C 
BRANCH  30  32
ATOM     32  C   UNL     1      -6.762  -0.550 123.601  0.00  0.00    +0.000 C 
BRANCH  32  33
ATOM     33  O   UNL     1      -7.283  -1.464 122.646  0.00  0.00    +0.000 OA
ATOM     34  H   UNL     1      -7.504  -0.960 121.847  0.00  0.00    +0.000 HD
ENDBRANCH  32  33
ENDBRANCH  30  32
ENDBRANCH   1  30
BRANCH  10  35
ATOM     35  C   UNL     1      -7.416  -1.660 126.334  0.00  0.00    +0.000 C 
BRANCH  35  36
ATOM     36  C   UNL     1      -8.509  -2.703 126.151  0.00  0.00    +0.000 C 
BRANCH  36  37
ATOM     37  O   UNL     1      -9.763  -2.079 125.848  0.00  0.00    +0.000 OA
ATOM     38  H   UNL     1     -10.284  -1.978 126.659  0.00  0.00    +0.000 HD
ENDBRANCH  36  37
BRANCH  36  39
ATOM     39  C   UNL     1      -8.227  -3.692 125.035  0.00  0.00    +0.000 C 
BRANCH  39  40
ATOM     40  O   UNL     1      -9.085  -3.427 123.925  0.00  0.00    +0.000 OA
ATOM     41  H   UNL     1      -9.439  -4.277 123.605  0.00  0.00    +0.000 HD
ENDBRANCH  39  40
ENDBRANCH  36  39
ENDBRANCH  35  36
ENDBRANCH  10  35
TORSDOF 11
ENDMDL
MODEL 4
REMARK VINA RESULT:      -8.1      3.938      9.655
REMARK  Name = Tezacaftor
REMARK  13 active torsions:
REMARK  status: ('A' for Active; 'I' for Inactive)
REMARK    1  A    between atoms: C_1  and  C_2
REMARK    2  A    between atoms: C_2  and  C_3
REMARK    3  A    between atoms: C_2  and  C_4
REMARK    4  A    between atoms: C_2  and  C_6
REMARK    5  A    between atoms: C_4  and  O_5
REMARK    6  A    between atoms: C_10  and  N_11
REMARK    7  A    between atoms: C_12  and  C_14
REMARK    8  A    between atoms: C_14  and  C_17
REMARK    9  A    between atoms: N_32  and  C_33
REMARK   10  A    between atoms: C_33  and  C_34
REMARK   11  A    between atoms: C_34  and  O_35
REMARK   12  A    between atoms: C_34  and  C_36
REMARK   13  A    between atoms: C_36  and  O_37
REMARK                            x       y       z     vdW  Elec       q    Type
REMARK                         _______ _______ _______ _____ _____    ______ ____
ROOT
ATOM      1  C   UNL     1      -9.669   5.047 130.597  0.00  0.00    +0.000 A 
ATOM      2  C   UNL     1      -9.578   3.967 129.721  0.00  0.00    +0.000 A 
ATOM      3  C   UNL     1      -8.557   3.102 130.147  0.00  0.00    +0.000 A 
ATOM      4  C   UNL     1      -8.053   1.860 129.681  0.00  0.00    +0.000 A 
ATOM      5  C   UNL     1      -6.981   1.248 130.353  0.00  0.00    +0.000 A 
ATOM      6  C   UNL     1      -6.486   1.861 131.494  0.00  0.00    +0.000 A 
ATOM      7  F   UNL     1      -5.555   1.361 132.309  0.00  0.00    +0.000 F 
ATOM      8  C   UNL     1      -6.986   3.043 131.949  0.00  0.00    +0.000 A 
ATOM      9  C   UNL     1      -8.010   3.691 131.283  0.00  0.00    +0.000 A 
ATOM     10  N   UNL     1      -8.654   4.890 131.535  0.00  0.00    +0.000 N 
ENDROOT
BRANCH   5  11
ATOM     11  N   UNL     1      -6.484   0.015 129.877  0.00  0.00    +0.000 N 
ATOM     12  C   UNL     1      -7.127  -1.195 130.150  0.00  0.00    +0.000 C 
ATOM     13  O   UNL     1      -7.959  -1.373 130.992  0.00  0.00    +0.000 OA
ATOM     14  H   UNL     1      -5.610   0.024 129.380  0.00  0.00    +0.000 HD
BRANCH  12  15
ATOM     15  C   UNL     1      -6.719  -2.404 129.321  0.00  0.00    +0.000 C 
ATOM     16  C   UNL     1      -5.436  -3.094 129.763  0.00  0.00    +0.000 C 
ATOM     17  C   UNL     1      -6.721  -3.793 130.013  0.00  0.00    +0.000 C 
BRANCH  15  18
ATOM     18  C   UNL     1      -7.560  -2.438 127.972  0.00  0.00    +0.000 A 
ATOM     19  C   UNL     1      -6.913  -1.874 126.851  0.00  0.00    +0.000 A 
ATOM     20  C   UNL     1      -6.992  -2.490 125.594  0.00  0.00    +0.000 A 
ATOM     21  C   UNL     1      -7.827  -3.586 125.422  0.00  0.00    +0.000 A 
ATOM     22  O   UNL     1      -8.205  -4.074 124.183  0.00  0.00    +0.000 OA
ATOM     23  C   UNL     1      -9.239  -3.123 124.055  0.00  0.00    +0.000 C 
ATOM     24  F   UNL     1      -8.607  -1.999 123.594  0.00  0.00    +0.000 F 
ATOM     25  F   UNL     1     -10.130  -3.457 123.090  0.00  0.00    +0.000 F 
ATOM     26  O   UNL     1      -9.890  -2.939 125.382  0.00  0.00    +0.000 OA
ATOM     27  C   UNL     1      -8.904  -3.565 126.256  0.00  0.00    +0.000 A 
ATOM     28  C   UNL     1      -8.670  -3.247 127.624  0.00  0.00    +0.000 A 
ENDBRANCH  15  18
ENDBRANCH  12  15
ENDBRANCH   5  11
BRANCH   1  30
ATOM     29  C   UNL     1     -11.815   5.647 129.525  0.00  0.00    +0.000 C 
ATOM     30  C   UNL     1     -10.742   6.136 130.523  0.00  0.00    +0.000 C 
ATOM     31  C   UNL     1     -10.085   7.423 129.981  0.00  0.00    +0.000 C 
BRANCH  30  32
ATOM     32  C   UNL     1     -11.453   6.467 131.851  0.00  0.00    +0.000 C 
BRANCH  32  33
ATOM     33  O   UNL     1     -12.781   6.946 131.696  0.00  0.00    +0.000 OA
ATOM     34  H   UNL     1     -13.379   6.276 132.064  0.00  0.00    +0.000 HD
ENDBRANCH  32  33
ENDBRANCH  30  32
ENDBRANCH   1  30
BRANCH  10  35
ATOM     35  C   UNL     1      -8.315   5.824 132.611  0.00  0.00    +0.000 C 
BRANCH  35  36
ATOM     36  C   UNL     1      -8.827   5.550 134.017  0.00  0.00    +0.000 C 
BRANCH  36  37
ATOM     37  O   UNL     1      -9.675   4.395 134.036  0.00  0.00    +0.000 OA
ATOM     38  H   UNL     1      -9.712   4.030 134.934  0.00  0.00    +0.000 HD
ENDBRANCH  36  37
BRANCH  36  39
ATOM     39  C   UNL     1      -7.724   5.302 135.030  0.00  0.00    +0.000 C 
BRANCH  39  40
ATOM     40  O   UNL     1      -8.070   5.898 136.280  0.00  0.00    +0.000 OA
ATOM     41  H   UNL     1      -7.781   6.829 136.263  0.00  0.00    +0.000 HD
ENDBRANCH  39  40
ENDBRANCH  36  39
ENDBRANCH  35  36
ENDBRANCH  10  35
TORSDOF 11
ENDMDL
MODEL 5
REMARK VINA RESULT:      -8.0      3.697      9.527
REMARK  Name = Tezacaftor
REMARK  13 active torsions:
REMARK  status: ('A' for Active; 'I' for Inactive)
REMARK    1  A    between atoms: C_1  and  C_2
REMARK    2  A    between atoms: C_2  and  C_3
REMARK    3  A    between atoms: C_2  and  C_4
REMARK    4  A    between atoms: C_2  and  C_6
REMARK    5  A    between atoms: C_4  and  O_5
REMARK    6  A    between atoms: C_10  and  N_11
REMARK    7  A    between atoms: C_12  and  C_14
REMARK    8  A    between atoms: C_14  and  C_17
REMARK    9  A    between atoms: N_32  and  C_33
REMARK   10  A    between atoms: C_33  and  C_34
REMARK   11  A    between atoms: C_34  and  O_35
REMARK   12  A    between atoms: C_34  and  C_36
REMARK   13  A    between atoms: C_36  and  O_37
REMARK                            x       y       z     vdW  Elec       q    Type
REMARK                         _______ _______ _______ _____ _____    ______ ____
ROOT
ATOM      1  C   UNL     1      -4.306   5.648 129.780  0.00  0.00    +0.000 A 
ATOM      2  C   UNL     1      -4.117   5.176 128.483  0.00  0.00    +0.000 A 
ATOM      3  C   UNL     1      -5.225   4.401 128.100  0.00  0.00    +0.000 A 
ATOM      4  C   UNL     1      -5.592   3.719 126.911  0.00  0.00    +0.000 A 
ATOM      5  C   UNL     1      -6.803   3.007 126.863  0.00  0.00    +0.000 A 
ATOM      6  C   UNL     1      -7.630   3.044 127.975  0.00  0.00    +0.000 A 
ATOM      7  F   UNL     1      -8.855   2.521 128.056  0.00  0.00    +0.000 F 
ATOM      8  C   UNL     1      -7.282   3.716 129.107  0.00  0.00    +0.000 A 
ATOM      9  C   UNL     1      -6.077   4.388 129.199  0.00  0.00    +0.000 A 
ATOM     10  N   UNL     1      -5.505   5.108 130.234  0.00  0.00    +0.000 N 
ENDROOT
BRANCH   5  11
ATOM     11  N   UNL     1      -7.154   2.327 125.677  0.00  0.00    +0.000 N 
ATOM     12  C   UNL     1      -8.054   2.869 124.755  0.00  0.00    +0.000 C 
ATOM     13  O   UNL     1      -8.806   3.778 124.959  0.00  0.00    +0.000 OA
ATOM     14  H   UNL     1      -6.783   1.403 125.539  0.00  0.00    +0.000 HD
BRANCH  12  15
ATOM     15  C   UNL     1      -8.102   2.235 123.373  0.00  0.00    +0.000 C 
ATOM     16  C   UNL     1      -8.430   3.186 122.230  0.00  0.00    +0.000 C 
ATOM     17  C   UNL     1      -7.039   2.678 122.333  0.00  0.00    +0.000 C 
BRANCH  15  18
ATOM     18  C   UNL     1      -8.138   0.651 123.510  0.00  0.00    +0.000 A 
ATOM     19  C   UNL     1      -6.890   0.010 123.353  0.00  0.00    +0.000 A 
ATOM     20  C   UNL     1      -6.521  -1.051 124.191  0.00  0.00    +0.000 A 
ATOM     21  C   UNL     1      -7.445  -1.566 125.090  0.00  0.00    +0.000 A 
ATOM     22  O   UNL     1      -7.291  -2.780 125.737  0.00  0.00    +0.000 OA
ATOM     23  C   UNL     1      -7.792  -3.502 124.633  0.00  0.00    +0.000 C 
ATOM     24  F   UNL     1      -6.714  -3.632 123.799  0.00  0.00    +0.000 F 
ATOM     25  F   UNL     1      -8.146  -4.768 124.963  0.00  0.00    +0.000 F 
ATOM     26  O   UNL     1      -8.923  -2.739 124.033  0.00  0.00    +0.000 OA
ATOM     27  C   UNL     1      -8.730  -1.436 124.658  0.00  0.00    +0.000 A 
ATOM     28  C   UNL     1      -9.116  -0.178 124.114  0.00  0.00    +0.000 A 
ENDBRANCH  15  18
ENDBRANCH  12  15
ENDBRANCH   5  11
BRANCH   1  30
ATOM     29  C   UNL     1      -1.977   6.478 129.830  0.00  0.00    +0.000 C 
ATOM     30  C   UNL     1      -3.365   6.620 130.495  0.00  0.00    +0.000 C 
ATOM     31  C   UNL     1      -3.269   6.197 131.977  0.00  0.00    +0.000 C 
BRANCH  30  32
ATOM     32  C   UNL     1      -3.765   8.108 130.432  0.00  0.00    +0.000 C 
BRANCH  32  33
ATOM     33  O   UNL     1      -4.973   8.357 129.728  0.00  0.00    +0.000 OA
ATOM     34  H   UNL     1      -4.746   8.840 128.918  0.00  0.00    +0.000 HD
ENDBRANCH  32  33
ENDBRANCH  30  32
ENDBRANCH   1  30
BRANCH  10  35
ATOM     35  C   UNL     1      -6.077   5.268 131.572  0.00  0.00    +0.000 C 
BRANCH  35  36
ATOM     36  C   UNL     1      -7.136   6.336 131.802  0.00  0.00    +0.000 C 
BRANCH  36  37
ATOM     37  O   UNL     1      -7.262   7.185 130.655  0.00  0.00    +0.000 OA
ATOM     38  H   UNL     1      -7.134   6.665 129.847  0.00  0.00    +0.000 HD
ENDBRANCH  36  37
BRANCH  36  39
ATOM     39  C   UNL     1      -8.517   5.773 132.088  0.00  0.00    +0.000 C 
BRANCH  39  40
ATOM     40  O   UNL     1      -9.513   6.728 131.723  0.00  0.00    +0.000 OA
ATOM     41  H   UNL     1      -9.770   7.220 132.523  0.00  0.00    +0.000 HD
ENDBRANCH  39  40
ENDBRANCH  36  39
ENDBRANCH  35  36
ENDBRANCH  10  35
TORSDOF 11
ENDMDL
MODEL 6
REMARK VINA RESULT:      -7.9      3.871      9.354
REMARK  Name = Tezacaftor
REMARK  13 active torsions:
REMARK  status: ('A' for Active; 'I' for Inactive)
REMARK    1  A    between atoms: C_1  and  C_2
REMARK    2  A    between atoms: C_2  and  C_3
REMARK    3  A    between atoms: C_2  and  C_4
REMARK    4  A    between atoms: C_2  and  C_6
REMARK    5  A    between atoms: C_4  and  O_5
REMARK    6  A    between atoms: C_10  and  N_11
REMARK    7  A    between atoms: C_12  and  C_14
REMARK    8  A    between atoms: C_14  and  C_17
REMARK    9  A    between atoms: N_32  and  C_33
REMARK   10  A    between atoms: C_33  and  C_34
REMARK   11  A    between atoms: C_34  and  O_35
REMARK   12  A    between atoms: C_34  and  C_36
REMARK   13  A    between atoms: C_36  and  O_37
REMARK                            x       y       z     vdW  Elec       q    Type
REMARK                         _______ _______ _______ _____ _____    ______ ____
ROOT
ATOM      1  C   UNL     1      -4.756   5.158 131.089  0.00  0.00    +0.000 A 
ATOM      2  C   UNL     1      -4.320   3.909 130.653  0.00  0.00    +0.000 A 
ATOM      3  C   UNL     1      -5.356   2.972 130.800  0.00  0.00    +0.000 A 
ATOM      4  C   UNL     1      -5.495   1.593 130.495  0.00  0.00    +0.000 A 
ATOM      5  C   UNL     1      -6.700   0.933 130.790  0.00  0.00    +0.000 A 
ATOM      6  C   UNL     1      -7.741   1.676 131.325  0.00  0.00    +0.000 A 
ATOM      7  F   UNL     1      -8.979   1.235 131.556  0.00  0.00    +0.000 F 
ATOM      8  C   UNL     1      -7.609   3.004 131.598  0.00  0.00    +0.000 A 
ATOM      9  C   UNL     1      -6.421   3.670 131.360  0.00  0.00    +0.000 A 
ATOM     10  N   UNL     1      -6.048   4.985 131.574  0.00  0.00    +0.000 N 
ENDROOT
BRANCH   5  11
ATOM     11  N   UNL     1      -6.824  -0.440 130.487  0.00  0.00    +0.000 N 
ATOM     12  C   UNL     1      -7.335  -0.883 129.264  0.00  0.00    +0.000 C 
ATOM     13  O   UNL     1      -7.952  -0.221 128.480  0.00  0.00    +0.000 OA
ATOM     14  H   UNL     1      -6.588  -1.102 131.207  0.00  0.00    +0.000 HD
BRANCH  12  15
ATOM     15  C   UNL     1      -7.111  -2.344 128.903  0.00  0.00    +0.000 C 
ATOM     16  C   UNL     1      -6.397  -3.175 129.960  0.00  0.00    +0.000 C 
ATOM     17  C   UNL     1      -7.845  -3.421 129.745  0.00  0.00    +0.000 C 
BRANCH  15  18
ATOM     18  C   UNL     1      -7.374  -2.559 127.349  0.00  0.00    +0.000 A 
ATOM     19  C   UNL     1      -8.635  -3.105 127.028  0.00  0.00    +0.000 A 
ATOM     20  C   UNL     1      -9.368  -2.618 125.937  0.00  0.00    +0.000 A 
ATOM     21  C   UNL     1      -8.788  -1.688 125.084  0.00  0.00    +0.000 A 
ATOM     22  O   UNL     1      -9.295  -1.374 123.835  0.00  0.00    +0.000 OA
ATOM     23  C   UNL     1      -8.669  -2.486 123.233  0.00  0.00    +0.000 C 
ATOM     24  F   UNL     1      -9.519  -3.529 123.488  0.00  0.00    +0.000 F 
ATOM     25  F   UNL     1      -8.621  -2.382 121.882  0.00  0.00    +0.000 F 
ATOM     26  O   UNL     1      -7.316  -2.658 123.832  0.00  0.00    +0.000 OA
ATOM     27  C   UNL     1      -7.434  -1.811 125.013  0.00  0.00    +0.000 A 
ATOM     28  C   UNL     1      -6.724  -1.970 126.237  0.00  0.00    +0.000 A 
ENDBRANCH  15  18
ENDBRANCH  12  15
ENDBRANCH   5  11
BRANCH   1  30
ATOM     29  C   UNL     1      -2.659   6.108 130.187  0.00  0.00    +0.000 C 
ATOM     30  C   UNL     1      -3.943   6.450 130.975  0.00  0.00    +0.000 C 
ATOM     31  C   UNL     1      -3.564   6.908 132.399  0.00  0.00    +0.000 C 
BRANCH  30  32
ATOM     32  C   UNL     1      -4.641   7.619 130.250  0.00  0.00    +0.000 C 
BRANCH  32  33
ATOM     33  O   UNL     1      -4.213   7.811 128.909  0.00  0.00    +0.000 OA
ATOM     34  H   UNL     1      -4.629   8.625 128.582  0.00  0.00    +0.000 HD
ENDBRANCH  32  33
ENDBRANCH  30  32
ENDBRANCH   1  30
BRANCH  10  35
ATOM     35  C   UNL     1      -6.882   6.010 132.205  0.00  0.00    +0.000 C 
BRANCH  35  36
ATOM     36  C   UNL     1      -7.998   6.657 131.397  0.00  0.00    +0.000 C 
BRANCH  36  37
ATOM     37  O   UNL     1      -7.882   6.324 130.009  0.00  0.00    +0.000 OA
ATOM     38  H   UNL     1      -8.097   5.387 129.877  0.00  0.00    +0.000 HD
ENDBRANCH  36  37
BRANCH  36  39
ATOM     39  C   UNL     1      -9.390   6.236 131.835  0.00  0.00    +0.000 C 
BRANCH  39  40
ATOM     40  O   UNL     1      -9.486   6.291 133.258  0.00  0.00    +0.000 OA
ATOM     41  H   UNL     1     -10.351   6.676 133.490  0.00  0.00    +0.000 HD
ENDBRANCH  39  40
ENDBRANCH  36  39
ENDBRANCH  35  36
ENDBRANCH  10  35
TORSDOF 11
ENDMDL
MODEL 7
REMARK VINA RESULT:      -7.9      5.562      9.849
REMARK  Name = Tezacaftor
REMARK  13 active torsions:
REMARK  status: ('A' for Active; 'I' for Inactive)
REMARK    1  A    between atoms: C_1  and  C_2
REMARK    2  A    between atoms: C_2  and  C_3
REMARK    3  A    between atoms: C_2  and  C_4
REMARK    4  A    between atoms: C_2  and  C_6
REMARK    5  A    between atoms: C_4  and  O_5
REMARK    6  A    between atoms: C_10  and  N_11
REMARK    7  A    between atoms: C_12  and  C_14
REMARK    8  A    between atoms: C_14  and  C_17
REMARK    9  A    between atoms: N_32  and  C_33
REMARK   10  A    between atoms: C_33  and  C_34
REMARK   11  A    between atoms: C_34  and  O_35
REMARK   12  A    between atoms: C_34  and  C_36
REMARK   13  A    between atoms: C_36  and  O_37
REMARK                            x       y       z     vdW  Elec       q    Type
REMARK                         _______ _______ _______ _____ _____    ______ ____
ROOT
ATOM      1  C   UNL     1      -3.456   4.964 130.194  0.00  0.00    +0.000 A 
ATOM      2  C   UNL     1      -3.713   4.004 129.218  0.00  0.00    +0.000 A 
ATOM      3  C   UNL     1      -4.487   2.969 129.769  0.00  0.00    +0.000 A 
ATOM      4  C   UNL     1      -5.063   1.780 129.251  0.00  0.00    +0.000 A 
ATOM      5  C   UNL     1      -5.793   0.932 130.102  0.00  0.00    +0.000 A 
ATOM      6  C   UNL     1      -5.970   1.321 131.421  0.00  0.00    +0.000 A 
ATOM      7  F   UNL     1      -6.724   0.696 132.327  0.00  0.00    +0.000 F 
ATOM      8  C   UNL     1      -5.431   2.473 131.909  0.00  0.00    +0.000 A 
ATOM      9  C   UNL     1      -4.671   3.305 131.107  0.00  0.00    +0.000 A 
ATOM     10  N   UNL     1      -4.014   4.492 131.378  0.00  0.00    +0.000 N 
ENDROOT
BRANCH   5  11
ATOM     11  N   UNL     1      -6.356  -0.250 129.577  0.00  0.00    +0.000 N 
ATOM     12  C   UNL     1      -5.644  -1.453 129.537  0.00  0.00    +0.000 C 
ATOM     13  O   UNL     1      -4.460  -1.571 129.668  0.00  0.00    +0.000 OA
ATOM     14  H   UNL     1      -7.274  -0.192 129.171  0.00  0.00    +0.000 HD
BRANCH  12  15
ATOM     15  C   UNL     1      -6.438  -2.724 129.279  0.00  0.00    +0.000 C 
ATOM     16  C   UNL     1      -6.014  -3.935 130.098  0.00  0.00    +0.000 C 
ATOM     17  C   UNL     1      -7.306  -3.286 130.437  0.00  0.00    +0.000 C 
BRANCH  15  18
ATOM     18  C   UNL     1      -7.298  -2.560 127.951  0.00  0.00    +0.000 A 
ATOM     19  C   UNL     1      -6.587  -2.060 126.838  0.00  0.00    +0.000 A 
ATOM     20  C   UNL     1      -6.791  -2.599 125.560  0.00  0.00    +0.000 A 
ATOM     21  C   UNL     1      -7.798  -3.534 125.364  0.00  0.00    +0.000 A 
ATOM     22  O   UNL     1      -8.274  -3.898 124.117  0.00  0.00    +0.000 OA
ATOM     23  C   UNL     1      -9.139  -2.785 124.054  0.00  0.00    +0.000 C 
ATOM     24  F   UNL     1      -8.339  -1.761 123.623  0.00  0.00    +0.000 F 
ATOM     25  F   UNL     1     -10.091  -2.925 123.099  0.00  0.00    +0.000 F 
ATOM     26  O   UNL     1      -9.726  -2.556 125.404  0.00  0.00    +0.000 OA
ATOM     27  C   UNL     1      -8.841  -3.374 126.225  0.00  0.00    +0.000 A 
ATOM     28  C   UNL     1      -8.532  -3.160 127.599  0.00  0.00    +0.000 A 
ENDBRANCH  15  18
ENDBRANCH  12  15
ENDBRANCH   5  11
BRANCH   1  30
ATOM     29  C   UNL     1      -2.316   6.298 128.453  0.00  0.00    +0.000 C 
ATOM     30  C   UNL     1      -2.741   6.292 129.939  0.00  0.00    +0.000 C 
ATOM     31  C   UNL     1      -1.483   6.342 130.832  0.00  0.00    +0.000 C 
BRANCH  30  32
ATOM     32  C   UNL     1      -3.577   7.563 130.193  0.00  0.00    +0.000 C 
BRANCH  32  33
ATOM     33  O   UNL     1      -4.955   7.426 129.876  0.00  0.00    +0.000 OA
ATOM     34  H   UNL     1      -5.251   6.568 130.219  0.00  0.00    +0.000 HD
ENDBRANCH  32  33
ENDBRANCH  30  32
ENDBRANCH   1  30
BRANCH  10  35
ATOM     35  C   UNL     1      -3.929   5.132 132.692  0.00  0.00    +0.000 C 
BRANCH  35  36
ATOM     36  C   UNL     1      -3.021   4.528 133.754  0.00  0.00    +0.000 C 
BRANCH  36  37
ATOM     37  O   UNL     1      -2.032   5.474 134.177  0.00  0.00    +0.000 OA
ATOM     38  H   UNL     1      -1.249   5.406 133.608  0.00  0.00    +0.000 HD
ENDBRANCH  36  37
BRANCH  36  39
ATOM     39  C   UNL     1      -3.758   4.074 135.001  0.00  0.00    +0.000 C 
BRANCH  39  40
ATOM     40  O   UNL     1      -3.383   2.736 135.326  0.00  0.00    +0.000 OA
ATOM     41  H   UNL     1      -2.877   2.757 136.158  0.00  0.00    +0.000 HD
ENDBRANCH  39  40
ENDBRANCH  36  39
ENDBRANCH  35  36
ENDBRANCH  10  35
TORSDOF 11
ENDMDL
MODEL 8
REMARK VINA RESULT:      -7.7      3.715      4.809
REMARK  Name = Tezacaftor
REMARK  13 active torsions:
REMARK  status: ('A' for Active; 'I' for Inactive)
REMARK    1  A    between atoms: C_1  and  C_2
REMARK    2  A    between atoms: C_2  and  C_3
REMARK    3  A    between atoms: C_2  and  C_4
REMARK    4  A    between atoms: C_2  and  C_6
REMARK    5  A    between atoms: C_4  and  O_5
REMARK    6  A    between atoms: C_10  and  N_11
REMARK    7  A    between atoms: C_12  and  C_14
REMARK    8  A    between atoms: C_14  and  C_17
REMARK    9  A    between atoms: N_32  and  C_33
REMARK   10  A    between atoms: C_33  and  C_34
REMARK   11  A    between atoms: C_34  and  O_35
REMARK   12  A    between atoms: C_34  and  C_36
REMARK   13  A    between atoms: C_36  and  O_37
REMARK                            x       y       z     vdW  Elec       q    Type
REMARK                         _______ _______ _______ _____ _____    ______ ____
ROOT
ATOM      1  C   UNL     1      -5.644  -2.502 131.032  0.00  0.00    +0.000 A 
ATOM      2  C   UNL     1      -5.230  -1.405 131.785  0.00  0.00    +0.000 A 
ATOM      3  C   UNL     1      -6.314  -0.534 131.982  0.00  0.00    +0.000 A 
ATOM      4  C   UNL     1      -6.488   0.687 132.684  0.00  0.00    +0.000 A 
ATOM      5  C   UNL     1      -7.740   1.326 132.669  0.00  0.00    +0.000 A 
ATOM      6  C   UNL     1      -8.786   0.703 132.007  0.00  0.00    +0.000 A 
ATOM      7  F   UNL     1     -10.056   1.112 131.991  0.00  0.00    +0.000 F 
ATOM      8  C   UNL     1      -8.619  -0.479 131.351  0.00  0.00    +0.000 A 
ATOM      9  C   UNL     1      -7.388  -1.108 131.310  0.00  0.00    +0.000 A 
ATOM     10  N   UNL     1      -6.976  -2.279 130.699  0.00  0.00    +0.000 N 
ENDROOT
BRANCH   5  11
ATOM     11  N   UNL     1      -7.899   2.543 133.366  0.00  0.00    +0.000 N 
ATOM     12  C   UNL     1      -7.798   3.780 132.723  0.00  0.00    +0.000 C 
ATOM     13  O   UNL     1      -7.323   3.972 131.641  0.00  0.00    +0.000 OA
ATOM     14  H   UNL     1      -8.028   2.499 134.362  0.00  0.00    +0.000 HD
BRANCH  12  15
ATOM     15  C   UNL     1      -8.318   4.999 133.471  0.00  0.00    +0.000 C 
ATOM     16  C   UNL     1      -8.131   4.965 134.981  0.00  0.00    +0.000 C 
ATOM     17  C   UNL     1      -7.284   5.900 134.198  0.00  0.00    +0.000 C 
BRANCH  15  18
ATOM     18  C   UNL     1      -9.249   5.860 132.512  0.00  0.00    +0.000 A 
ATOM     19  C   UNL     1      -8.570   6.555 131.487  0.00  0.00    +0.000 A 
ATOM     20  C   UNL     1      -9.098   6.610 130.190  0.00  0.00    +0.000 A 
ATOM     21  C   UNL     1     -10.364   6.096 129.944  0.00  0.00    +0.000 A 
ATOM     22  O   UNL     1     -11.089   6.363 128.796  0.00  0.00    +0.000 OA
ATOM     23  C   UNL     1     -11.561   7.591 129.305  0.00  0.00    +0.000 C 
ATOM     24  F   UNL     1     -10.544   8.473 129.055  0.00  0.00    +0.000 F 
ATOM     25  F   UNL     1     -12.625   8.062 128.610  0.00  0.00    +0.000 F 
ATOM     26  O   UNL     1     -11.865   7.426 130.754  0.00  0.00    +0.000 OA
ATOM     27  C   UNL     1     -11.181   6.168 131.031  0.00  0.00    +0.000 A 
ATOM     28  C   UNL     1     -10.644   5.761 132.285  0.00  0.00    +0.000 A 
ENDBRANCH  15  18
ENDBRANCH  12  15
ENDBRANCH   5  11
BRANCH   1  30
ATOM     29  C   UNL     1      -5.696  -4.954 130.718  0.00  0.00    +0.000 C 
ATOM     30  C   UNL     1      -4.770  -3.717 130.714  0.00  0.00    +0.000 C 
ATOM     31  C   UNL     1      -3.718  -3.861 131.834  0.00  0.00    +0.000 C 
BRANCH  30  32
ATOM     32  C   UNL     1      -4.042  -3.681 129.355  0.00  0.00    +0.000 C 
BRANCH  32  33
ATOM     33  O   UNL     1      -2.625  -3.646 129.454  0.00  0.00    +0.000 OA
ATOM     34  H   UNL     1      -2.336  -2.754 129.206  0.00  0.00    +0.000 HD
ENDBRANCH  32  33
ENDBRANCH  30  32
ENDBRANCH   1  30
BRANCH  10  35
ATOM     35  C   UNL     1      -7.812  -3.131 129.851  0.00  0.00    +0.000 C 
BRANCH  35  36
ATOM     36  C   UNL     1      -8.083  -2.708 128.414  0.00  0.00    +0.000 C 
BRANCH  36  37
ATOM     37  O   UNL     1      -6.857  -2.472 127.712  0.00  0.00    +0.000 OA
ATOM     38  H   UNL     1      -6.878  -2.926 126.854  0.00  0.00    +0.000 HD
ENDBRANCH  36  37
BRANCH  36  39
ATOM     39  C   UNL     1      -8.860  -3.736 127.612  0.00  0.00    +0.000 C 
BRANCH  39  40
ATOM     40  O   UNL     1      -8.621  -3.543 126.218  0.00  0.00    +0.000 OA
ATOM     41  H   UNL     1      -8.794  -4.387 125.761  0.00  0.00    +0.000 HD
ENDBRANCH  39  40
ENDBRANCH  36  39
ENDBRANCH  35  36
ENDBRANCH  10  35
TORSDOF 11
ENDMDL
MODEL 9
REMARK VINA RESULT:      -7.6      5.774      9.529
REMARK  Name = Tezacaftor
REMARK  13 active torsions:
REMARK  status: ('A' for Active; 'I' for Inactive)
REMARK    1  A    between atoms: C_1  and  C_2
REMARK    2  A    between atoms: C_2  and  C_3
REMARK    3  A    between atoms: C_2  and  C_4
REMARK    4  A    between atoms: C_2  and  C_6
REMARK    5  A    between atoms: C_4  and  O_5
REMARK    6  A    between atoms: C_10  and  N_11
REMARK    7  A    between atoms: C_12  and  C_14
REMARK    8  A    between atoms: C_14  and  C_17
REMARK    9  A    between atoms: N_32  and  C_33
REMARK   10  A    between atoms: C_33  and  C_34
REMARK   11  A    between atoms: C_34  and  O_35
REMARK   12  A    between atoms: C_34  and  C_36
REMARK   13  A    between atoms: C_36  and  O_37
REMARK                            x       y       z     vdW  Elec       q    Type
REMARK                         _______ _______ _______ _____ _____    ______ ____
ROOT
ATOM      1  C   UNL     1      -2.981   4.617 131.901  0.00  0.00    +0.000 A 
ATOM      2  C   UNL     1      -3.478   3.437 132.450  0.00  0.00    +0.000 A 
ATOM      3  C   UNL     1      -3.885   2.575 131.418  0.00  0.00    +0.000 A 
ATOM      4  C   UNL     1      -4.418   1.260 131.380  0.00  0.00    +0.000 A 
ATOM      5  C   UNL     1      -4.737   0.674 130.142  0.00  0.00    +0.000 A 
ATOM      6  C   UNL     1      -4.464   1.392 128.988  0.00  0.00    +0.000 A 
ATOM      7  F   UNL     1      -4.599   0.943 127.738  0.00  0.00    +0.000 F 
ATOM      8  C   UNL     1      -3.935   2.646 129.029  0.00  0.00    +0.000 A 
ATOM      9  C   UNL     1      -3.652   3.265 130.233  0.00  0.00    +0.000 A 
ATOM     10  N   UNL     1      -3.143   4.519 130.523  0.00  0.00    +0.000 N 
ENDROOT
BRANCH   5  11
ATOM     11  N   UNL     1      -5.272  -0.631 130.117  0.00  0.00    +0.000 N 
ATOM     12  C   UNL     1      -6.618  -0.872 129.824  0.00  0.00    +0.000 C 
ATOM     13  O   UNL     1      -7.494  -0.056 129.832  0.00  0.00    +0.000 OA
ATOM     14  H   UNL     1      -4.667  -1.391 130.378  0.00  0.00    +0.000 HD
BRANCH  12  15
ATOM     15  C   UNL     1      -7.012  -2.302 129.486  0.00  0.00    +0.000 C 
ATOM     16  C   UNL     1      -6.339  -3.379 130.325  0.00  0.00    +0.000 C 
ATOM     17  C   UNL     1      -7.781  -3.116 130.562  0.00  0.00    +0.000 C 
BRANCH  15  18
ATOM     18  C   UNL     1      -7.779  -2.332 128.093  0.00  0.00    +0.000 A 
ATOM     19  C   UNL     1      -7.167  -1.589 127.060  0.00  0.00    +0.000 A 
ATOM     20  C   UNL     1      -7.102  -2.099 125.755  0.00  0.00    +0.000 A 
ATOM     21  C   UNL     1      -7.766  -3.279 125.448  0.00  0.00    +0.000 A 
ATOM     22  O   UNL     1      -8.015  -3.704 124.155  0.00  0.00    +0.000 OA
ATOM     23  C   UNL     1      -9.166  -2.895 124.046  0.00  0.00    +0.000 C 
ATOM     24  F   UNL     1      -8.678  -1.660 123.712  0.00  0.00    +0.000 F 
ATOM     25  F   UNL     1      -9.956  -3.262 123.007  0.00  0.00    +0.000 F 
ATOM     26  O   UNL     1      -9.895  -2.919 125.344  0.00  0.00    +0.000 OA
ATOM     27  C   UNL     1      -8.871  -3.478 126.219  0.00  0.00    +0.000 A 
ATOM     28  C   UNL     1      -8.746  -3.252 127.619  0.00  0.00    +0.000 A 
ENDBRANCH  15  18
ENDBRANCH  12  15
ENDBRANCH   5  11
BRANCH   1  30
ATOM     29  C   UNL     1      -2.699   5.505 134.191  0.00  0.00    +0.000 C 
ATOM     30  C   UNL     1      -2.339   5.747 132.708  0.00  0.00    +0.000 C 
ATOM     31  C   UNL     1      -2.955   7.084 132.243  0.00  0.00    +0.000 C 
BRANCH  30  32
ATOM     32  C   UNL     1      -0.803   5.851 132.610  0.00  0.00    +0.000 C 
BRANCH  32  33
ATOM     33  O   UNL     1      -0.343   6.736 131.598  0.00  0.00    +0.000 OA
ATOM     34  H   UNL     1       0.038   6.196 130.888  0.00  0.00    +0.000 HD
ENDBRANCH  32  33
ENDBRANCH  30  32
ENDBRANCH   1  30
BRANCH  10  35
ATOM     35  C   UNL     1      -2.831   5.554 129.536  0.00  0.00    +0.000 C 
BRANCH  35  36
ATOM     36  C   UNL     1      -3.968   6.351 128.913  0.00  0.00    +0.000 C 
BRANCH  36  37
ATOM     37  O   UNL     1      -5.176   6.189 129.665  0.00  0.00    +0.000 OA
ATOM     38  H   UNL     1      -4.963   6.042 130.600  0.00  0.00    +0.000 HD
ENDBRANCH  36  37
BRANCH  36  39
ATOM     39  C   UNL     1      -3.695   7.842 128.834  0.00  0.00    +0.000 C 
BRANCH  39  40
ATOM     40  O   UNL     1      -4.672   8.554 129.593  0.00  0.00    +0.000 OA
ATOM     41  H   UNL     1      -4.558   8.319 130.532  0.00  0.00    +0.000 HD
ENDBRANCH  39  40
ENDBRANCH  36  39
ENDBRANCH  35  36
ENDBRANCH  10  35
TORSDOF 11
ENDMDL
