MODEL 1
REMARK VINA RESULT:      -8.1      0.000      0.000
REMARK  Name = Thalidomide
REMARK  1 active torsions:
REMARK  status: ('A' for Active; 'I' for Inactive)
REMARK    1  A    between atoms: N_3  and  C_4
REMARK                            x       y       z     vdW  Elec       q    Type
REMARK                         _______ _______ _______ _____ _____    ______ ____
ROOT
ATOM      1  O   UNL     1      -6.549   1.085 124.408  0.00  0.00    +0.000 OA
ATOM      2  C   UNL     1      -7.531   0.583 123.891  0.00  0.00    +0.000 C 
ATOM      3  N   UNL     1      -8.635   1.157 123.326  0.00  0.00    +0.000 N 
ATOM      4  C   UNL     1      -9.561   0.204 122.987  0.00  0.00    +0.000 C 
ATOM      5  O   UNL     1     -10.649   0.346 122.469  0.00  0.00    +0.000 OA
ATOM      6  C   UNL     1      -8.974  -1.092 123.340  0.00  0.00    +0.000 A 
ATOM      7  C   UNL     1      -9.462  -2.376 123.242  0.00  0.00    +0.000 A 
ATOM      8  C   UNL     1      -8.632  -3.411 123.697  0.00  0.00    +0.000 A 
ATOM      9  C   UNL     1      -7.349  -3.149 124.220  0.00  0.00    +0.000 A 
ATOM     10  C   UNL     1      -6.872  -1.844 124.302  0.00  0.00    +0.000 A 
ATOM     11  C   UNL     1      -7.720  -0.848 123.861  0.00  0.00    +0.000 A 
ENDROOT
BRANCH   3  12
ATOM     12  C   UNL     1      -8.840   2.586 123.116  0.00  0.00    +0.000 C 
ATOM     13  C   UNL     1      -8.282   3.108 121.792  0.00  0.00    +0.000 C 
ATOM     14  C   UNL     1      -6.771   3.239 121.821  0.00  0.00    +0.000 C 
ATOM     15  C   UNL     1      -6.310   4.038 123.020  0.00  0.00    +0.000 C 
ATOM     16  O   UNL     1      -5.259   4.673 123.017  0.00  0.00    +0.000 OA
ATOM     17  N   UNL     1      -7.112   4.015 124.138  0.00  0.00    +0.000 N 
ATOM     18  C   UNL     1      -8.302   3.352 124.320  0.00  0.00    +0.000 C 
ATOM     19  O   UNL     1      -8.835   3.312 125.428  0.00  0.00    +0.000 OA
ATOM     20  H   UNL     1      -6.748   4.498 124.948  0.00  0.00    +0.000 HD
ENDBRANCH   3  12
TORSDOF 1
ENDMDL
MODEL 2
REMARK VINA RESULT:      -8.1      2.078      5.828
REMARK  Name = Thalidomide
REMARK  1 active torsions:
REMARK  status: ('A' for Active; 'I' for Inactive)
REMARK    1  A    between atoms: N_3  and  C_4
REMARK                            x       y       z     vdW  Elec       q    Type
REMARK                         _______ _______ _______ _____ _____    ______ ____
ROOT
ATOM      1  O   UNL     1      -8.939   2.870 121.906  0.00  0.00    +0.000 OA
ATOM      2  C   UNL     1      -7.796   3.287 121.905  0.00  0.00    +0.000 C 
ATOM      3  N   UNL     1      -6.860   3.334 122.900  0.00  0.00    +0.000 N 
ATOM      4  C   UNL     1      -5.743   4.014 122.489  0.00  0.00    +0.000 C 
ATOM      5  O   UNL     1      -4.722   4.248 123.102  0.00  0.00    +0.000 OA
ATOM      6  C   UNL     1      -5.982   4.404 121.096  0.00  0.00    +0.000 A 
ATOM      7  C   UNL     1      -5.216   5.117 120.200  0.00  0.00    +0.000 A 
ATOM      8  C   UNL     1      -5.761   5.335 118.926  0.00  0.00    +0.000 A 
ATOM      9  C   UNL     1      -7.031   4.833 118.574  0.00  0.00    +0.000 A 
ATOM     10  C   UNL     1      -7.783   4.107 119.492  0.00  0.00    +0.000 A 
ATOM     11  C   UNL     1      -7.226   3.926 120.741  0.00  0.00    +0.000 A 
ENDROOT
BRANCH   3  12
ATOM     12  C   UNL     1      -7.006   2.764 124.235  0.00  0.00    +0.000 C 
ATOM     13  C   UNL     1      -6.635   1.283 124.325  0.00  0.00    +0.000 C 
ATOM     14  C   UNL     1      -7.705   0.388 123.729  0.00  0.00    +0.000 C 
ATOM     15  C   UNL     1      -9.068   0.699 124.308  0.00  0.00    +0.000 C 
ATOM     16  O   UNL     1      -9.959  -0.144 124.370  0.00  0.00    +0.000 OA
ATOM     17  N   UNL     1      -9.285   1.982 124.755  0.00  0.00    +0.000 N 
ATOM     18  C   UNL     1      -8.414   3.045 124.748  0.00  0.00    +0.000 C 
ATOM     19  O   UNL     1      -8.799   4.174 125.052  0.00  0.00    +0.000 OA
ATOM     20  H   UNL     1     -10.224   2.183 125.071  0.00  0.00    +0.000 HD
ENDBRANCH   3  12
TORSDOF 1
ENDMDL
MODEL 3
REMARK VINA RESULT:      -7.7      0.107      2.006
REMARK  Name = Thalidomide
REMARK  1 active torsions:
REMARK  status: ('A' for Active; 'I' for Inactive)
REMARK    1  A    between atoms: N_3  and  C_4
REMARK                            x       y       z     vdW  Elec       q    Type
REMARK                         _______ _______ _______ _____ _____    ______ ____
ROOT
ATOM      1  O   UNL     1     -10.559   0.165 122.377  0.00  0.00    +0.000 OA
ATOM      2  C   UNL     1      -9.520   0.129 123.011  0.00  0.00    +0.000 C 
ATOM      3  N   UNL     1      -8.668   1.128 123.388  0.00  0.00    +0.000 N 
ATOM      4  C   UNL     1      -7.543   0.614 123.980  0.00  0.00    +0.000 C 
ATOM      5  O   UNL     1      -6.582   1.200 124.434  0.00  0.00    +0.000 OA
ATOM      6  C   UNL     1      -7.716  -0.842 124.009  0.00  0.00    +0.000 A 
ATOM      7  C   UNL     1      -6.900  -1.853 124.465  0.00  0.00    +0.000 A 
ATOM      8  C   UNL     1      -7.370  -3.167 124.323  0.00  0.00    +0.000 A 
ATOM      9  C   UNL     1      -8.630  -3.439 123.751  0.00  0.00    +0.000 A 
ATOM     10  C   UNL     1      -9.442  -2.401 123.305  0.00  0.00    +0.000 A 
ATOM     11  C   UNL     1      -8.943  -1.122 123.444  0.00  0.00    +0.000 A 
ENDROOT
BRANCH   3  12
ATOM     12  C   UNL     1      -8.885   2.557 123.186  0.00  0.00    +0.000 C 
ATOM     13  C   UNL     1      -8.355   3.086 121.853  0.00  0.00    +0.000 C 
ATOM     14  C   UNL     1      -6.845   3.225 121.853  0.00  0.00    +0.000 C 
ATOM     15  C   UNL     1      -6.365   4.023 123.046  0.00  0.00    +0.000 C 
ATOM     16  O   UNL     1      -5.319   4.665 123.024  0.00  0.00    +0.000 OA
ATOM     17  N   UNL     1      -7.145   3.993 124.178  0.00  0.00    +0.000 N 
ATOM     18  C   UNL     1      -8.328   3.322 124.381  0.00  0.00    +0.000 C 
ATOM     19  O   UNL     1      -8.839   3.276 125.499  0.00  0.00    +0.000 OA
ATOM     20  H   UNL     1      -6.769   4.475 124.983  0.00  0.00    +0.000 HD
ENDBRANCH   3  12
TORSDOF 1
ENDMDL
MODEL 4
REMARK VINA RESULT:      -7.3      7.592     10.238
REMARK  Name = Thalidomide
REMARK  1 active torsions:
REMARK  status: ('A' for Active; 'I' for Inactive)
REMARK    1  A    between atoms: N_3  and  C_4
REMARK                            x       y       z     vdW  Elec       q    Type
REMARK                         _______ _______ _______ _____ _____    ______ ____
ROOT
ATOM      1  O   UNL     1     -10.487   6.459 132.087  0.00  0.00    +0.000 OA
ATOM      2  C   UNL     1     -10.540   6.588 130.877  0.00  0.00    +0.000 C 
ATOM      3  N   UNL     1      -9.768   6.050 129.887  0.00  0.00    +0.000 N 
ATOM      4  C   UNL     1     -10.103   6.576 128.666  0.00  0.00    +0.000 C 
ATOM      5  O   UNL     1      -9.631   6.334 127.573  0.00  0.00    +0.000 OA
ATOM      6  C   UNL     1     -11.210   7.508 128.903  0.00  0.00    +0.000 A 
ATOM      7  C   UNL     1     -11.920   8.323 128.050  0.00  0.00    +0.000 A 
ATOM      8  C   UNL     1     -12.925   9.120 128.617  0.00  0.00    +0.000 A 
ATOM      9  C   UNL     1     -13.206   9.076 129.999  0.00  0.00    +0.000 A 
ATOM     10  C   UNL     1     -12.482   8.237 130.841  0.00  0.00    +0.000 A 
ATOM     11  C   UNL     1     -11.489   7.480 130.253  0.00  0.00    +0.000 A 
ENDROOT
BRANCH   3  12
ATOM     12  C   UNL     1      -8.710   5.063 130.071  0.00  0.00    +0.000 C 
ATOM     13  C   UNL     1      -9.178   3.614 129.938  0.00  0.00    +0.000 C 
ATOM     14  C   UNL     1      -9.949   3.147 131.157  0.00  0.00    +0.000 C 
ATOM     15  C   UNL     1      -9.176   3.409 132.431  0.00  0.00    +0.000 C 
ATOM     16  O   UNL     1      -9.332   2.729 133.441  0.00  0.00    +0.000 OA
ATOM     17  N   UNL     1      -8.290   4.462 132.425  0.00  0.00    +0.000 N 
ATOM     18  C   UNL     1      -8.003   5.328 131.397  0.00  0.00    +0.000 C 
ATOM     19  O   UNL     1      -7.289   6.312 131.586  0.00  0.00    +0.000 OA
ATOM     20  H   UNL     1      -7.839   4.661 133.307  0.00  0.00    +0.000 HD
ENDBRANCH   3  12
TORSDOF 1
ENDMDL
MODEL 5
REMARK VINA RESULT:      -7.2      8.386     10.053
REMARK  Name = Thalidomide
REMARK  1 active torsions:
REMARK  status: ('A' for Active; 'I' for Inactive)
REMARK    1  A    between atoms: N_3  and  C_4
REMARK                            x       y       z     vdW  Elec       q    Type
REMARK                         _______ _______ _______ _____ _____    ______ ____
ROOT
ATOM      1  O   UNL     1      -8.745   5.682 129.294  0.00  0.00    +0.000 OA
ATOM      2  C   UNL     1      -9.725   6.149 129.846  0.00  0.00    +0.000 C 
ATOM      3  N   UNL     1     -10.241   5.924 131.091  0.00  0.00    +0.000 N 
ATOM      4  C   UNL     1     -11.441   6.569 131.245  0.00  0.00    +0.000 C 
ATOM      5  O   UNL     1     -12.177   6.593 132.211  0.00  0.00    +0.000 OA
ATOM      6  C   UNL     1     -11.689   7.293 129.995  0.00  0.00    +0.000 A 
ATOM      7  C   UNL     1     -12.742   8.083 129.588  0.00  0.00    +0.000 A 
ATOM      8  C   UNL     1     -12.672   8.621 128.294  0.00  0.00    +0.000 A 
ATOM      9  C   UNL     1     -11.566   8.376 127.454  0.00  0.00    +0.000 A 
ATOM     10  C   UNL     1     -10.509   7.583 127.891  0.00  0.00    +0.000 A 
ATOM     11  C   UNL     1     -10.617   7.055 129.161  0.00  0.00    +0.000 A 
ENDROOT
BRANCH   3  12
ATOM     12  C   UNL     1      -9.633   5.100 132.130  0.00  0.00    +0.000 C 
ATOM     13  C   UNL     1      -8.621   5.843 133.003  0.00  0.00    +0.000 C 
ATOM     14  C   UNL     1      -7.304   6.068 132.285  0.00  0.00    +0.000 C 
ATOM     15  C   UNL     1      -6.762   4.777 131.710  0.00  0.00    +0.000 C 
ATOM     16  O   UNL     1      -5.561   4.595 131.531  0.00  0.00    +0.000 OA
ATOM     17  N   UNL     1      -7.676   3.805 131.376  0.00  0.00    +0.000 N 
ATOM     18  C   UNL     1      -9.045   3.845 131.494  0.00  0.00    +0.000 C 
ATOM     19  O   UNL     1      -9.743   2.950 131.019  0.00  0.00    +0.000 OA
ATOM     20  H   UNL     1      -7.297   2.982 130.929  0.00  0.00    +0.000 HD
ENDBRANCH   3  12
TORSDOF 1
ENDMDL
MODEL 6
REMARK VINA RESULT:      -7.0      2.766      3.308
REMARK  Name = Thalidomide
REMARK  1 active torsions:
REMARK  status: ('A' for Active; 'I' for Inactive)
REMARK    1  A    between atoms: N_3  and  C_4
REMARK                            x       y       z     vdW  Elec       q    Type
REMARK                         _______ _______ _______ _____ _____    ______ ____
ROOT
ATOM      1  O   UNL     1      -7.976   0.863 126.699  0.00  0.00    +0.000 OA
ATOM      2  C   UNL     1      -8.269  -0.247 126.291  0.00  0.00    +0.000 C 
ATOM      3  N   UNL     1      -8.723  -0.659 125.070  0.00  0.00    +0.000 N 
ATOM      4  C   UNL     1      -9.053  -1.989 125.095  0.00  0.00    +0.000 C 
ATOM      5  O   UNL     1      -9.486  -2.686 124.200  0.00  0.00    +0.000 OA
ATOM      6  C   UNL     1      -8.749  -2.468 126.446  0.00  0.00    +0.000 A 
ATOM      7  C   UNL     1      -8.900  -3.704 127.035  0.00  0.00    +0.000 A 
ATOM      8  C   UNL     1      -8.520  -3.821 128.380  0.00  0.00    +0.000 A 
ATOM      9  C   UNL     1      -7.992  -2.724 129.093  0.00  0.00    +0.000 A 
ATOM     10  C   UNL     1      -7.840  -1.487 128.475  0.00  0.00    +0.000 A 
ATOM     11  C   UNL     1      -8.239  -1.402 127.157  0.00  0.00    +0.000 A 
ENDROOT
BRANCH   3  12
ATOM     12  C   UNL     1      -8.867   0.182 123.885  0.00  0.00    +0.000 C 
ATOM     13  C   UNL     1      -7.540   0.662 123.296  0.00  0.00    +0.000 C 
ATOM     14  C   UNL     1      -6.918   1.773 124.119  0.00  0.00    +0.000 C 
ATOM     15  C   UNL     1      -7.903   2.895 124.363  0.00  0.00    +0.000 C 
ATOM     16  O   UNL     1      -7.540   4.053 124.554  0.00  0.00    +0.000 OA
ATOM     17  N   UNL     1      -9.239   2.568 124.380  0.00  0.00    +0.000 N 
ATOM     18  C   UNL     1      -9.816   1.333 124.200  0.00  0.00    +0.000 C 
ATOM     19  O   UNL     1     -11.022   1.171 124.385  0.00  0.00    +0.000 OA
ATOM     20  H   UNL     1      -9.872   3.320 124.615  0.00  0.00    +0.000 HD
ENDBRANCH   3  12
TORSDOF 1
ENDMDL
MODEL 7
REMARK VINA RESULT:      -6.8      7.838      9.875
REMARK  Name = Thalidomide
REMARK  1 active torsions:
REMARK  status: ('A' for Active; 'I' for Inactive)
REMARK    1  A    between atoms: N_3  and  C_4
REMARK                            x       y       z     vdW  Elec       q    Type
REMARK                         _______ _______ _______ _____ _____    ______ ____
ROOT
ATOM      1  O   UNL     1      -8.627   7.677 129.973  0.00  0.00    +0.000 OA
ATOM      2  C   UNL     1      -9.615   6.964 129.976  0.00  0.00    +0.000 C 
ATOM      3  N   UNL     1      -9.794   5.688 130.429  0.00  0.00    +0.000 N 
ATOM      4  C   UNL     1     -11.044   5.227 130.107  0.00  0.00    +0.000 C 
ATOM      5  O   UNL     1     -11.546   4.148 130.347  0.00  0.00    +0.000 OA
ATOM      6  C   UNL     1     -11.728   6.324 129.416  0.00  0.00    +0.000 A 
ATOM      7  C   UNL     1     -12.984   6.413 128.858  0.00  0.00    +0.000 A 
ATOM      8  C   UNL     1     -13.325   7.628 128.244  0.00  0.00    +0.000 A 
ATOM      9  C   UNL     1     -12.425   8.714 128.213  0.00  0.00    +0.000 A 
ATOM     10  C   UNL     1     -11.165   8.604 128.792  0.00  0.00    +0.000 A 
ATOM     11  C   UNL     1     -10.856   7.391 129.372  0.00  0.00    +0.000 A 
ENDROOT
BRANCH   3  12
ATOM     12  C   UNL     1      -8.804   4.890 131.145  0.00  0.00    +0.000 C 
ATOM     13  C   UNL     1      -8.247   3.716 130.337  0.00  0.00    +0.000 C 
ATOM     14  C   UNL     1      -9.235   2.569 130.241  0.00  0.00    +0.000 C 
ATOM     15  C   UNL     1      -9.745   2.165 131.607  0.00  0.00    +0.000 C 
ATOM     16  O   UNL     1     -10.136   1.027 131.847  0.00  0.00    +0.000 OA
ATOM     17  N   UNL     1      -9.770   3.136 132.582  0.00  0.00    +0.000 N 
ATOM     18  C   UNL     1      -9.387   4.452 132.484  0.00  0.00    +0.000 C 
ATOM     19  O   UNL     1      -9.602   5.238 133.406  0.00  0.00    +0.000 OA
ATOM     20  H   UNL     1     -10.181   2.861 133.464  0.00  0.00    +0.000 HD
ENDBRANCH   3  12
TORSDOF 1
ENDMDL
MODEL 8
REMARK VINA RESULT:      -6.8      2.225      2.863
REMARK  Name = Thalidomide
REMARK  1 active torsions:
REMARK  status: ('A' for Active; 'I' for Inactive)
REMARK    1  A    between atoms: N_3  and  C_4
REMARK                            x       y       z     vdW  Elec       q    Type
REMARK                         _______ _______ _______ _____ _____    ______ ____
ROOT
ATOM      1  O   UNL     1      -6.403   0.616 125.161  0.00  0.00    +0.000 OA
ATOM      2  C   UNL     1      -7.113  -0.369 125.071  0.00  0.00    +0.000 C 
ATOM      3  N   UNL     1      -8.434  -0.548 125.371  0.00  0.00    +0.000 N 
ATOM      4  C   UNL     1      -8.790  -1.865 125.240  0.00  0.00    +0.000 C 
ATOM      5  O   UNL     1      -9.872  -2.386 125.423  0.00  0.00    +0.000 OA
ATOM      6  C   UNL     1      -7.593  -2.577 124.785  0.00  0.00    +0.000 A 
ATOM      7  C   UNL     1      -7.367  -3.908 124.512  0.00  0.00    +0.000 A 
ATOM      8  C   UNL     1      -6.073  -4.266 124.105  0.00  0.00    +0.000 A 
ATOM      9  C   UNL     1      -5.053  -3.302 123.967  0.00  0.00    +0.000 A 
ATOM     10  C   UNL     1      -5.306  -1.961 124.239  0.00  0.00    +0.000 A 
ATOM     11  C   UNL     1      -6.584  -1.646 124.653  0.00  0.00    +0.000 A 
ENDROOT
BRANCH   3  12
ATOM     12  C   UNL     1      -9.362   0.496 125.794  0.00  0.00    +0.000 C 
ATOM     13  C   UNL     1     -10.035   1.238 124.639  0.00  0.00    +0.000 C 
ATOM     14  C   UNL     1      -9.096   2.221 123.966  0.00  0.00    +0.000 C 
ATOM     15  C   UNL     1      -8.452   3.146 124.975  0.00  0.00    +0.000 C 
ATOM     16  O   UNL     1      -8.068   4.273 124.676  0.00  0.00    +0.000 OA
ATOM     17  N   UNL     1      -8.294   2.669 126.256  0.00  0.00    +0.000 N 
ATOM     18  C   UNL     1      -8.649   1.439 126.757  0.00  0.00    +0.000 C 
ATOM     19  O   UNL     1      -8.313   1.104 127.892  0.00  0.00    +0.000 OA
ATOM     20  H   UNL     1      -7.797   3.277 126.893  0.00  0.00    +0.000 HD
ENDBRANCH   3  12
TORSDOF 1
ENDMDL
MODEL 9
REMARK VINA RESULT:      -6.8      7.119      8.725
REMARK  Name = Thalidomide
REMARK  1 active torsions:
REMARK  status: ('A' for Active; 'I' for Inactive)
REMARK    1  A    between atoms: N_3  and  C_4
REMARK                            x       y       z     vdW  Elec       q    Type
REMARK                         _______ _______ _______ _____ _____    ______ ____
ROOT
ATOM      1  O   UNL     1      -9.188   4.708 129.074  0.00  0.00    +0.000 OA
ATOM      2  C   UNL     1      -9.220   4.237 130.197  0.00  0.00    +0.000 C 
ATOM      3  N   UNL     1      -9.458   4.826 131.406  0.00  0.00    +0.000 N 
ATOM      4  C   UNL     1      -9.261   3.936 132.430  0.00  0.00    +0.000 C 
ATOM      5  O   UNL     1      -9.379   4.108 133.626  0.00  0.00    +0.000 OA
ATOM      6  C   UNL     1      -8.896   2.659 131.808  0.00  0.00    +0.000 A 
ATOM      7  C   UNL     1      -8.569   1.436 132.351  0.00  0.00    +0.000 A 
ATOM      8  C   UNL     1      -8.246   0.407 131.455  0.00  0.00    +0.000 A 
ATOM      9  C   UNL     1      -8.269   0.611 130.060  0.00  0.00    +0.000 A 
ATOM     10  C   UNL     1      -8.611   1.853 129.534  0.00  0.00    +0.000 A 
ATOM     11  C   UNL     1      -8.907   2.849 130.442  0.00  0.00    +0.000 A 
ENDROOT
BRANCH   3  12
ATOM     12  C   UNL     1      -9.852   6.215 131.616  0.00  0.00    +0.000 C 
ATOM     13  C   UNL     1     -11.365   6.437 131.646  0.00  0.00    +0.000 C 
ATOM     14  C   UNL     1     -11.979   6.378 130.260  0.00  0.00    +0.000 C 
ATOM     15  C   UNL     1     -11.259   7.299 129.299  0.00  0.00    +0.000 C 
ATOM     16  O   UNL     1     -11.817   7.788 128.321  0.00  0.00    +0.000 OA
ATOM     17  N   UNL     1      -9.933   7.563 129.554  0.00  0.00    +0.000 N 
ATOM     18  C   UNL     1      -9.153   7.095 130.585  0.00  0.00    +0.000 C 
ATOM     19  O   UNL     1      -7.941   7.306 130.601  0.00  0.00    +0.000 OA
ATOM     20  H   UNL     1      -9.456   8.123 128.860  0.00  0.00    +0.000 HD
ENDBRANCH   3  12
TORSDOF 1
ENDMDL
