MODEL 1
REMARK VINA RESULT:      -5.5      0.000      0.000
REMARK  Name = Thenyldiamine
REMARK  8 active torsions:
REMARK  status: ('A' for Active; 'I' for Inactive)
REMARK    1  A    between atoms: C_1  and  N_2
REMARK    2  A    between atoms: N_2  and  C_3
REMARK    3  A    between atoms: N_2  and  C_4
REMARK    4  A    between atoms: C_4  and  C_5
REMARK    5  A    between atoms: C_5  and  N_6
REMARK    6  A    between atoms: N_6  and  C_7
REMARK    7  A    between atoms: N_6  and  C_13
REMARK    8  A    between atoms: C_7  and  C_8
REMARK                            x       y       z     vdW  Elec       q    Type
REMARK                         _______ _______ _______ _____ _____    ______ ____
ROOT
ATOM      1  N   UNL     1     -11.145   5.386 130.942  0.00  0.00    +0.000 N 
ENDROOT
BRANCH   1   2
ATOM      2  C   UNL     1     -11.800   6.301 130.103  0.00  0.00    +0.000 A 
ATOM      3  C   UNL     1     -11.963   7.630 130.526  0.00  0.00    +0.000 A 
ATOM      4  C   UNL     1     -12.665   8.558 129.772  0.00  0.00    +0.000 A 
ATOM      5  C   UNL     1     -13.229   8.152 128.569  0.00  0.00    +0.000 A 
ATOM      6  C   UNL     1     -13.021   6.832 128.194  0.00  0.00    +0.000 A 
ATOM      7  N   UNL     1     -12.313   5.917 128.906  0.00  0.00    +0.000 NA
ENDBRANCH   1   2
BRANCH   1   8
ATOM      8  C   UNL     1     -11.120   4.006 130.392  0.00  0.00    +0.000 C 
BRANCH   8   9
ATOM      9  C   UNL     1      -9.715   3.474 130.124  0.00  0.00    +0.000 C 
BRANCH   9  11
ATOM     10  C   UNL     1      -9.807   2.078 132.094  0.00  0.00    +0.000 C 
ATOM     11  N   UNL     1      -8.914   2.677 131.072  0.00  0.00    +0.000 NA
ATOM     12  C   UNL     1      -8.310   1.543 130.351  0.00  0.00    +0.000 C 
ENDBRANCH   9  11
ENDBRANCH   8   9
ENDBRANCH   1   8
BRANCH   1  13
ATOM     13  C   UNL     1     -10.398   5.930 132.114  0.00  0.00    +0.000 C 
BRANCH  13  14
ATOM     14  C   UNL     1      -8.856   6.179 132.139  0.00  0.00    +0.000 A 
ATOM     15  C   UNL     1      -8.161   6.816 131.121  0.00  0.00    +0.000 A 
ATOM     16  S   UNL     1      -6.468   6.551 131.175  0.00  0.00    +0.000 S 
ATOM     17  C   UNL     1      -6.592   5.784 132.687  0.00  0.00    +0.000 A 
ATOM     18  C   UNL     1      -7.890   5.812 133.170  0.00  0.00    +0.000 A 
ENDBRANCH  13  14
ENDBRANCH   1  13
TORSDOF 6
ENDMDL
MODEL 2
REMARK VINA RESULT:      -5.5      7.524      8.662
REMARK  Name = Thenyldiamine
REMARK  8 active torsions:
REMARK  status: ('A' for Active; 'I' for Inactive)
REMARK    1  A    between atoms: C_1  and  N_2
REMARK    2  A    between atoms: N_2  and  C_3
REMARK    3  A    between atoms: N_2  and  C_4
REMARK    4  A    between atoms: C_4  and  C_5
REMARK    5  A    between atoms: C_5  and  N_6
REMARK    6  A    between atoms: N_6  and  C_7
REMARK    7  A    between atoms: N_6  and  C_13
REMARK    8  A    between atoms: C_7  and  C_8
REMARK                            x       y       z     vdW  Elec       q    Type
REMARK                         _______ _______ _______ _____ _____    ______ ____
ROOT
ATOM      1  N   UNL     1      -7.708   2.597 123.661  0.00  0.00    +0.000 N 
ENDROOT
BRANCH   1   2
ATOM      2  C   UNL     1      -7.632   3.076 122.344  0.00  0.00    +0.000 A 
ATOM      3  C   UNL     1      -6.374   3.289 121.759  0.00  0.00    +0.000 A 
ATOM      4  C   UNL     1      -6.237   3.830 120.490  0.00  0.00    +0.000 A 
ATOM      5  C   UNL     1      -7.383   4.179 119.786  0.00  0.00    +0.000 A 
ATOM      6  C   UNL     1      -8.599   3.931 120.407  0.00  0.00    +0.000 A 
ATOM      7  N   UNL     1      -8.752   3.376 121.638  0.00  0.00    +0.000 NA
ENDBRANCH   1   2
BRANCH   1   8
ATOM      8  C   UNL     1      -9.103   2.480 124.159  0.00  0.00    +0.000 C 
BRANCH   8   9
ATOM      9  C   UNL     1      -9.448   1.101 124.712  0.00  0.00    +0.000 C 
BRANCH   9  11
ATOM     10  C   UNL     1     -10.270   0.388 122.554  0.00  0.00    +0.000 C 
ATOM     11  N   UNL     1      -9.838  -0.067 123.898  0.00  0.00    +0.000 NA
ATOM     12  C   UNL     1      -8.651  -0.912 123.675  0.00  0.00    +0.000 C 
ENDBRANCH   9  11
ENDBRANCH   8   9
ENDBRANCH   1   8
BRANCH   1  13
ATOM     13  C   UNL     1      -6.456   2.077 124.284  0.00  0.00    +0.000 C 
BRANCH  13  14
ATOM     14  C   UNL     1      -5.696   2.778 125.456  0.00  0.00    +0.000 A 
ATOM     15  C   UNL     1      -5.971   4.066 125.892  0.00  0.00    +0.000 A 
ATOM     16  S   UNL     1      -4.721   4.751 126.845  0.00  0.00    +0.000 S 
ATOM     17  C   UNL     1      -3.892   3.267 126.900  0.00  0.00    +0.000 A 
ATOM     18  C   UNL     1      -4.605   2.258 126.274  0.00  0.00    +0.000 A 
ENDBRANCH  13  14
ENDBRANCH   1  13
TORSDOF 6
ENDMDL
MODEL 3
REMARK VINA RESULT:      -5.4      1.819      3.393
REMARK  Name = Thenyldiamine
REMARK  8 active torsions:
REMARK  status: ('A' for Active; 'I' for Inactive)
REMARK    1  A    between atoms: C_1  and  N_2
REMARK    2  A    between atoms: N_2  and  C_3
REMARK    3  A    between atoms: N_2  and  C_4
REMARK    4  A    between atoms: C_4  and  C_5
REMARK    5  A    between atoms: C_5  and  N_6
REMARK    6  A    between atoms: N_6  and  C_7
REMARK    7  A    between atoms: N_6  and  C_13
REMARK    8  A    between atoms: C_7  and  C_8
REMARK                            x       y       z     vdW  Elec       q    Type
REMARK                         _______ _______ _______ _____ _____    ______ ____
ROOT
ATOM      1  N   UNL     1     -10.847   5.657 130.501  0.00  0.00    +0.000 N 
ENDROOT
BRANCH   1   2
ATOM      2  C   UNL     1     -11.641   6.524 129.735  0.00  0.00    +0.000 A 
ATOM      3  C   UNL     1     -11.893   7.824 130.203  0.00  0.00    +0.000 A 
ATOM      4  C   UNL     1     -12.730   8.698 129.525  0.00  0.00    +0.000 A 
ATOM      5  C   UNL     1     -13.341   8.265 128.355  0.00  0.00    +0.000 A 
ATOM      6  C   UNL     1     -13.042   6.978 127.932  0.00  0.00    +0.000 A 
ATOM      7  N   UNL     1     -12.203   6.118 128.568  0.00  0.00    +0.000 NA
ENDBRANCH   1   2
BRANCH   1   8
ATOM      8  C   UNL     1     -10.005   6.366 131.499  0.00  0.00    +0.000 C 
BRANCH   8   9
ATOM      9  C   UNL     1      -8.575   6.618 131.032  0.00  0.00    +0.000 C 
BRANCH   9  11
ATOM     10  C   UNL     1      -7.161   4.992 132.124  0.00  0.00    +0.000 C 
ATOM     11  N   UNL     1      -7.367   6.437 131.859  0.00  0.00    +0.000 NA
ATOM     12  C   UNL     1      -6.190   6.877 131.090  0.00  0.00    +0.000 C 
ENDBRANCH   9  11
ENDBRANCH   8   9
ENDBRANCH   1   8
BRANCH   1  13
ATOM     13  C   UNL     1     -11.103   4.192 130.379  0.00  0.00    +0.000 C 
BRANCH  13  14
ATOM     14  C   UNL     1     -10.053   3.082 130.708  0.00  0.00    +0.000 A 
ATOM     15  C   UNL     1      -9.009   2.734 129.863  0.00  0.00    +0.000 A 
ATOM     16  S   UNL     1      -8.305   1.215 130.231  0.00  0.00    +0.000 S 
ATOM     17  C   UNL     1      -9.210   1.094 131.666  0.00  0.00    +0.000 A 
ATOM     18  C   UNL     1      -9.965   2.233 131.892  0.00  0.00    +0.000 A 
ENDBRANCH  13  14
ENDBRANCH   1  13
TORSDOF 6
ENDMDL
MODEL 4
REMARK VINA RESULT:      -5.4      8.124      9.800
REMARK  Name = Thenyldiamine
REMARK  8 active torsions:
REMARK  status: ('A' for Active; 'I' for Inactive)
REMARK    1  A    between atoms: C_1  and  N_2
REMARK    2  A    between atoms: N_2  and  C_3
REMARK    3  A    between atoms: N_2  and  C_4
REMARK    4  A    between atoms: C_4  and  C_5
REMARK    5  A    between atoms: C_5  and  N_6
REMARK    6  A    between atoms: N_6  and  C_7
REMARK    7  A    between atoms: N_6  and  C_13
REMARK    8  A    between atoms: C_7  and  C_8
REMARK                            x       y       z     vdW  Elec       q    Type
REMARK                         _______ _______ _______ _____ _____    ______ ____
ROOT
ATOM      1  N   UNL     1      -8.243   2.662 123.365  0.00  0.00    +0.000 N 
ENDROOT
BRANCH   1   2
ATOM      2  C   UNL     1      -7.882   3.159 122.103  0.00  0.00    +0.000 A 
ATOM      3  C   UNL     1      -6.525   3.356 121.801  0.00  0.00    +0.000 A 
ATOM      4  C   UNL     1      -6.114   3.913 120.600  0.00  0.00    +0.000 A 
ATOM      5  C   UNL     1      -7.079   4.294 119.676  0.00  0.00    +0.000 A 
ATOM      6  C   UNL     1      -8.403   4.061 120.021  0.00  0.00    +0.000 A 
ATOM      7  N   UNL     1      -8.822   3.491 121.182  0.00  0.00    +0.000 NA
ENDBRANCH   1   2
BRANCH   1   8
ATOM      8  C   UNL     1      -7.944   3.607 124.471  0.00  0.00    +0.000 C 
BRANCH   8   9
ATOM      9  C   UNL     1      -7.016   3.036 125.538  0.00  0.00    +0.000 C 
BRANCH   9  11
ATOM     10  C   UNL     1      -4.973   4.263 125.934  0.00  0.00    +0.000 C 
ATOM     11  N   UNL     1      -5.545   2.984 125.445  0.00  0.00    +0.000 NA
ATOM     12  C   UNL     1      -5.044   1.943 126.360  0.00  0.00    +0.000 C 
ENDBRANCH   9  11
ENDBRANCH   8   9
ENDBRANCH   1   8
BRANCH   1  13
ATOM     13  C   UNL     1      -9.047   1.406 123.412  0.00  0.00    +0.000 C 
BRANCH  13  14
ATOM     14  C   UNL     1      -8.439  -0.033 123.382  0.00  0.00    +0.000 A 
ATOM     15  C   UNL     1      -7.085  -0.301 123.522  0.00  0.00    +0.000 A 
ATOM     16  S   UNL     1      -6.638  -1.871 122.997  0.00  0.00    +0.000 S 
ATOM     17  C   UNL     1      -8.267  -2.315 122.796  0.00  0.00    +0.000 A 
ATOM     18  C   UNL     1      -9.126  -1.309 123.206  0.00  0.00    +0.000 A 
ENDBRANCH  13  14
ENDBRANCH   1  13
TORSDOF 6
ENDMDL
MODEL 5
REMARK VINA RESULT:      -5.3      1.451      1.798
REMARK  Name = Thenyldiamine
REMARK  8 active torsions:
REMARK  status: ('A' for Active; 'I' for Inactive)
REMARK    1  A    between atoms: C_1  and  N_2
REMARK    2  A    between atoms: N_2  and  C_3
REMARK    3  A    between atoms: N_2  and  C_4
REMARK    4  A    between atoms: C_4  and  C_5
REMARK    5  A    between atoms: C_5  and  N_6
REMARK    6  A    between atoms: N_6  and  C_7
REMARK    7  A    between atoms: N_6  and  C_13
REMARK    8  A    between atoms: C_7  and  C_8
REMARK                            x       y       z     vdW  Elec       q    Type
REMARK                         _______ _______ _______ _____ _____    ______ ____
ROOT
ATOM      1  N   UNL     1     -10.210   5.876 130.324  0.00  0.00    +0.000 N 
ENDROOT
BRANCH   1   2
ATOM      2  C   UNL     1     -11.170   6.572 129.573  0.00  0.00    +0.000 A 
ATOM      3  C   UNL     1     -10.943   7.917 129.238  0.00  0.00    +0.000 A 
ATOM      4  C   UNL     1     -11.888   8.674 128.563  0.00  0.00    +0.000 A 
ATOM      5  C   UNL     1     -13.097   8.081 128.219  0.00  0.00    +0.000 A 
ATOM      6  C   UNL     1     -13.259   6.746 128.560  0.00  0.00    +0.000 A 
ATOM      7  N   UNL     1     -12.333   5.981 129.197  0.00  0.00    +0.000 NA
ENDBRANCH   1   2
BRANCH   1   8
ATOM      8  C   UNL     1     -10.498   4.423 130.436  0.00  0.00    +0.000 C 
BRANCH   8   9
ATOM      9  C   UNL     1      -9.333   3.530 130.021  0.00  0.00    +0.000 C 
BRANCH   9  11
ATOM     10  C   UNL     1      -7.632   4.067 128.392  0.00  0.00    +0.000 C 
ATOM     11  N   UNL     1      -8.884   3.309 128.633  0.00  0.00    +0.000 NA
ATOM     12  C   UNL     1      -8.534   1.888 128.463  0.00  0.00    +0.000 C 
ENDBRANCH   9  11
ENDBRANCH   8   9
ENDBRANCH   1   8
BRANCH   1  13
ATOM     13  C   UNL     1      -8.965   6.606 130.705  0.00  0.00    +0.000 C 
BRANCH  13  14
ATOM     14  C   UNL     1      -8.090   6.267 131.955  0.00  0.00    +0.000 A 
ATOM     15  C   UNL     1      -6.703   6.274 131.950  0.00  0.00    +0.000 A 
ATOM     16  S   UNL     1      -6.007   5.434 133.272  0.00  0.00    +0.000 S 
ATOM     17  C   UNL     1      -7.528   5.246 134.010  0.00  0.00    +0.000 A 
ATOM     18  C   UNL     1      -8.526   5.889 133.296  0.00  0.00    +0.000 A 
ENDBRANCH  13  14
ENDBRANCH   1  13
TORSDOF 6
ENDMDL
MODEL 6
REMARK VINA RESULT:      -5.3      7.441      8.456
REMARK  Name = Thenyldiamine
REMARK  8 active torsions:
REMARK  status: ('A' for Active; 'I' for Inactive)
REMARK    1  A    between atoms: C_1  and  N_2
REMARK    2  A    between atoms: N_2  and  C_3
REMARK    3  A    between atoms: N_2  and  C_4
REMARK    4  A    between atoms: C_4  and  C_5
REMARK    5  A    between atoms: C_5  and  N_6
REMARK    6  A    between atoms: N_6  and  C_7
REMARK    7  A    between atoms: N_6  and  C_13
REMARK    8  A    between atoms: C_7  and  C_8
REMARK                            x       y       z     vdW  Elec       q    Type
REMARK                         _______ _______ _______ _____ _____    ______ ____
ROOT
ATOM      1  N   UNL     1      -6.200   3.574 124.243  0.00  0.00    +0.000 N 
ENDROOT
BRANCH   1   2
ATOM      2  C   UNL     1      -6.007   3.841 122.878  0.00  0.00    +0.000 A 
ATOM      3  C   UNL     1      -4.872   4.559 122.468  0.00  0.00    +0.000 A 
ATOM      4  C   UNL     1      -4.668   4.915 121.144  0.00  0.00    +0.000 A 
ATOM      5  C   UNL     1      -5.623   4.557 120.201  0.00  0.00    +0.000 A 
ATOM      6  C   UNL     1      -6.716   3.835 120.661  0.00  0.00    +0.000 A 
ATOM      7  N   UNL     1      -6.918   3.453 121.949  0.00  0.00    +0.000 NA
ENDBRANCH   1   2
BRANCH   1   8
ATOM      8  C   UNL     1      -6.800   2.239 124.496  0.00  0.00    +0.000 C 
BRANCH   8   9
ATOM      9  C   UNL     1      -7.908   2.250 125.544  0.00  0.00    +0.000 C 
BRANCH   9  11
ATOM     10  C   UNL     1      -9.571   1.878 123.831  0.00  0.00    +0.000 C 
ATOM     11  N   UNL     1      -9.318   1.894 125.293  0.00  0.00    +0.000 NA
ATOM     12  C   UNL     1      -9.554   0.516 125.758  0.00  0.00    +0.000 C 
ENDBRANCH   9  11
ENDBRANCH   8   9
ENDBRANCH   1   8
BRANCH   1  13
ATOM     13  C   UNL     1      -5.599   4.522 125.226  0.00  0.00    +0.000 C 
BRANCH  13  14
ATOM     14  C   UNL     1      -4.555   4.119 126.317  0.00  0.00    +0.000 A 
ATOM     15  C   UNL     1      -4.800   4.184 127.681  0.00  0.00    +0.000 A 
ATOM     16  S   UNL     1      -3.378   4.138 128.637  0.00  0.00    +0.000 S 
ATOM     17  C   UNL     1      -2.421   3.790 127.275  0.00  0.00    +0.000 A 
ATOM     18  C   UNL     1      -3.192   3.630 126.135  0.00  0.00    +0.000 A 
ENDBRANCH  13  14
ENDBRANCH   1  13
TORSDOF 6
ENDMDL
MODEL 7
REMARK VINA RESULT:      -5.3      8.224     10.191
REMARK  Name = Thenyldiamine
REMARK  8 active torsions:
REMARK  status: ('A' for Active; 'I' for Inactive)
REMARK    1  A    between atoms: C_1  and  N_2
REMARK    2  A    between atoms: N_2  and  C_3
REMARK    3  A    between atoms: N_2  and  C_4
REMARK    4  A    between atoms: C_4  and  C_5
REMARK    5  A    between atoms: C_5  and  N_6
REMARK    6  A    between atoms: N_6  and  C_7
REMARK    7  A    between atoms: N_6  and  C_13
REMARK    8  A    between atoms: C_7  and  C_8
REMARK                            x       y       z     vdW  Elec       q    Type
REMARK                         _______ _______ _______ _____ _____    ______ ____
ROOT
ATOM      1  N   UNL     1      -8.902  -1.563 125.354  0.00  0.00    +0.000 N 
ENDROOT
BRANCH   1   2
ATOM      2  C   UNL     1      -8.588  -2.146 126.591  0.00  0.00    +0.000 A 
ATOM      3  C   UNL     1      -9.090  -3.420 126.900  0.00  0.00    +0.000 A 
ATOM      4  C   UNL     1      -8.875  -4.014 128.135  0.00  0.00    +0.000 A 
ATOM      5  C   UNL     1      -8.148  -3.318 129.093  0.00  0.00    +0.000 A 
ATOM      6  C   UNL     1      -7.663  -2.071 128.726  0.00  0.00    +0.000 A 
ATOM      7  N   UNL     1      -7.841  -1.486 127.512  0.00  0.00    +0.000 NA
ENDBRANCH   1   2
BRANCH   1   8
ATOM      8  C   UNL     1      -9.159  -2.563 124.286  0.00  0.00    +0.000 C 
BRANCH   8   9
ATOM      9  C   UNL     1      -7.920  -2.940 123.481  0.00  0.00    +0.000 C 
BRANCH   9  11
ATOM     10  C   UNL     1      -5.643  -3.393 124.151  0.00  0.00    +0.000 C 
ATOM     11  N   UNL     1      -6.579  -2.351 123.661  0.00  0.00    +0.000 NA
ATOM     12  C   UNL     1      -6.061  -1.930 122.348  0.00  0.00    +0.000 C 
ENDBRANCH   9  11
ENDBRANCH   8   9
ENDBRANCH   1   8
BRANCH   1  13
ATOM     13  C   UNL     1      -9.146  -0.091 125.323  0.00  0.00    +0.000 C 
BRANCH  13  14
ATOM     14  C   UNL     1      -8.670   0.859 124.177  0.00  0.00    +0.000 A 
ATOM     15  C   UNL     1      -7.339   1.172 123.938  0.00  0.00    +0.000 A 
ATOM     16  S   UNL     1      -7.126   2.560 122.955  0.00  0.00    +0.000 S 
ATOM     17  C   UNL     1      -8.793   2.639 122.628  0.00  0.00    +0.000 A 
ATOM     18  C   UNL     1      -9.475   1.573 123.191  0.00  0.00    +0.000 A 
ENDBRANCH  13  14
ENDBRANCH   1  13
TORSDOF 6
ENDMDL
MODEL 8
REMARK VINA RESULT:      -5.2      1.341      1.795
REMARK  Name = Thenyldiamine
REMARK  8 active torsions:
REMARK  status: ('A' for Active; 'I' for Inactive)
REMARK    1  A    between atoms: C_1  and  N_2
REMARK    2  A    between atoms: N_2  and  C_3
REMARK    3  A    between atoms: N_2  and  C_4
REMARK    4  A    between atoms: C_4  and  C_5
REMARK    5  A    between atoms: C_5  and  N_6
REMARK    6  A    between atoms: N_6  and  C_7
REMARK    7  A    between atoms: N_6  and  C_13
REMARK    8  A    between atoms: C_7  and  C_8
REMARK                            x       y       z     vdW  Elec       q    Type
REMARK                         _______ _______ _______ _____ _____    ______ ____
ROOT
ATOM      1  N   UNL     1      -9.816   5.899 130.213  0.00  0.00    +0.000 N 
ENDROOT
BRANCH   1   2
ATOM      2  C   UNL     1     -10.788   6.548 129.435  0.00  0.00    +0.000 A 
ATOM      3  C   UNL     1     -10.518   7.827 128.922  0.00  0.00    +0.000 A 
ATOM      4  C   UNL     1     -11.467   8.546 128.210  0.00  0.00    +0.000 A 
ATOM      5  C   UNL     1     -12.721   7.983 128.012  0.00  0.00    +0.000 A 
ATOM      6  C   UNL     1     -12.925   6.711 128.528  0.00  0.00    +0.000 A 
ATOM      7  N   UNL     1     -11.999   5.981 129.203  0.00  0.00    +0.000 NA
ENDBRANCH   1   2
BRANCH   1   8
ATOM      8  C   UNL     1      -9.606   4.482 129.819  0.00  0.00    +0.000 C 
BRANCH   8   9
ATOM      9  C   UNL     1     -10.056   3.475 130.873  0.00  0.00    +0.000 C 
BRANCH   9  11
ATOM     10  C   UNL     1      -7.816   2.577 130.992  0.00  0.00    +0.000 C 
ATOM     11  N   UNL     1      -9.225   2.382 131.413  0.00  0.00    +0.000 NA
ATOM     12  C   UNL     1      -9.221   2.466 132.884  0.00  0.00    +0.000 C 
ENDBRANCH   9  11
ENDBRANCH   8   9
ENDBRANCH   1   8
BRANCH   1  13
ATOM     13  C   UNL     1      -8.998   6.733 131.140  0.00  0.00    +0.000 C 
BRANCH  13  14
ATOM     14  C   UNL     1      -7.583   6.333 131.672  0.00  0.00    +0.000 A 
ATOM     15  C   UNL     1      -7.369   5.687 132.881  0.00  0.00    +0.000 A 
ATOM     16  S   UNL     1      -5.748   5.783 133.432  0.00  0.00    +0.000 S 
ATOM     17  C   UNL     1      -5.243   6.478 131.964  0.00  0.00    +0.000 A 
ATOM     18  C   UNL     1      -6.281   6.551 131.050  0.00  0.00    +0.000 A 
ENDBRANCH  13  14
ENDBRANCH   1  13
TORSDOF 6
ENDMDL
MODEL 9
REMARK VINA RESULT:      -5.1      8.205     10.717
REMARK  Name = Thenyldiamine
REMARK  8 active torsions:
REMARK  status: ('A' for Active; 'I' for Inactive)
REMARK    1  A    between atoms: C_1  and  N_2
REMARK    2  A    between atoms: N_2  and  C_3
REMARK    3  A    between atoms: N_2  and  C_4
REMARK    4  A    between atoms: C_4  and  C_5
REMARK    5  A    between atoms: C_5  and  N_6
REMARK    6  A    between atoms: N_6  and  C_7
REMARK    7  A    between atoms: N_6  and  C_13
REMARK    8  A    between atoms: C_7  and  C_8
REMARK                            x       y       z     vdW  Elec       q    Type
REMARK                         _______ _______ _______ _____ _____    ______ ____
ROOT
ATOM      1  N   UNL     1      -8.386  -1.353 125.637  0.00  0.00    +0.000 N 
ENDROOT
BRANCH   1   2
ATOM      2  C   UNL     1      -8.227  -1.900 126.921  0.00  0.00    +0.000 A 
ATOM      3  C   UNL     1      -8.724  -3.184 127.190  0.00  0.00    +0.000 A 
ATOM      4  C   UNL     1      -8.660  -3.744 128.457  0.00  0.00    +0.000 A 
ATOM      5  C   UNL     1      -8.096  -3.002 129.487  0.00  0.00    +0.000 A 
ATOM      6  C   UNL     1      -7.607  -1.746 129.159  0.00  0.00    +0.000 A 
ATOM      7  N   UNL     1      -7.635  -1.193 127.918  0.00  0.00    +0.000 NA
ENDBRANCH   1   2
BRANCH   1   8
ATOM      8  C   UNL     1      -8.449   0.131 125.639  0.00  0.00    +0.000 C 
BRANCH   8   9
ATOM      9  C   UNL     1      -8.364   0.754 124.250  0.00  0.00    +0.000 C 
BRANCH   9  11
ATOM     10  C   UNL     1      -8.813   2.636 122.802  0.00  0.00    +0.000 C 
ATOM     11  N   UNL     1      -9.427   1.555 123.611  0.00  0.00    +0.000 NA
ATOM     12  C   UNL     1     -10.159   0.703 122.657  0.00  0.00    +0.000 C 
ENDBRANCH   9  11
ENDBRANCH   8   9
ENDBRANCH   1   8
BRANCH   1  13
ATOM     13  C   UNL     1      -8.253  -2.273 124.470  0.00  0.00    +0.000 C 
BRANCH  13  14
ATOM     14  C   UNL     1      -6.896  -2.848 123.950  0.00  0.00    +0.000 A 
ATOM     15  C   UNL     1      -6.399  -4.093 124.306  0.00  0.00    +0.000 A 
ATOM     16  S   UNL     1      -4.726  -4.282 123.984  0.00  0.00    +0.000 S 
ATOM     17  C   UNL     1      -4.675  -2.804 123.146  0.00  0.00    +0.000 A 
ATOM     18  C   UNL     1      -5.931  -2.229 123.046  0.00  0.00    +0.000 A 
ENDBRANCH  13  14
ENDBRANCH   1  13
TORSDOF 6
ENDMDL
