MODEL 1
REMARK VINA RESULT:      -7.3      0.000      0.000
REMARK  Name = Thenalidine
REMARK  5 active torsions:
REMARK  status: ('A' for Active; 'I' for Inactive)
REMARK    1  A    between atoms: C_1  and  N_2
REMARK    2  A    between atoms: C_5  and  N_8
REMARK    3  A    between atoms: N_8  and  C_9
REMARK    4  A    between atoms: N_8  and  C_15
REMARK    5  A    between atoms: C_9  and  C_10
REMARK                            x       y       z     vdW  Elec       q    Type
REMARK                         _______ _______ _______ _____ _____    ______ ____
ROOT
ATOM      1  N   UNL     1      -7.387   1.901 123.590  0.00  0.00    +0.000 N 
ENDROOT
BRANCH   1   6
ATOM      2  C   UNL     1      -4.161   4.017 126.198  0.00  0.00    +0.000 C 
ATOM      3  N   UNL     1      -5.633   3.840 126.175  0.00  0.00    +0.000 NA
ATOM      4  C   UNL     1      -5.825   2.455 125.855  0.00  0.00    +0.000 C 
ATOM      5  C   UNL     1      -7.447   2.010 125.936  0.00  0.00    +0.000 C 
ATOM      6  C   UNL     1      -8.068   2.555 124.736  0.00  0.00    +0.000 C 
ATOM      7  C   UNL     1      -7.855   4.045 125.050  0.00  0.00    +0.000 C 
ATOM      8  C   UNL     1      -6.354   4.490 125.083  0.00  0.00    +0.000 C 
ENDBRANCH   1   6
BRANCH   1   9
ATOM      9  C   UNL     1      -7.444   2.689 122.429  0.00  0.00    +0.000 A 
ATOM     10  C   UNL     1      -6.311   3.094 121.728  0.00  0.00    +0.000 A 
ATOM     11  C   UNL     1      -6.422   3.858 120.551  0.00  0.00    +0.000 A 
ATOM     12  C   UNL     1      -7.668   4.157 119.998  0.00  0.00    +0.000 A 
ATOM     13  C   UNL     1      -8.810   3.735 120.643  0.00  0.00    +0.000 A 
ATOM     14  C   UNL     1      -8.684   3.045 121.848  0.00  0.00    +0.000 A 
ENDBRANCH   1   9
BRANCH   1  15
ATOM     15  C   UNL     1      -6.934   0.370 123.573  0.00  0.00    +0.000 C 
BRANCH  15  16
ATOM     16  C   UNL     1      -7.951  -1.035 123.792  0.00  0.00    +0.000 A 
ATOM     17  C   UNL     1      -8.431  -2.065 122.949  0.00  0.00    +0.000 A 
ATOM     18  C   UNL     1      -9.356  -3.018 123.313  0.00  0.00    +0.000 A 
ATOM     19  C   UNL     1      -9.289  -3.040 124.629  0.00  0.00    +0.000 A 
ATOM     20  S   UNL     1      -8.510  -1.623 125.330  0.00  0.00    +0.000 S 
ENDBRANCH  15  16
ENDBRANCH   1  15
TORSDOF 4
ENDMDL
MODEL 2
REMARK VINA RESULT:      -6.8      4.054      6.778
REMARK  Name = Thenalidine
REMARK  5 active torsions:
REMARK  status: ('A' for Active; 'I' for Inactive)
REMARK    1  A    between atoms: C_1  and  N_2
REMARK    2  A    between atoms: C_5  and  N_8
REMARK    3  A    between atoms: N_8  and  C_9
REMARK    4  A    between atoms: N_8  and  C_15
REMARK    5  A    between atoms: C_9  and  C_10
REMARK                            x       y       z     vdW  Elec       q    Type
REMARK                         _______ _______ _______ _____ _____    ______ ____
ROOT
ATOM      1  N   UNL     1      -7.181  -2.637 125.519  0.00  0.00    +0.000 N 
ENDROOT
BRANCH   1   6
ATOM      2  C   UNL     1      -9.386   0.763 123.227  0.00  0.00    +0.000 C 
ATOM      3  N   UNL     1      -9.616  -0.649 123.612  0.00  0.00    +0.000 NA
ATOM      4  C   UNL     1      -9.167  -0.731 124.971  0.00  0.00    +0.000 C 
ATOM      5  C   UNL     1      -9.492  -2.236 125.652  0.00  0.00    +0.000 C 
ATOM      6  C   UNL     1      -8.507  -3.149 125.087  0.00  0.00    +0.000 C 
ATOM      7  C   UNL     1      -8.960  -3.060 123.621  0.00  0.00    +0.000 C 
ATOM      8  C   UNL     1      -8.769  -1.650 122.968  0.00  0.00    +0.000 C 
ENDBRANCH   1   6
BRANCH   1   9
ATOM      9  C   UNL     1      -6.145  -3.117 124.701  0.00  0.00    +0.000 A 
ATOM     10  C   UNL     1      -5.218  -2.283 124.081  0.00  0.00    +0.000 A 
ATOM     11  C   UNL     1      -4.178  -2.814 123.295  0.00  0.00    +0.000 A 
ATOM     12  C   UNL     1      -3.985  -4.192 123.186  0.00  0.00    +0.000 A 
ATOM     13  C   UNL     1      -4.860  -5.047 123.823  0.00  0.00    +0.000 A 
ATOM     14  C   UNL     1      -5.929  -4.505 124.534  0.00  0.00    +0.000 A 
ENDBRANCH   1   9
BRANCH   1  15
ATOM     15  C   UNL     1      -6.914  -1.909 126.914  0.00  0.00    +0.000 C 
BRANCH  15  16
ATOM     16  C   UNL     1      -6.554  -2.666 128.449  0.00  0.00    +0.000 A 
ATOM     17  C   UNL     1      -5.371  -2.975 129.160  0.00  0.00    +0.000 A 
ATOM     18  C   UNL     1      -5.315  -3.717 130.319  0.00  0.00    +0.000 A 
ATOM     19  C   UNL     1      -6.534  -3.626 130.813  0.00  0.00    +0.000 A 
ATOM     20  S   UNL     1      -7.741  -3.092 129.646  0.00  0.00    +0.000 S 
ENDBRANCH  15  16
ENDBRANCH   1  15
TORSDOF 4
ENDMDL
MODEL 3
REMARK VINA RESULT:      -6.5      2.721      5.190
REMARK  Name = Thenalidine
REMARK  5 active torsions:
REMARK  status: ('A' for Active; 'I' for Inactive)
REMARK    1  A    between atoms: C_1  and  N_2
REMARK    2  A    between atoms: C_5  and  N_8
REMARK    3  A    between atoms: N_8  and  C_9
REMARK    4  A    between atoms: N_8  and  C_15
REMARK    5  A    between atoms: C_9  and  C_10
REMARK                            x       y       z     vdW  Elec       q    Type
REMARK                         _______ _______ _______ _____ _____    ______ ____
ROOT
ATOM      1  N   UNL     1      -7.912   0.310 125.316  0.00  0.00    +0.000 N 
ENDROOT
BRANCH   1   6
ATOM      2  C   UNL     1      -7.666   3.370 121.816  0.00  0.00    +0.000 C 
ATOM      3  N   UNL     1      -8.513   3.103 123.002  0.00  0.00    +0.000 NA
ATOM      4  C   UNL     1      -7.583   2.792 124.048  0.00  0.00    +0.000 C 
ATOM      5  C   UNL     1      -8.347   2.608 125.537  0.00  0.00    +0.000 C 
ATOM      6  C   UNL     1      -9.000   1.307 125.489  0.00  0.00    +0.000 C 
ATOM      7  C   UNL     1      -9.993   1.614 124.357  0.00  0.00    +0.000 C 
ATOM      8  C   UNL     1      -9.324   1.889 122.968  0.00  0.00    +0.000 C 
ENDBRANCH   1   6
BRANCH   1   9
ATOM      9  C   UNL     1      -8.383  -0.881 124.742  0.00  0.00    +0.000 A 
ATOM     10  C   UNL     1      -8.127  -1.242 123.421  0.00  0.00    +0.000 A 
ATOM     11  C   UNL     1      -8.595  -2.462 122.899  0.00  0.00    +0.000 A 
ATOM     12  C   UNL     1      -9.249  -3.392 123.709  0.00  0.00    +0.000 A 
ATOM     13  C   UNL     1      -9.481  -3.086 125.033  0.00  0.00    +0.000 A 
ATOM     14  C   UNL     1      -9.079  -1.840 125.514  0.00  0.00    +0.000 A 
ENDBRANCH   1   9
BRANCH   1  15
ATOM     15  C   UNL     1      -6.469   0.434 125.987  0.00  0.00    +0.000 C 
BRANCH  15  16
ATOM     16  C   UNL     1      -5.812  -0.555 127.270  0.00  0.00    +0.000 A 
ATOM     17  C   UNL     1      -5.385  -1.899 127.379  0.00  0.00    +0.000 A 
ATOM     18  C   UNL     1      -5.022  -2.521 128.553  0.00  0.00    +0.000 A 
ATOM     19  C   UNL     1      -4.711  -1.525 129.358  0.00  0.00    +0.000 A 
ATOM     20  S   UNL     1      -5.326   0.040 128.830  0.00  0.00    +0.000 S 
ENDBRANCH  15  16
ENDBRANCH   1  15
TORSDOF 4
ENDMDL
MODEL 4
REMARK VINA RESULT:      -6.5      2.929      7.013
REMARK  Name = Thenalidine
REMARK  5 active torsions:
REMARK  status: ('A' for Active; 'I' for Inactive)
REMARK    1  A    between atoms: C_1  and  N_2
REMARK    2  A    between atoms: C_5  and  N_8
REMARK    3  A    between atoms: N_8  and  C_9
REMARK    4  A    between atoms: N_8  and  C_15
REMARK    5  A    between atoms: C_9  and  C_10
REMARK                            x       y       z     vdW  Elec       q    Type
REMARK                         _______ _______ _______ _____ _____    ______ ____
ROOT
ATOM      1  N   UNL     1      -8.814  -1.491 125.347  0.00  0.00    +0.000 N 
ENDROOT
BRANCH   1   6
ATOM      2  C   UNL     1      -4.696  -2.675 123.525  0.00  0.00    +0.000 C 
ATOM      3  N   UNL     1      -6.133  -2.971 123.313  0.00  0.00    +0.000 NA
ATOM      4  C   UNL     1      -6.784  -1.698 123.421  0.00  0.00    +0.000 C 
ATOM      5  C   UNL     1      -8.424  -1.797 123.051  0.00  0.00    +0.000 C 
ATOM      6  C   UNL     1      -9.055  -2.415 124.210  0.00  0.00    +0.000 C 
ATOM      7  C   UNL     1      -8.354  -3.780 124.124  0.00  0.00    +0.000 C 
ATOM      8  C   UNL     1      -6.808  -3.729 124.365  0.00  0.00    +0.000 C 
ENDBRANCH   1   6
BRANCH   1   9
ATOM      9  C   UNL     1      -8.467  -2.185 126.518  0.00  0.00    +0.000 A 
ATOM     10  C   UNL     1      -7.434  -1.784 127.361  0.00  0.00    +0.000 A 
ATOM     11  C   UNL     1      -7.144  -2.496 128.541  0.00  0.00    +0.000 A 
ATOM     12  C   UNL     1      -7.938  -3.568 128.952  0.00  0.00    +0.000 A 
ATOM     13  C   UNL     1      -8.996  -3.964 128.163  0.00  0.00    +0.000 A 
ATOM     14  C   UNL     1      -9.222  -3.297 126.960  0.00  0.00    +0.000 A 
ENDBRANCH   1   9
BRANCH   1  15
ATOM     15  C   UNL     1      -9.212   0.055 125.346  0.00  0.00    +0.000 C 
BRANCH  15  16
ATOM     16  C   UNL     1      -8.638   1.292 124.251  0.00  0.00    +0.000 A 
ATOM     17  C   UNL     1      -9.227   2.086 123.240  0.00  0.00    +0.000 A 
ATOM     18  C   UNL     1      -8.539   2.920 122.387  0.00  0.00    +0.000 A 
ATOM     19  C   UNL     1      -7.407   3.156 123.018  0.00  0.00    +0.000 A 
ATOM     20  S   UNL     1      -7.056   2.011 124.311  0.00  0.00    +0.000 S 
ENDBRANCH  15  16
ENDBRANCH   1  15
TORSDOF 4
ENDMDL
MODEL 5
REMARK VINA RESULT:      -6.5      1.985      5.699
REMARK  Name = Thenalidine
REMARK  5 active torsions:
REMARK  status: ('A' for Active; 'I' for Inactive)
REMARK    1  A    between atoms: C_1  and  N_2
REMARK    2  A    between atoms: C_5  and  N_8
REMARK    3  A    between atoms: N_8  and  C_9
REMARK    4  A    between atoms: N_8  and  C_15
REMARK    5  A    between atoms: C_9  and  C_10
REMARK                            x       y       z     vdW  Elec       q    Type
REMARK                         _______ _______ _______ _____ _____    ______ ____
ROOT
ATOM      1  N   UNL     1      -7.729   0.380 124.921  0.00  0.00    +0.000 N 
ENDROOT
BRANCH   1   6
ATOM      2  C   UNL     1      -8.290   3.363 121.390  0.00  0.00    +0.000 C 
ATOM      3  N   UNL     1      -8.883   3.090 122.721  0.00  0.00    +0.000 NA
ATOM      4  C   UNL     1      -7.758   2.842 123.574  0.00  0.00    +0.000 C 
ATOM      5  C   UNL     1      -8.216   2.663 125.184  0.00  0.00    +0.000 C 
ATOM      6  C   UNL     1      -8.808   1.335 125.283  0.00  0.00    +0.000 C 
ATOM      7  C   UNL     1     -10.010   1.574 124.356  0.00  0.00    +0.000 C 
ATOM      8  C   UNL     1      -9.631   1.843 122.861  0.00  0.00    +0.000 C 
ENDBRANCH   1   6
BRANCH   1   9
ATOM      9  C   UNL     1      -8.229  -0.915 124.708  0.00  0.00    +0.000 A 
ATOM     10  C   UNL     1      -8.858  -1.661 125.703  0.00  0.00    +0.000 A 
ATOM     11  C   UNL     1      -9.371  -2.943 125.431  0.00  0.00    +0.000 A 
ATOM     12  C   UNL     1      -9.351  -3.472 124.140  0.00  0.00    +0.000 A 
ATOM     13  C   UNL     1      -8.774  -2.742 123.122  0.00  0.00    +0.000 A 
ATOM     14  C   UNL     1      -8.202  -1.507 123.423  0.00  0.00    +0.000 A 
ENDBRANCH   1   9
BRANCH   1  15
ATOM     15  C   UNL     1      -6.170   0.690 125.071  0.00  0.00    +0.000 C 
BRANCH  15  16
ATOM     16  C   UNL     1      -5.346   1.302 126.486  0.00  0.00    +0.000 A 
ATOM     17  C   UNL     1      -4.419   2.341 126.733  0.00  0.00    +0.000 A 
ATOM     18  C   UNL     1      -3.780   2.562 127.933  0.00  0.00    +0.000 A 
ATOM     19  C   UNL     1      -4.550   1.962 128.819  0.00  0.00    +0.000 A 
ATOM     20  S   UNL     1      -5.675   0.800 128.118  0.00  0.00    +0.000 S 
ENDBRANCH  15  16
ENDBRANCH   1  15
TORSDOF 4
ENDMDL
MODEL 6
REMARK VINA RESULT:      -6.3      3.773      7.618
REMARK  Name = Thenalidine
REMARK  5 active torsions:
REMARK  status: ('A' for Active; 'I' for Inactive)
REMARK    1  A    between atoms: C_1  and  N_2
REMARK    2  A    between atoms: C_5  and  N_8
REMARK    3  A    between atoms: N_8  and  C_9
REMARK    4  A    between atoms: N_8  and  C_15
REMARK    5  A    between atoms: C_9  and  C_10
REMARK                            x       y       z     vdW  Elec       q    Type
REMARK                         _______ _______ _______ _____ _____    ______ ____
ROOT
ATOM      1  N   UNL     1      -7.652  -1.506 127.224  0.00  0.00    +0.000 N 
ENDROOT
BRANCH   1   6
ATOM      2  C   UNL     1      -6.424  -1.794 122.742  0.00  0.00    +0.000 C 
ATOM      3  N   UNL     1      -7.487  -2.306 123.639  0.00  0.00    +0.000 NA
ATOM      4  C   UNL     1      -7.855  -1.178 124.445  0.00  0.00    +0.000 C 
ATOM      5  C   UNL     1      -9.174  -1.514 125.435  0.00  0.00    +0.000 C 
ATOM      6  C   UNL     1      -8.656  -2.341 126.517  0.00  0.00    +0.000 C 
ATOM      7  C   UNL     1      -8.237  -3.553 125.671  0.00  0.00    +0.000 C 
ATOM      8  C   UNL     1      -7.075  -3.266 124.661  0.00  0.00    +0.000 C 
ENDBRANCH   1   6
BRANCH   1   9
ATOM      9  C   UNL     1      -6.805  -2.282 128.033  0.00  0.00    +0.000 A 
ATOM     10  C   UNL     1      -5.417  -2.259 127.922  0.00  0.00    +0.000 A 
ATOM     11  C   UNL     1      -4.609  -3.032 128.778  0.00  0.00    +0.000 A 
ATOM     12  C   UNL     1      -5.164  -3.772 129.823  0.00  0.00    +0.000 A 
ATOM     13  C   UNL     1      -6.533  -3.782 129.988  0.00  0.00    +0.000 A 
ATOM     14  C   UNL     1      -7.323  -3.073 129.085  0.00  0.00    +0.000 A 
ENDBRANCH   1   9
BRANCH   1  15
ATOM     15  C   UNL     1      -7.718   0.086 127.321  0.00  0.00    +0.000 C 
BRANCH  15  16
ATOM     16  C   UNL     1      -6.523   1.230 126.756  0.00  0.00    +0.000 A 
ATOM     17  C   UNL     1      -5.110   1.260 126.708  0.00  0.00    +0.000 A 
ATOM     18  C   UNL     1      -4.353   2.350 126.338  0.00  0.00    +0.000 A 
ATOM     19  C   UNL     1      -5.184   3.088 125.630  0.00  0.00    +0.000 A 
ATOM     20  S   UNL     1      -6.882   2.680 125.866  0.00  0.00    +0.000 S 
ENDBRANCH  15  16
ENDBRANCH   1  15
TORSDOF 4
ENDMDL
MODEL 7
REMARK VINA RESULT:      -6.3      6.124      8.802
REMARK  Name = Thenalidine
REMARK  5 active torsions:
REMARK  status: ('A' for Active; 'I' for Inactive)
REMARK    1  A    between atoms: C_1  and  N_2
REMARK    2  A    between atoms: C_5  and  N_8
REMARK    3  A    between atoms: N_8  and  C_9
REMARK    4  A    between atoms: N_8  and  C_15
REMARK    5  A    between atoms: C_9  and  C_10
REMARK                            x       y       z     vdW  Elec       q    Type
REMARK                         _______ _______ _______ _____ _____    ______ ____
ROOT
ATOM      1  N   UNL     1      -7.002  -1.805 129.994  0.00  0.00    +0.000 N 
ENDROOT
BRANCH   1   6
ATOM      2  C   UNL     1      -5.266  -5.116 132.769  0.00  0.00    +0.000 C 
ATOM      3  N   UNL     1      -4.784  -4.152 131.752  0.00  0.00    +0.000 NA
ATOM      4  C   UNL     1      -5.470  -2.930 132.059  0.00  0.00    +0.000 C 
ATOM      5  C   UNL     1      -4.936  -1.652 131.102  0.00  0.00    +0.000 C 
ATOM      6  C   UNL     1      -5.532  -1.863 129.789  0.00  0.00    +0.000 C 
ATOM      7  C   UNL     1      -4.822  -3.183 129.449  0.00  0.00    +0.000 C 
ATOM      8  C   UNL     1      -5.212  -4.384 130.375  0.00  0.00    +0.000 C 
ENDBRANCH   1   6
BRANCH   1   9
ATOM      9  C   UNL     1      -7.703  -2.269 128.870  0.00  0.00    +0.000 A 
ATOM     10  C   UNL     1      -7.654  -1.639 127.629  0.00  0.00    +0.000 A 
ATOM     11  C   UNL     1      -8.351  -2.161 126.523  0.00  0.00    +0.000 A 
ATOM     12  C   UNL     1      -9.037  -3.374 126.607  0.00  0.00    +0.000 A 
ATOM     13  C   UNL     1      -9.071  -4.046 127.811  0.00  0.00    +0.000 A 
ATOM     14  C   UNL     1      -8.440  -3.476 128.915  0.00  0.00    +0.000 A 
ENDBRANCH   1   9
BRANCH   1  15
ATOM     15  C   UNL     1      -7.709  -1.019 131.190  0.00  0.00    +0.000 C 
BRANCH  15  16
ATOM     16  C   UNL     1      -8.564   0.504 131.094  0.00  0.00    +0.000 A 
ATOM     17  C   UNL     1      -9.451   1.209 131.940  0.00  0.00    +0.000 A 
ATOM     18  C   UNL     1     -10.131   2.356 131.595  0.00  0.00    +0.000 A 
ATOM     19  C   UNL     1      -9.430   2.852 130.595  0.00  0.00    +0.000 A 
ATOM     20  S   UNL     1      -8.332   1.694 129.847  0.00  0.00    +0.000 S 
ENDBRANCH  15  16
ENDBRANCH   1  15
TORSDOF 4
ENDMDL
MODEL 8
REMARK VINA RESULT:      -6.3      3.200      5.316
REMARK  Name = Thenalidine
REMARK  5 active torsions:
REMARK  status: ('A' for Active; 'I' for Inactive)
REMARK    1  A    between atoms: C_1  and  N_2
REMARK    2  A    between atoms: C_5  and  N_8
REMARK    3  A    between atoms: N_8  and  C_9
REMARK    4  A    between atoms: N_8  and  C_15
REMARK    5  A    between atoms: C_9  and  C_10
REMARK                            x       y       z     vdW  Elec       q    Type
REMARK                         _______ _______ _______ _____ _____    ______ ____
ROOT
ATOM      1  N   UNL     1      -7.845  -0.409 125.756  0.00  0.00    +0.000 N 
ENDROOT
BRANCH   1   6
ATOM      2  C   UNL     1      -6.289   3.631 124.041  0.00  0.00    +0.000 C 
ATOM      3  N   UNL     1      -7.490   2.768 123.939  0.00  0.00    +0.000 NA
ATOM      4  C   UNL     1      -7.755   2.357 125.287  0.00  0.00    +0.000 C 
ATOM      5  C   UNL     1      -9.190   1.486 125.409  0.00  0.00    +0.000 C 
ATOM      6  C   UNL     1      -8.898   0.162 124.876  0.00  0.00    +0.000 C 
ATOM      7  C   UNL     1      -8.591   0.584 123.430  0.00  0.00    +0.000 C 
ATOM      8  C   UNL     1      -7.316   1.479 123.274  0.00  0.00    +0.000 C 
ENDBRANCH   1   6
BRANCH   1   9
ATOM      9  C   UNL     1      -7.150  -1.454 125.126  0.00  0.00    +0.000 A 
ATOM     10  C   UNL     1      -5.791  -1.390 124.824  0.00  0.00    +0.000 A 
ATOM     11  C   UNL     1      -5.132  -2.477 124.220  0.00  0.00    +0.000 A 
ATOM     12  C   UNL     1      -5.791  -3.685 123.989  0.00  0.00    +0.000 A 
ATOM     13  C   UNL     1      -7.126  -3.798 124.316  0.00  0.00    +0.000 A 
ATOM     14  C   UNL     1      -7.783  -2.686 124.842  0.00  0.00    +0.000 A 
ENDBRANCH   1   9
BRANCH   1  15
ATOM     15  C   UNL     1      -7.726  -0.110 127.319  0.00  0.00    +0.000 C 
BRANCH  15  16
ATOM     16  C   UNL     1      -7.630  -1.282 128.614  0.00  0.00    +0.000 A 
ATOM     17  C   UNL     1      -7.315  -2.658 128.698  0.00  0.00    +0.000 A 
ATOM     18  C   UNL     1      -7.440  -3.431 129.831  0.00  0.00    +0.000 A 
ATOM     19  C   UNL     1      -7.427  -2.555 130.816  0.00  0.00    +0.000 A 
ATOM     20  S   UNL     1      -7.752  -0.900 130.306  0.00  0.00    +0.000 S 
ENDBRANCH  15  16
ENDBRANCH   1  15
TORSDOF 4
ENDMDL
MODEL 9
REMARK VINA RESULT:      -6.2      7.225      9.472
REMARK  Name = Thenalidine
REMARK  5 active torsions:
REMARK  status: ('A' for Active; 'I' for Inactive)
REMARK    1  A    between atoms: C_1  and  N_2
REMARK    2  A    between atoms: C_5  and  N_8
REMARK    3  A    between atoms: N_8  and  C_9
REMARK    4  A    between atoms: N_8  and  C_15
REMARK    5  A    between atoms: C_9  and  C_10
REMARK                            x       y       z     vdW  Elec       q    Type
REMARK                         _______ _______ _______ _____ _____    ______ ____
ROOT
ATOM      1  N   UNL     1      -9.503   4.509 130.862  0.00  0.00    +0.000 N 
ENDROOT
BRANCH   1   6
ATOM      2  C   UNL     1      -7.800   5.172 135.144  0.00  0.00    +0.000 C 
ATOM      3  N   UNL     1      -7.445   5.500 133.743  0.00  0.00    +0.000 NA
ATOM      4  C   UNL     1      -8.680   5.917 133.146  0.00  0.00    +0.000 C 
ATOM      5  C   UNL     1      -8.459   6.488 131.577  0.00  0.00    +0.000 C 
ATOM      6  C   UNL     1      -8.255   5.307 130.750  0.00  0.00    +0.000 C 
ATOM      7  C   UNL     1      -6.941   4.831 131.389  0.00  0.00    +0.000 C 
ATOM      8  C   UNL     1      -7.074   4.379 132.883  0.00  0.00    +0.000 C 
ENDBRANCH   1   6
BRANCH   1   9
ATOM      9  C   UNL     1      -9.248   3.130 130.791  0.00  0.00    +0.000 A 
ATOM     10  C   UNL     1      -8.533   2.541 129.750  0.00  0.00    +0.000 A 
ATOM     11  C   UNL     1      -8.277   1.157 129.740  0.00  0.00    +0.000 A 
ATOM     12  C   UNL     1      -8.648   0.345 130.812  0.00  0.00    +0.000 A 
ATOM     13  C   UNL     1      -9.320   0.903 131.879  0.00  0.00    +0.000 A 
ATOM     14  C   UNL     1      -9.633   2.260 131.838  0.00  0.00    +0.000 A 
ENDBRANCH   1   9
BRANCH   1  15
ATOM     15  C   UNL     1     -10.972   5.123 130.747  0.00  0.00    +0.000 C 
BRANCH  15  16
ATOM     16  C   UNL     1     -11.579   6.184 129.497  0.00  0.00    +0.000 A 
ATOM     17  C   UNL     1     -12.856   6.471 128.960  0.00  0.00    +0.000 A 
ATOM     18  C   UNL     1     -13.091   7.260 127.856  0.00  0.00    +0.000 A 
ATOM     19  C   UNL     1     -12.007   8.003 127.760  0.00  0.00    +0.000 A 
ATOM     20  S   UNL     1     -10.631   7.383 128.668  0.00  0.00    +0.000 S 
ENDBRANCH  15  16
ENDBRANCH   1  15
TORSDOF 4
ENDMDL
