MODEL 1
REMARK VINA RESULT:      -5.4      0.000      0.000
REMARK  Name = Theophylline
REMARK  2 active torsions:
REMARK  status: ('A' for Active; 'I' for Inactive)
REMARK    1  A    between atoms: C_1  and  N_2
REMARK    2  A    between atoms: N_10  and  C_11
REMARK                            x       y       z     vdW  Elec       q    Type
REMARK                         _______ _______ _______ _____ _____    ______ ____
ROOT
ATOM      1  C   UNL     1     -13.099   7.950 131.485  0.00  0.00    +0.000 C 
ATOM      2  N   UNL     1     -12.094   7.413 130.592  0.00  0.00    +0.000 N 
ATOM      3  C   UNL     1     -11.020   6.702 131.065  0.00  0.00    +0.000 A 
ATOM      4  C   UNL     1     -10.073   6.203 130.226  0.00  0.00    +0.000 A 
ATOM      5  N   UNL     1      -9.176   5.565 131.033  0.00  0.00    +0.000 N 
ATOM      6  C   UNL     1      -9.624   5.721 132.320  0.00  0.00    +0.000 A 
ATOM      7  N   UNL     1     -10.748   6.407 132.364  0.00  0.00    +0.000 NA
ATOM      8  C   UNL     1     -10.099   6.376 128.818  0.00  0.00    +0.000 A 
ATOM      9  O   UNL     1      -9.233   5.910 128.083  0.00  0.00    +0.000 OA
ATOM     10  N   UNL     1     -11.197   7.127 128.388  0.00  0.00    +0.000 N 
ATOM     11  C   UNL     1     -11.317   7.423 126.974  0.00  0.00    +0.000 C 
ATOM     12  C   UNL     1     -12.211   7.645 129.220  0.00  0.00    +0.000 A 
ATOM     13  O   UNL     1     -13.160   8.284 128.754  0.00  0.00    +0.000 OA
ATOM     14  H   UNL     1      -8.340   5.077 130.738  0.00  0.00    +0.000 HD
ENDROOT
TORSDOF 0
ENDMDL
MODEL 2
REMARK VINA RESULT:      -5.3      1.726      4.049
REMARK  Name = Theophylline
REMARK  2 active torsions:
REMARK  status: ('A' for Active; 'I' for Inactive)
REMARK    1  A    between atoms: C_1  and  N_2
REMARK    2  A    between atoms: N_10  and  C_11
REMARK                            x       y       z     vdW  Elec       q    Type
REMARK                         _______ _______ _______ _____ _____    ______ ____
ROOT
ATOM      1  C   UNL     1     -10.836   7.652 126.585  0.00  0.00    +0.000 C 
ATOM      2  N   UNL     1     -10.906   7.392 128.008  0.00  0.00    +0.000 N 
ATOM      3  C   UNL     1     -11.758   8.090 128.824  0.00  0.00    +0.000 A 
ATOM      4  C   UNL     1     -11.820   7.849 130.162  0.00  0.00    +0.000 A 
ATOM      5  N   UNL     1     -12.761   8.713 130.641  0.00  0.00    +0.000 N 
ATOM      6  C   UNL     1     -13.212   9.439 129.569  0.00  0.00    +0.000 A 
ATOM      7  N   UNL     1     -12.620   9.075 128.450  0.00  0.00    +0.000 NA
ATOM      8  C   UNL     1     -11.019   6.884 130.825  0.00  0.00    +0.000 A 
ATOM      9  O   UNL     1     -11.099   6.683 132.032  0.00  0.00    +0.000 OA
ATOM     10  N   UNL     1     -10.150   6.217 129.955  0.00  0.00    +0.000 N 
ATOM     11  C   UNL     1      -9.237   5.239 130.513  0.00  0.00    +0.000 C 
ATOM     12  C   UNL     1     -10.069   6.421 128.562  0.00  0.00    +0.000 A 
ATOM     13  O   UNL     1      -9.284   5.773 127.863  0.00  0.00    +0.000 OA
ATOM     14  H   UNL     1     -13.062   8.804 131.603  0.00  0.00    +0.000 HD
ENDROOT
TORSDOF 0
ENDMDL
MODEL 3
REMARK VINA RESULT:      -5.3      1.759      4.150
REMARK  Name = Theophylline
REMARK  2 active torsions:
REMARK  status: ('A' for Active; 'I' for Inactive)
REMARK    1  A    between atoms: C_1  and  N_2
REMARK    2  A    between atoms: N_10  and  C_11
REMARK                            x       y       z     vdW  Elec       q    Type
REMARK                         _______ _______ _______ _____ _____    ______ ____
ROOT
ATOM      1  C   UNL     1      -9.218   5.324 130.057  0.00  0.00    +0.000 C 
ATOM      2  N   UNL     1     -10.303   6.246 129.792  0.00  0.00    +0.000 N 
ATOM      3  C   UNL     1     -10.517   6.760 128.539  0.00  0.00    +0.000 A 
ATOM      4  C   UNL     1     -11.533   7.630 128.291  0.00  0.00    +0.000 A 
ATOM      5  N   UNL     1     -11.442   7.921 126.961  0.00  0.00    +0.000 N 
ATOM      6  C   UNL     1     -10.369   7.219 126.476  0.00  0.00    +0.000 A 
ATOM      7  N   UNL     1      -9.792   6.500 127.417  0.00  0.00    +0.000 NA
ATOM      8  C   UNL     1     -12.437   8.087 129.284  0.00  0.00    +0.000 A 
ATOM      9  O   UNL     1     -13.349   8.869 129.032  0.00  0.00    +0.000 OA
ATOM     10  N   UNL     1     -12.162   7.555 130.548  0.00  0.00    +0.000 N 
ATOM     11  C   UNL     1     -12.981   7.981 131.666  0.00  0.00    +0.000 C 
ATOM     12  C   UNL     1     -11.134   6.636 130.844  0.00  0.00    +0.000 A 
ATOM     13  O   UNL     1     -10.972   6.200 131.988  0.00  0.00    +0.000 OA
ATOM     14  H   UNL     1     -12.047   8.541 126.437  0.00  0.00    +0.000 HD
ENDROOT
TORSDOF 0
ENDMDL
MODEL 4
REMARK VINA RESULT:      -5.3      1.627      3.112
REMARK  Name = Theophylline
REMARK  2 active torsions:
REMARK  status: ('A' for Active; 'I' for Inactive)
REMARK    1  A    between atoms: C_1  and  N_2
REMARK    2  A    between atoms: N_10  and  C_11
REMARK                            x       y       z     vdW  Elec       q    Type
REMARK                         _______ _______ _______ _____ _____    ______ ____
ROOT
ATOM      1  C   UNL     1     -10.859   7.612 126.993  0.00  0.00    +0.000 C 
ATOM      2  N   UNL     1     -10.929   7.253 128.394  0.00  0.00    +0.000 N 
ATOM      3  C   UNL     1     -10.087   6.317 128.937  0.00  0.00    +0.000 A 
ATOM      4  C   UNL     1     -10.157   5.976 130.252  0.00  0.00    +0.000 A 
ATOM      5  N   UNL     1      -9.185   5.035 130.433  0.00  0.00    +0.000 N 
ATOM      6  C   UNL     1      -8.585   4.850 129.215  0.00  0.00    +0.000 A 
ATOM      7  N   UNL     1      -9.114   5.623 128.288  0.00  0.00    +0.000 NA
ATOM      8  C   UNL     1     -11.093   6.534 131.161  0.00  0.00    +0.000 A 
ATOM      9  O   UNL     1     -11.130   6.213 132.345  0.00  0.00    +0.000 OA
ATOM     10  N   UNL     1     -11.943   7.464 130.554  0.00  0.00    +0.000 N 
ATOM     11  C   UNL     1     -12.983   8.073 131.361  0.00  0.00    +0.000 C 
ATOM     12  C   UNL     1     -11.892   7.861 129.202  0.00  0.00    +0.000 A 
ATOM     13  O   UNL     1     -12.672   8.705 128.751  0.00  0.00    +0.000 OA
ATOM     14  H   UNL     1      -8.957   4.563 131.299  0.00  0.00    +0.000 HD
ENDROOT
TORSDOF 0
ENDMDL
MODEL 5
REMARK VINA RESULT:      -5.1      1.461      3.014
REMARK  Name = Theophylline
REMARK  2 active torsions:
REMARK  status: ('A' for Active; 'I' for Inactive)
REMARK    1  A    between atoms: C_1  and  N_2
REMARK    2  A    between atoms: N_10  and  C_11
REMARK                            x       y       z     vdW  Elec       q    Type
REMARK                         _______ _______ _______ _____ _____    ______ ____
ROOT
ATOM      1  C   UNL     1      -8.790   5.350 128.718  0.00  0.00    +0.000 C 
ATOM      2  N   UNL     1      -9.903   5.849 129.498  0.00  0.00    +0.000 N 
ATOM      3  C   UNL     1      -9.952   5.690 130.860  0.00  0.00    +0.000 A 
ATOM      4  C   UNL     1     -11.000   6.154 131.593  0.00  0.00    +0.000 A 
ATOM      5  N   UNL     1     -10.711   5.825 132.885  0.00  0.00    +0.000 N 
ATOM      6  C   UNL     1      -9.507   5.169 132.864  0.00  0.00    +0.000 A 
ATOM      7  N   UNL     1      -9.023   5.079 131.642  0.00  0.00    +0.000 NA
ATOM      8  C   UNL     1     -12.120   6.820 131.030  0.00  0.00    +0.000 A 
ATOM      9  O   UNL     1     -13.050   7.234 131.715  0.00  0.00    +0.000 OA
ATOM     10  N   UNL     1     -12.034   6.935 129.639  0.00  0.00    +0.000 N 
ATOM     11  C   UNL     1     -13.140   7.551 128.931  0.00  0.00    +0.000 C 
ATOM     12  C   UNL     1     -10.959   6.487 128.844  0.00  0.00    +0.000 A 
ATOM     13  O   UNL     1     -10.955   6.646 127.620  0.00  0.00    +0.000 OA
ATOM     14  H   UNL     1     -11.279   6.022 133.699  0.00  0.00    +0.000 HD
ENDROOT
TORSDOF 0
ENDMDL
MODEL 6
REMARK VINA RESULT:      -4.8      9.419     10.862
REMARK  Name = Theophylline
REMARK  2 active torsions:
REMARK  status: ('A' for Active; 'I' for Inactive)
REMARK    1  A    between atoms: C_1  and  N_2
REMARK    2  A    between atoms: N_10  and  C_11
REMARK                            x       y       z     vdW  Elec       q    Type
REMARK                         _______ _______ _______ _____ _____    ______ ____
ROOT
ATOM      1  C   UNL     1      -9.400  -3.216 123.427  0.00  0.00    +0.000 C 
ATOM      2  N   UNL     1      -8.653  -2.016 123.742  0.00  0.00    +0.000 N 
ATOM      3  C   UNL     1      -9.084  -0.777 123.341  0.00  0.00    +0.000 A 
ATOM      4  C   UNL     1      -8.380   0.350 123.633  0.00  0.00    +0.000 A 
ATOM      5  N   UNL     1      -9.096   1.374 123.087  0.00  0.00    +0.000 N 
ATOM      6  C   UNL     1     -10.192   0.812 122.485  0.00  0.00    +0.000 A 
ATOM      7  N   UNL     1     -10.209  -0.497 122.630  0.00  0.00    +0.000 NA
ATOM      8  C   UNL     1      -7.157   0.348 124.353  0.00  0.00    +0.000 A 
ATOM      9  O   UNL     1      -6.544   1.381 124.607  0.00  0.00    +0.000 OA
ATOM     10  N   UNL     1      -6.748  -0.939 124.717  0.00  0.00    +0.000 N 
ATOM     11  C   UNL     1      -5.486  -1.087 125.414  0.00  0.00    +0.000 C 
ATOM     12  C   UNL     1      -7.457  -2.129 124.453  0.00  0.00    +0.000 A 
ATOM     13  O   UNL     1      -7.032  -3.226 124.829  0.00  0.00    +0.000 OA
ATOM     14  H   UNL     1      -8.860   2.358 123.117  0.00  0.00    +0.000 HD
ENDROOT
TORSDOF 0
ENDMDL
MODEL 7
REMARK VINA RESULT:      -4.7      8.947     10.315
REMARK  Name = Theophylline
REMARK  2 active torsions:
REMARK  status: ('A' for Active; 'I' for Inactive)
REMARK    1  A    between atoms: C_1  and  N_2
REMARK    2  A    between atoms: N_10  and  C_11
REMARK                            x       y       z     vdW  Elec       q    Type
REMARK                         _______ _______ _______ _____ _____    ______ ____
ROOT
ATOM      1  C   UNL     1      -7.653   4.545 118.941  0.00  0.00    +0.000 C 
ATOM      2  N   UNL     1      -7.373   4.153 120.307  0.00  0.00    +0.000 N 
ATOM      3  C   UNL     1      -6.171   4.437 120.903  0.00  0.00    +0.000 A 
ATOM      4  C   UNL     1      -5.906   4.063 122.184  0.00  0.00    +0.000 A 
ATOM      5  N   UNL     1      -4.641   4.507 122.435  0.00  0.00    +0.000 N 
ATOM      6  C   UNL     1      -4.203   5.118 121.288  0.00  0.00    +0.000 A 
ATOM      7  N   UNL     1      -5.119   5.092 120.342  0.00  0.00    +0.000 NA
ATOM      8  C   UNL     1      -6.822   3.351 123.001  0.00  0.00    +0.000 A 
ATOM      9  O   UNL     1      -6.560   3.031 124.156  0.00  0.00    +0.000 OA
ATOM     10  N   UNL     1      -8.021   3.064 122.341  0.00  0.00    +0.000 N 
ATOM     11  C   UNL     1      -9.027   2.294 123.046  0.00  0.00    +0.000 C 
ATOM     12  C   UNL     1      -8.344   3.450 121.023  0.00  0.00    +0.000 A 
ATOM     13  O   UNL     1      -9.437   3.170 120.522  0.00  0.00    +0.000 OA
ATOM     14  H   UNL     1      -4.125   4.401 123.299  0.00  0.00    +0.000 HD
ENDROOT
TORSDOF 0
ENDMDL
MODEL 8
REMARK VINA RESULT:      -4.7      2.366      4.904
REMARK  Name = Theophylline
REMARK  2 active torsions:
REMARK  status: ('A' for Active; 'I' for Inactive)
REMARK    1  A    between atoms: C_1  and  N_2
REMARK    2  A    between atoms: N_10  and  C_11
REMARK                            x       y       z     vdW  Elec       q    Type
REMARK                         _______ _______ _______ _____ _____    ______ ____
ROOT
ATOM      1  C   UNL     1      -8.021   4.113 128.489  0.00  0.00    +0.000 C 
ATOM      2  N   UNL     1      -8.734   4.751 129.576  0.00  0.00    +0.000 N 
ATOM      3  C   UNL     1      -9.532   5.846 129.364  0.00  0.00    +0.000 A 
ATOM      4  C   UNL     1     -10.197   6.449 130.386  0.00  0.00    +0.000 A 
ATOM      5  N   UNL     1     -10.880   7.482 129.813  0.00  0.00    +0.000 N 
ATOM      6  C   UNL     1     -10.583   7.456 128.474  0.00  0.00    +0.000 A 
ATOM      7  N   UNL     1      -9.767   6.465 128.176  0.00  0.00    +0.000 NA
ATOM      8  C   UNL     1     -10.120   6.020 131.737  0.00  0.00    +0.000 A 
ATOM      9  O   UNL     1     -10.735   6.579 132.639  0.00  0.00    +0.000 OA
ATOM     10  N   UNL     1      -9.276   4.918 131.904  0.00  0.00    +0.000 N 
ATOM     11  C   UNL     1      -9.066   4.410 133.245  0.00  0.00    +0.000 C 
ATOM     12  C   UNL     1      -8.585   4.251 130.871  0.00  0.00    +0.000 A 
ATOM     13  O   UNL     1      -7.872   3.270 131.104  0.00  0.00    +0.000 OA
ATOM     14  H   UNL     1     -11.483   8.143 130.286  0.00  0.00    +0.000 HD
ENDROOT
TORSDOF 0
ENDMDL
MODEL 9
REMARK VINA RESULT:      -4.7      2.512      4.594
REMARK  Name = Theophylline
REMARK  2 active torsions:
REMARK  status: ('A' for Active; 'I' for Inactive)
REMARK    1  A    between atoms: C_1  and  N_2
REMARK    2  A    between atoms: N_10  and  C_11
REMARK                            x       y       z     vdW  Elec       q    Type
REMARK                         _______ _______ _______ _____ _____    ______ ____
ROOT
ATOM      1  C   UNL     1      -7.050   6.834 131.121  0.00  0.00    +0.000 C 
ATOM      2  N   UNL     1      -8.223   6.023 130.869  0.00  0.00    +0.000 N 
ATOM      3  C   UNL     1      -9.290   6.509 130.158  0.00  0.00    +0.000 A 
ATOM      4  C   UNL     1     -10.395   5.750 129.925  0.00  0.00    +0.000 A 
ATOM      5  N   UNL     1     -11.233   6.545 129.199  0.00  0.00    +0.000 N 
ATOM      6  C   UNL     1     -10.595   7.748 129.039  0.00  0.00    +0.000 A 
ATOM      7  N   UNL     1      -9.408   7.749 129.610  0.00  0.00    +0.000 NA
ATOM      8  C   UNL     1     -10.549   4.420 130.396  0.00  0.00    +0.000 A 
ATOM      9  O   UNL     1     -11.554   3.755 130.167  0.00  0.00    +0.000 OA
ATOM     10  N   UNL     1      -9.446   3.980 131.135  0.00  0.00    +0.000 N 
ATOM     11  C   UNL     1      -9.495   2.654 131.719  0.00  0.00    +0.000 C 
ATOM     12  C   UNL     1      -8.275   4.726 131.382  0.00  0.00    +0.000 A 
ATOM     13  O   UNL     1      -7.337   4.252 132.032  0.00  0.00    +0.000 OA
ATOM     14  H   UNL     1     -12.151   6.295 128.852  0.00  0.00    +0.000 HD
ENDROOT
TORSDOF 0
ENDMDL
