MODEL 1
REMARK VINA RESULT:      -6.3      0.000      0.000
REMARK  Name = Thiamine
REMARK  7 active torsions:
REMARK  status: ('A' for Active; 'I' for Inactive)
REMARK    1  A    between atoms: C_1  and  C_2
REMARK    2  A    between atoms: C_3  and  C_4
REMARK    3  A    between atoms: C_4  and  C_5
REMARK    4  A    between atoms: C_5  and  O_6
REMARK    5  A    between atoms: N_9  and  C_10
REMARK    6  A    between atoms: C_10  and  C_11
REMARK    7  A    between atoms: C_14  and  C_15
REMARK                            x       y       z     vdW  Elec       q    Type
REMARK                         _______ _______ _______ _____ _____    ______ ____
ROOT
ATOM      1  C   UNL     1      -9.373   2.341 124.262  0.00  0.00    +0.000 C 
ENDROOT
BRANCH   1   2
ATOM      2  C   UNL     1      -9.444   0.854 124.234  0.00  0.00    +0.000 A 
ATOM      3  C   UNL     1      -9.654   0.179 123.047  0.00  0.00    +0.000 A 
ATOM      4  N   UNL     1      -9.446  -1.134 122.888  0.00  0.00    +0.000 NA
ATOM      5  C   UNL     1      -9.061  -1.823 123.980  0.00  0.00    +0.000 A 
ATOM      6  C   UNL     1      -8.803  -3.290 123.823  0.00  0.00    +0.000 C 
ATOM      7  N   UNL     1      -8.882  -1.259 125.191  0.00  0.00    +0.000 NA
ATOM      8  C   UNL     1      -9.100   0.057 125.320  0.00  0.00    +0.000 A 
ATOM      9  N   UNL     1      -8.821   0.601 126.568  0.00  0.00    +0.000 N 
ATOM     10  H   UNL     1      -8.347  -0.126 127.117  0.00  0.00    +0.000 HD
ATOM     11  H   UNL     1      -8.309   1.468 126.633  0.00  0.00    +0.000 HD
ENDBRANCH   1   2
BRANCH   1  17
ATOM     12  C   UNL     1      -8.690   3.292 121.335  0.00  0.00    +0.000 C 
ATOM     13  C   UNL     1      -7.736   3.380 122.469  0.00  0.00    +0.000 A 
ATOM     14  C   UNL     1      -6.412   3.788 122.403  0.00  0.00    +0.000 A 
ATOM     15  S   UNL     1      -5.709   3.768 123.971  0.00  0.00    +0.000 S 
ATOM     16  C   UNL     1      -7.138   3.154 124.670  0.00  0.00    +0.000 A 
ATOM     17  N   UNL     1      -8.095   2.957 123.767  0.00  0.00    +0.000 N 
BRANCH  14  18
ATOM     18  C   UNL     1      -5.553   4.223 121.240  0.00  0.00    +0.000 C 
BRANCH  18  19
ATOM     19  C   UNL     1      -4.300   4.982 121.648  0.00  0.00    +0.000 C 
BRANCH  19  20
ATOM     20  O   UNL     1      -4.189   6.232 121.013  0.00  0.00    +0.000 OA
ATOM     21  H   UNL     1      -4.668   6.163 120.167  0.00  0.00    +0.000 HD
ENDBRANCH  19  20
ENDBRANCH  18  19
ENDBRANCH  14  18
ENDBRANCH   1  17
TORSDOF 5
ENDMDL
MODEL 2
REMARK VINA RESULT:      -6.2      8.620     10.126
REMARK  Name = Thiamine
REMARK  7 active torsions:
REMARK  status: ('A' for Active; 'I' for Inactive)
REMARK    1  A    between atoms: C_1  and  C_2
REMARK    2  A    between atoms: C_3  and  C_4
REMARK    3  A    between atoms: C_4  and  C_5
REMARK    4  A    between atoms: C_5  and  O_6
REMARK    5  A    between atoms: N_9  and  C_10
REMARK    6  A    between atoms: C_10  and  C_11
REMARK    7  A    between atoms: C_14  and  C_15
REMARK                            x       y       z     vdW  Elec       q    Type
REMARK                         _______ _______ _______ _____ _____    ______ ____
ROOT
ATOM      1  C   UNL     1     -10.818   5.266 130.159  0.00  0.00    +0.000 C 
ENDROOT
BRANCH   1   2
ATOM      2  C   UNL     1      -9.500   5.268 130.851  0.00  0.00    +0.000 A 
ATOM      3  C   UNL     1      -8.327   5.101 130.138  0.00  0.00    +0.000 A 
ATOM      4  N   UNL     1      -7.111   5.375 130.628  0.00  0.00    +0.000 NA
ATOM      5  C   UNL     1      -7.052   5.784 131.910  0.00  0.00    +0.000 A 
ATOM      6  C   UNL     1      -5.704   6.116 132.473  0.00  0.00    +0.000 C 
ATOM      7  N   UNL     1      -8.136   5.925 132.697  0.00  0.00    +0.000 NA
ATOM      8  C   UNL     1      -9.340   5.642 132.181  0.00  0.00    +0.000 A 
ATOM      9  N   UNL     1     -10.430   5.883 133.009  0.00  0.00    +0.000 N 
ATOM     10  H   UNL     1     -10.080   6.388 133.832  0.00  0.00    +0.000 HD
ATOM     11  H   UNL     1     -11.245   6.351 132.640  0.00  0.00    +0.000 HD
ENDBRANCH   1   2
BRANCH   1  17
ATOM     12  C   UNL     1     -13.057   7.285 131.078  0.00  0.00    +0.000 C 
ATOM     13  C   UNL     1     -12.231   7.477 129.860  0.00  0.00    +0.000 A 
ATOM     14  C   UNL     1     -12.373   8.484 128.917  0.00  0.00    +0.000 A 
ATOM     15  S   UNL     1     -11.169   8.329 127.701  0.00  0.00    +0.000 S 
ATOM     16  C   UNL     1     -10.552   6.906 128.409  0.00  0.00    +0.000 A 
ATOM     17  N   UNL     1     -11.227   6.553 129.499  0.00  0.00    +0.000 N 
BRANCH  14  18
ATOM     18  C   UNL     1     -13.357   9.624 128.807  0.00  0.00    +0.000 C 
BRANCH  18  19
ATOM     19  C   UNL     1     -13.240  10.650 129.923  0.00  0.00    +0.000 C 
BRANCH  19  20
ATOM     20  O   UNL     1     -13.307  11.975 129.455  0.00  0.00    +0.000 OA
ATOM     21  H   UNL     1     -13.976  12.432 129.997  0.00  0.00    +0.000 HD
ENDBRANCH  19  20
ENDBRANCH  18  19
ENDBRANCH  14  18
ENDBRANCH   1  17
TORSDOF 5
ENDMDL
MODEL 3
REMARK VINA RESULT:      -6.1      8.614     10.264
REMARK  Name = Thiamine
REMARK  7 active torsions:
REMARK  status: ('A' for Active; 'I' for Inactive)
REMARK    1  A    between atoms: C_1  and  C_2
REMARK    2  A    between atoms: C_3  and  C_4
REMARK    3  A    between atoms: C_4  and  C_5
REMARK    4  A    between atoms: C_5  and  O_6
REMARK    5  A    between atoms: N_9  and  C_10
REMARK    6  A    between atoms: C_10  and  C_11
REMARK    7  A    between atoms: C_14  and  C_15
REMARK                            x       y       z     vdW  Elec       q    Type
REMARK                         _______ _______ _______ _____ _____    ______ ____
ROOT
ATOM      1  C   UNL     1     -10.951   5.250 130.347  0.00  0.00    +0.000 C 
ENDROOT
BRANCH   1   2
ATOM      2  C   UNL     1      -9.832   5.284 131.328  0.00  0.00    +0.000 A 
ATOM      3  C   UNL     1      -9.814   6.214 132.350  0.00  0.00    +0.000 A 
ATOM      4  N   UNL     1      -9.017   6.131 133.422  0.00  0.00    +0.000 NA
ATOM      5  C   UNL     1      -8.151   5.099 133.454  0.00  0.00    +0.000 A 
ATOM      6  C   UNL     1      -7.262   4.974 134.653  0.00  0.00    +0.000 C 
ATOM      7  N   UNL     1      -8.059   4.174 132.479  0.00  0.00    +0.000 NA
ATOM      8  C   UNL     1      -8.870   4.284 131.417  0.00  0.00    +0.000 A 
ATOM      9  N   UNL     1      -8.791   3.258 130.483  0.00  0.00    +0.000 N 
ATOM     10  H   UNL     1      -8.204   2.521 130.890  0.00  0.00    +0.000 HD
ATOM     11  H   UNL     1      -9.638   2.855 130.109  0.00  0.00    +0.000 HD
ENDBRANCH   1   2
BRANCH   1  17
ATOM     12  C   UNL     1     -13.196   7.335 131.090  0.00  0.00    +0.000 C 
ATOM     13  C   UNL     1     -12.274   7.499 129.939  0.00  0.00    +0.000 A 
ATOM     14  C   UNL     1     -12.315   8.507 128.987  0.00  0.00    +0.000 A 
ATOM     15  S   UNL     1     -11.025   8.314 127.867  0.00  0.00    +0.000 S 
ATOM     16  C   UNL     1     -10.505   6.876 128.622  0.00  0.00    +0.000 A 
ATOM     17  N   UNL     1     -11.271   6.546 129.657  0.00  0.00    +0.000 N 
BRANCH  14  18
ATOM     18  C   UNL     1     -13.254   9.674 128.801  0.00  0.00    +0.000 C 
BRANCH  18  19
ATOM     19  C   UNL     1     -13.224  10.678 129.942  0.00  0.00    +0.000 C 
BRANCH  19  20
ATOM     20  O   UNL     1     -13.314  12.011 129.499  0.00  0.00    +0.000 OA
ATOM     21  H   UNL     1     -14.254  12.262 129.547  0.00  0.00    +0.000 HD
ENDBRANCH  19  20
ENDBRANCH  18  19
ENDBRANCH  14  18
ENDBRANCH   1  17
TORSDOF 5
ENDMDL
MODEL 4
REMARK VINA RESULT:      -5.8      3.389      6.413
REMARK  Name = Thiamine
REMARK  7 active torsions:
REMARK  status: ('A' for Active; 'I' for Inactive)
REMARK    1  A    between atoms: C_1  and  C_2
REMARK    2  A    between atoms: C_3  and  C_4
REMARK    3  A    between atoms: C_4  and  C_5
REMARK    4  A    between atoms: C_5  and  O_6
REMARK    5  A    between atoms: N_9  and  C_10
REMARK    6  A    between atoms: C_10  and  C_11
REMARK    7  A    between atoms: C_14  and  C_15
REMARK                            x       y       z     vdW  Elec       q    Type
REMARK                         _______ _______ _______ _____ _____    ______ ____
ROOT
ATOM      1  C   UNL     1      -7.757   2.921 124.140  0.00  0.00    +0.000 C 
ENDROOT
BRANCH   1   2
ATOM      2  C   UNL     1      -7.001   3.333 122.926  0.00  0.00    +0.000 A 
ATOM      3  C   UNL     1      -7.574   3.242 121.671  0.00  0.00    +0.000 A 
ATOM      4  N   UNL     1      -7.085   3.848 120.583  0.00  0.00    +0.000 NA
ATOM      5  C   UNL     1      -5.938   4.536 120.735  0.00  0.00    +0.000 A 
ATOM      6  C   UNL     1      -5.383   5.240 119.535  0.00  0.00    +0.000 C 
ATOM      7  N   UNL     1      -5.280   4.637 121.907  0.00  0.00    +0.000 NA
ATOM      8  C   UNL     1      -5.792   4.018 122.980  0.00  0.00    +0.000 A 
ATOM      9  N   UNL     1      -5.120   4.223 124.179  0.00  0.00    +0.000 N 
ATOM     10  H   UNL     1      -4.420   4.957 124.014  0.00  0.00    +0.000 HD
ATOM     11  H   UNL     1      -5.643   4.430 125.017  0.00  0.00    +0.000 HD
ENDBRANCH   1   2
BRANCH   1  17
ATOM     12  C   UNL     1     -10.261   1.055 124.565  0.00  0.00    +0.000 C 
ATOM     13  C   UNL     1      -8.859   0.580 124.668  0.00  0.00    +0.000 A 
ATOM     14  C   UNL     1      -8.443  -0.687 125.048  0.00  0.00    +0.000 A 
ATOM     15  S   UNL     1      -6.729  -0.790 124.984  0.00  0.00    +0.000 S 
ATOM     16  C   UNL     1      -6.587   0.848 124.535  0.00  0.00    +0.000 A 
ATOM     17  N   UNL     1      -7.769   1.451 124.452  0.00  0.00    +0.000 N 
BRANCH  14  18
ATOM     18  C   UNL     1      -9.217  -1.911 125.477  0.00  0.00    +0.000 C 
BRANCH  18  19
ATOM     19  C   UNL     1      -9.107  -3.080 124.510  0.00  0.00    +0.000 C 
BRANCH  19  20
ATOM     20  O   UNL     1     -10.047  -3.014 123.465  0.00  0.00    +0.000 OA
ATOM     21  H   UNL     1     -10.918  -2.870 123.877  0.00  0.00    +0.000 HD
ENDBRANCH  19  20
ENDBRANCH  18  19
ENDBRANCH  14  18
ENDBRANCH   1  17
TORSDOF 5
ENDMDL
MODEL 5
REMARK VINA RESULT:      -5.7      4.030      6.346
REMARK  Name = Thiamine
REMARK  7 active torsions:
REMARK  status: ('A' for Active; 'I' for Inactive)
REMARK    1  A    between atoms: C_1  and  C_2
REMARK    2  A    between atoms: C_3  and  C_4
REMARK    3  A    between atoms: C_4  and  C_5
REMARK    4  A    between atoms: C_5  and  O_6
REMARK    5  A    between atoms: N_9  and  C_10
REMARK    6  A    between atoms: C_10  and  C_11
REMARK    7  A    between atoms: C_14  and  C_15
REMARK                            x       y       z     vdW  Elec       q    Type
REMARK                         _______ _______ _______ _____ _____    ______ ____
ROOT
ATOM      1  C   UNL     1      -8.616  -0.530 125.631  0.00  0.00    +0.000 C 
ENDROOT
BRANCH   1   2
ATOM      2  C   UNL     1      -8.394   0.937 125.752  0.00  0.00    +0.000 A 
ATOM      3  C   UNL     1      -7.282   1.432 126.406  0.00  0.00    +0.000 A 
ATOM      4  N   UNL     1      -6.863   2.700 126.310  0.00  0.00    +0.000 NA
ATOM      5  C   UNL     1      -7.620   3.534 125.571  0.00  0.00    +0.000 A 
ATOM      6  C   UNL     1      -7.161   4.953 125.433  0.00  0.00    +0.000 C 
ATOM      7  N   UNL     1      -8.749   3.153 124.941  0.00  0.00    +0.000 NA
ATOM      8  C   UNL     1      -9.144   1.878 125.056  0.00  0.00    +0.000 A 
ATOM      9  N   UNL     1     -10.267   1.520 124.320  0.00  0.00    +0.000 N 
ATOM     10  H   UNL     1     -10.487   2.308 123.699  0.00  0.00    +0.000 HD
ATOM     11  H   UNL     1     -10.268   0.658 123.795  0.00  0.00    +0.000 HD
ENDBRANCH   1   2
BRANCH   1  17
ATOM     12  C   UNL     1      -6.122  -2.307 126.382  0.00  0.00    +0.000 C 
ATOM     13  C   UNL     1      -6.561  -2.059 124.986  0.00  0.00    +0.000 A 
ATOM     14  C   UNL     1      -5.911  -2.471 123.832  0.00  0.00    +0.000 A 
ATOM     15  S   UNL     1      -6.807  -1.991 122.446  0.00  0.00    +0.000 S 
ATOM     16  C   UNL     1      -7.972  -1.193 123.402  0.00  0.00    +0.000 A 
ATOM     17  N   UNL     1      -7.696  -1.269 124.700  0.00  0.00    +0.000 N 
BRANCH  14  18
ATOM     18  C   UNL     1      -4.625  -3.234 123.623  0.00  0.00    +0.000 C 
BRANCH  18  19
ATOM     19  C   UNL     1      -4.748  -4.730 123.869  0.00  0.00    +0.000 C 
BRANCH  19  20
ATOM     20  O   UNL     1      -4.064  -5.498 122.909  0.00  0.00    +0.000 OA
ATOM     21  H   UNL     1      -3.428  -6.055 123.393  0.00  0.00    +0.000 HD
ENDBRANCH  19  20
ENDBRANCH  18  19
ENDBRANCH  14  18
ENDBRANCH   1  17
TORSDOF 5
ENDMDL
MODEL 6
REMARK VINA RESULT:      -5.7      8.149      9.293
REMARK  Name = Thiamine
REMARK  7 active torsions:
REMARK  status: ('A' for Active; 'I' for Inactive)
REMARK    1  A    between atoms: C_1  and  C_2
REMARK    2  A    between atoms: C_3  and  C_4
REMARK    3  A    between atoms: C_4  and  C_5
REMARK    4  A    between atoms: C_5  and  O_6
REMARK    5  A    between atoms: N_9  and  C_10
REMARK    6  A    between atoms: C_10  and  C_11
REMARK    7  A    between atoms: C_14  and  C_15
REMARK                            x       y       z     vdW  Elec       q    Type
REMARK                         _______ _______ _______ _____ _____    ______ ____
ROOT
ATOM      1  C   UNL     1      -9.884   6.415 131.374  0.00  0.00    +0.000 C 
ENDROOT
BRANCH   1   2
ATOM      2  C   UNL     1      -9.213   5.157 130.946  0.00  0.00    +0.000 A 
ATOM      3  C   UNL     1      -7.838   5.027 131.024  0.00  0.00    +0.000 A 
ATOM      4  N   UNL     1      -7.193   3.858 130.939  0.00  0.00    +0.000 NA
ATOM      5  C   UNL     1      -7.947   2.765 130.709  0.00  0.00    +0.000 A 
ATOM      6  C   UNL     1      -7.250   1.442 130.629  0.00  0.00    +0.000 C 
ATOM      7  N   UNL     1      -9.287   2.802 130.566  0.00  0.00    +0.000 NA
ATOM      8  C   UNL     1      -9.905   3.987 130.655  0.00  0.00    +0.000 A 
ATOM      9  N   UNL     1     -11.293   3.957 130.582  0.00  0.00    +0.000 N 
ATOM     10  H   UNL     1     -11.577   2.971 130.622  0.00  0.00    +0.000 HD
ATOM     11  H   UNL     1     -11.840   4.499 131.235  0.00  0.00    +0.000 HD
ENDBRANCH   1   2
BRANCH   1  17
ATOM     12  C   UNL     1     -12.914   7.280 131.280  0.00  0.00    +0.000 C 
ATOM     13  C   UNL     1     -11.941   7.587 130.203  0.00  0.00    +0.000 A 
ATOM     14  C   UNL     1     -12.220   8.194 128.987  0.00  0.00    +0.000 A 
ATOM     15  S   UNL     1     -10.776   8.382 128.075  0.00  0.00    +0.000 S 
ATOM     16  C   UNL     1      -9.848   7.594 129.269  0.00  0.00    +0.000 A 
ATOM     17  N   UNL     1     -10.588   7.194 130.298  0.00  0.00    +0.000 N 
BRANCH  14  18
ATOM     18  C   UNL     1     -13.514   8.687 128.386  0.00  0.00    +0.000 C 
BRANCH  18  19
ATOM     19  C   UNL     1     -13.743  10.181 128.554  0.00  0.00    +0.000 C 
BRANCH  19  20
ATOM     20  O   UNL     1     -13.091  10.710 129.683  0.00  0.00    +0.000 OA
ATOM     21  H   UNL     1     -13.771  11.158 130.218  0.00  0.00    +0.000 HD
ENDBRANCH  19  20
ENDBRANCH  18  19
ENDBRANCH  14  18
ENDBRANCH   1  17
TORSDOF 5
ENDMDL
MODEL 7
REMARK VINA RESULT:      -5.7      3.066      4.208
REMARK  Name = Thiamine
REMARK  7 active torsions:
REMARK  status: ('A' for Active; 'I' for Inactive)
REMARK    1  A    between atoms: C_1  and  C_2
REMARK    2  A    between atoms: C_3  and  C_4
REMARK    3  A    between atoms: C_4  and  C_5
REMARK    4  A    between atoms: C_5  and  O_6
REMARK    5  A    between atoms: N_9  and  C_10
REMARK    6  A    between atoms: C_10  and  C_11
REMARK    7  A    between atoms: C_14  and  C_15
REMARK                            x       y       z     vdW  Elec       q    Type
REMARK                         _______ _______ _______ _____ _____    ______ ____
ROOT
ATOM      1  C   UNL     1      -8.728  -0.931 123.514  0.00  0.00    +0.000 C 
ENDROOT
BRANCH   1   2
ATOM      2  C   UNL     1      -7.675  -1.979 123.419  0.00  0.00    +0.000 A 
ATOM      3  C   UNL     1      -6.488  -1.730 122.754  0.00  0.00    +0.000 A 
ATOM      4  N   UNL     1      -5.395  -2.494 122.869  0.00  0.00    +0.000 NA
ATOM      5  C   UNL     1      -5.502  -3.594 123.640  0.00  0.00    +0.000 A 
ATOM      6  C   UNL     1      -4.286  -4.454 123.798  0.00  0.00    +0.000 C 
ATOM      7  N   UNL     1      -6.633  -3.945 124.284  0.00  0.00    +0.000 NA
ATOM      8  C   UNL     1      -7.712  -3.161 124.149  0.00  0.00    +0.000 A 
ATOM      9  N   UNL     1      -8.824  -3.524 124.899  0.00  0.00    +0.000 N 
ATOM     10  H   UNL     1      -8.528  -4.269 125.541  0.00  0.00    +0.000 HD
ATOM     11  H   UNL     1      -9.338  -2.818 125.407  0.00  0.00    +0.000 HD
ENDBRANCH   1   2
BRANCH   1  17
ATOM     12  C   UNL     1      -7.160   1.783 123.185  0.00  0.00    +0.000 C 
ATOM     13  C   UNL     1      -7.805   1.359 124.451  0.00  0.00    +0.000 A 
ATOM     14  C   UNL     1      -7.740   2.016 125.671  0.00  0.00    +0.000 A 
ATOM     15  S   UNL     1      -8.674   1.177 126.845  0.00  0.00    +0.000 S 
ATOM     16  C   UNL     1      -9.068  -0.058 125.737  0.00  0.00    +0.000 A 
ATOM     17  N   UNL     1      -8.513   0.140 124.545  0.00  0.00    +0.000 N 
BRANCH  14  18
ATOM     18  C   UNL     1      -7.026   3.277 126.094  0.00  0.00    +0.000 C 
BRANCH  18  19
ATOM     19  C   UNL     1      -7.642   4.552 125.538  0.00  0.00    +0.000 C 
BRANCH  19  20
ATOM     20  O   UNL     1      -9.046   4.498 125.477  0.00  0.00    +0.000 OA
ATOM     21  H   UNL     1      -9.376   5.360 125.788  0.00  0.00    +0.000 HD
ENDBRANCH  19  20
ENDBRANCH  18  19
ENDBRANCH  14  18
ENDBRANCH   1  17
TORSDOF 5
ENDMDL
MODEL 8
REMARK VINA RESULT:      -5.6      8.902     10.867
REMARK  Name = Thiamine
REMARK  7 active torsions:
REMARK  status: ('A' for Active; 'I' for Inactive)
REMARK    1  A    between atoms: C_1  and  C_2
REMARK    2  A    between atoms: C_3  and  C_4
REMARK    3  A    between atoms: C_4  and  C_5
REMARK    4  A    between atoms: C_5  and  O_6
REMARK    5  A    between atoms: N_9  and  C_10
REMARK    6  A    between atoms: C_10  and  C_11
REMARK    7  A    between atoms: C_14  and  C_15
REMARK                            x       y       z     vdW  Elec       q    Type
REMARK                         _______ _______ _______ _____ _____    ______ ____
ROOT
ATOM      1  C   UNL     1     -11.771   5.775 129.531  0.00  0.00    +0.000 C 
ENDROOT
BRANCH   1   2
ATOM      2  C   UNL     1     -12.431   7.106 129.613  0.00  0.00    +0.000 A 
ATOM      3  C   UNL     1     -12.809   7.634 130.834  0.00  0.00    +0.000 A 
ATOM      4  N   UNL     1     -13.135   8.919 131.023  0.00  0.00    +0.000 NA
ATOM      5  C   UNL     1     -13.140   9.709 129.932  0.00  0.00    +0.000 A 
ATOM      6  C   UNL     1     -13.482  11.155 130.122  0.00  0.00    +0.000 C 
ATOM      7  N   UNL     1     -12.837   9.272 128.694  0.00  0.00    +0.000 NA
ATOM      8  C   UNL     1     -12.516   7.980 128.536  0.00  0.00    +0.000 A 
ATOM      9  N   UNL     1     -12.133   7.602 127.255  0.00  0.00    +0.000 N 
ATOM     10  H   UNL     1     -12.032   8.461 126.701  0.00  0.00    +0.000 HD
ATOM     11  H   UNL     1     -11.321   7.014 127.128  0.00  0.00    +0.000 HD
ENDBRANCH   1   2
BRANCH   1  17
ATOM     12  C   UNL     1     -10.594   3.117 130.750  0.00  0.00    +0.000 C 
ATOM     13  C   UNL     1      -9.953   4.445 130.910  0.00  0.00    +0.000 A 
ATOM     14  C   UNL     1      -8.831   4.733 131.673  0.00  0.00    +0.000 A 
ATOM     15  S   UNL     1      -8.427   6.397 131.526  0.00  0.00    +0.000 S 
ATOM     16  C   UNL     1      -9.779   6.699 130.531  0.00  0.00    +0.000 A 
ATOM     17  N   UNL     1     -10.509   5.606 130.330  0.00  0.00    +0.000 N 
BRANCH  14  18
ATOM     18  C   UNL     1      -7.964   3.862 132.550  0.00  0.00    +0.000 C 
BRANCH  18  19
ATOM     19  C   UNL     1      -8.439   3.772 133.992  0.00  0.00    +0.000 C 
BRANCH  19  20
ATOM     20  O   UNL     1      -9.818   4.014 134.128  0.00  0.00    +0.000 OA
ATOM     21  H   UNL     1     -10.049   3.819 135.055  0.00  0.00    +0.000 HD
ENDBRANCH  19  20
ENDBRANCH  18  19
ENDBRANCH  14  18
ENDBRANCH   1  17
TORSDOF 5
ENDMDL
MODEL 9
REMARK VINA RESULT:      -5.6      3.380      6.344
REMARK  Name = Thiamine
REMARK  7 active torsions:
REMARK  status: ('A' for Active; 'I' for Inactive)
REMARK    1  A    between atoms: C_1  and  C_2
REMARK    2  A    between atoms: C_3  and  C_4
REMARK    3  A    between atoms: C_4  and  C_5
REMARK    4  A    between atoms: C_5  and  O_6
REMARK    5  A    between atoms: N_9  and  C_10
REMARK    6  A    between atoms: C_10  and  C_11
REMARK    7  A    between atoms: C_14  and  C_15
REMARK                            x       y       z     vdW  Elec       q    Type
REMARK                         _______ _______ _______ _____ _____    ______ ____
ROOT
ATOM      1  C   UNL     1      -7.653   2.523 125.152  0.00  0.00    +0.000 C 
ENDROOT
BRANCH   1   2
ATOM      2  C   UNL     1      -7.227   3.229 123.913  0.00  0.00    +0.000 A 
ATOM      3  C   UNL     1      -6.031   3.920 123.869  0.00  0.00    +0.000 A 
ATOM      4  N   UNL     1      -5.446   4.328 122.736  0.00  0.00    +0.000 NA
ATOM      5  C   UNL     1      -6.111   4.087 121.589  0.00  0.00    +0.000 A 
ATOM      6  C   UNL     1      -5.467   4.516 120.307  0.00  0.00    +0.000 C 
ATOM      7  N   UNL     1      -7.307   3.467 121.539  0.00  0.00    +0.000 NA
ATOM      8  C   UNL     1      -7.869   3.071 122.690  0.00  0.00    +0.000 A 
ATOM      9  N   UNL     1      -9.060   2.365 122.574  0.00  0.00    +0.000 N 
ATOM     10  H   UNL     1      -9.195   2.158 121.577  0.00  0.00    +0.000 HD
ATOM     11  H   UNL     1      -9.201   1.528 123.120  0.00  0.00    +0.000 HD
ENDBRANCH   1   2
BRANCH   1  17
ATOM     12  C   UNL     1      -9.997   0.450 125.539  0.00  0.00    +0.000 C 
ATOM     13  C   UNL     1      -8.584   0.057 125.312  0.00  0.00    +0.000 A 
ATOM     14  C   UNL     1      -8.074  -1.233 125.330  0.00  0.00    +0.000 A 
ATOM     15  S   UNL     1      -6.393  -1.209 124.976  0.00  0.00    +0.000 S 
ATOM     16  C   UNL     1      -6.375   0.494 124.886  0.00  0.00    +0.000 A 
ATOM     17  N   UNL     1      -7.571   1.022 125.126  0.00  0.00    +0.000 N 
BRANCH  14  18
ATOM     18  C   UNL     1      -8.730  -2.568 125.592  0.00  0.00    +0.000 C 
BRANCH  18  19
ATOM     19  C   UNL     1      -8.851  -3.448 124.358  0.00  0.00    +0.000 C 
BRANCH  19  20
ATOM     20  O   UNL     1     -10.024  -3.199 123.623  0.00  0.00    +0.000 OA
ATOM     21  H   UNL     1     -10.704  -2.917 124.261  0.00  0.00    +0.000 HD
ENDBRANCH  19  20
ENDBRANCH  18  19
ENDBRANCH  14  18
ENDBRANCH   1  17
TORSDOF 5
ENDMDL
