MODEL 1
REMARK VINA RESULT:      -6.3      0.000      0.000
REMARK  Name = Thiamylal
REMARK  7 active torsions:
REMARK  status: ('A' for Active; 'I' for Inactive)
REMARK    1  A    between atoms: C_1  and  C_2
REMARK    2  A    between atoms: C_2  and  C_3
REMARK    3  A    between atoms: C_3  and  C_4
REMARK    4  A    between atoms: C_4  and  C_5
REMARK    5  A    between atoms: C_4  and  C_6
REMARK    6  A    between atoms: C_6  and  C_7
REMARK    7  A    between atoms: C_7  and  C_8
REMARK                            x       y       z     vdW  Elec       q    Type
REMARK                         _______ _______ _______ _____ _____    ______ ____
ROOT
ATOM      1  C   UNL     1      -7.609  -1.736 124.791  0.00  0.00    +0.000 C 
ATOM      2  C   UNL     1      -7.385  -0.688 125.869  0.00  0.00    +0.000 C 
ATOM      3  O   UNL     1      -7.174  -0.922 127.066  0.00  0.00    +0.000 OA
ATOM      4  N   UNL     1      -7.357   0.589 125.395  0.00  0.00    +0.000 N 
ATOM      5  C   UNL     1      -8.336   1.000 124.543  0.00  0.00    +0.000 C 
ATOM      6  S   UNL     1      -8.898   2.559 124.544  0.00  0.00    +0.000 S 
ATOM      7  N   UNL     1      -8.795   0.065 123.661  0.00  0.00    +0.000 N 
ATOM      8  C   UNL     1      -8.768  -1.288 123.903  0.00  0.00    +0.000 C 
ATOM      9  O   UNL     1      -9.601  -2.037 123.389  0.00  0.00    +0.000 OA
ATOM     10  H   UNL     1      -6.893   1.281 125.965  0.00  0.00    +0.000 HD
ATOM     11  H   UNL     1      -9.215   0.373 122.794  0.00  0.00    +0.000 HD
ENDROOT
BRANCH   1  12
ATOM     12  C   UNL     1      -6.276  -1.808 123.925  0.00  0.00    +0.000 C 
ATOM     13  C   UNL     1      -6.593  -2.032 122.432  0.00  0.00    +0.000 C 
BRANCH  12  14
ATOM     14  C   UNL     1      -5.281  -2.877 124.421  0.00  0.00    +0.000 C 
BRANCH  14  16
ATOM     15  C   UNL     1      -4.361  -4.958 123.493  0.00  0.00    +0.000 C 
ATOM     16  C   UNL     1      -4.335  -3.442 123.386  0.00  0.00    +0.000 C 
ENDBRANCH  14  16
ENDBRANCH  12  14
ENDBRANCH   1  12
BRANCH   1  17
ATOM     17  C   UNL     1      -7.885  -3.127 125.401  0.00  0.00    +0.000 C 
BRANCH  17  18
ATOM     18  C   UNL     1      -9.073  -3.152 126.323  0.00  0.00    +0.000 C 
ATOM     19  C   UNL     1      -9.069  -3.788 127.498  0.00  0.00    +0.000 C 
ENDBRANCH  17  18
ENDBRANCH   1  17
TORSDOF 5
ENDMDL
MODEL 2
REMARK VINA RESULT:      -6.1      1.571      1.731
REMARK  Name = Thiamylal
REMARK  7 active torsions:
REMARK  status: ('A' for Active; 'I' for Inactive)
REMARK    1  A    between atoms: C_1  and  C_2
REMARK    2  A    between atoms: C_2  and  C_3
REMARK    3  A    between atoms: C_3  and  C_4
REMARK    4  A    between atoms: C_4  and  C_5
REMARK    5  A    between atoms: C_4  and  C_6
REMARK    6  A    between atoms: C_6  and  C_7
REMARK    7  A    between atoms: C_7  and  C_8
REMARK                            x       y       z     vdW  Elec       q    Type
REMARK                         _______ _______ _______ _____ _____    ______ ____
ROOT
ATOM      1  C   UNL     1      -7.495  -1.868 125.542  0.00  0.00    +0.000 C 
ATOM      2  C   UNL     1      -6.178  -1.421 126.155  0.00  0.00    +0.000 C 
ATOM      3  O   UNL     1      -5.548  -2.030 127.028  0.00  0.00    +0.000 OA
ATOM      4  N   UNL     1      -5.673  -0.284 125.598  0.00  0.00    +0.000 N 
ATOM      5  C   UNL     1      -6.493   0.789 125.424  0.00  0.00    +0.000 C 
ATOM      6  S   UNL     1      -5.937   2.345 125.557  0.00  0.00    +0.000 S 
ATOM      7  N   UNL     1      -7.786   0.507 125.092  0.00  0.00    +0.000 N 
ATOM      8  C   UNL     1      -8.425  -0.660 125.439  0.00  0.00    +0.000 C 
ATOM      9  O   UNL     1      -9.647  -0.687 125.597  0.00  0.00    +0.000 OA
ATOM     10  H   UNL     1      -4.682  -0.120 125.705  0.00  0.00    +0.000 HD
ATOM     11  H   UNL     1      -8.328   1.203 124.596  0.00  0.00    +0.000 HD
ENDROOT
BRANCH   1  12
ATOM     12  C   UNL     1      -7.171  -2.413 124.083  0.00  0.00    +0.000 C 
ATOM     13  C   UNL     1      -8.464  -2.761 123.318  0.00  0.00    +0.000 C 
BRANCH  12  14
ATOM     14  C   UNL     1      -6.213  -3.622 124.081  0.00  0.00    +0.000 C 
BRANCH  14  16
ATOM     15  C   UNL     1      -4.090  -4.711 123.495  0.00  0.00    +0.000 C 
ATOM     16  C   UNL     1      -4.848  -3.394 123.474  0.00  0.00    +0.000 C 
ENDBRANCH  14  16
ENDBRANCH  12  14
ENDBRANCH   1  12
BRANCH   1  17
ATOM     17  C   UNL     1      -8.148  -2.998 126.366  0.00  0.00    +0.000 C 
BRANCH  17  18
ATOM     18  C   UNL     1      -8.360  -2.642 127.812  0.00  0.00    +0.000 C 
ATOM     19  C   UNL     1      -8.558  -3.556 128.765  0.00  0.00    +0.000 C 
ENDBRANCH  17  18
ENDBRANCH   1  17
TORSDOF 5
ENDMDL
MODEL 3
REMARK VINA RESULT:      -5.9      1.225      3.820
REMARK  Name = Thiamylal
REMARK  7 active torsions:
REMARK  status: ('A' for Active; 'I' for Inactive)
REMARK    1  A    between atoms: C_1  and  C_2
REMARK    2  A    between atoms: C_2  and  C_3
REMARK    3  A    between atoms: C_3  and  C_4
REMARK    4  A    between atoms: C_4  and  C_5
REMARK    5  A    between atoms: C_4  and  C_6
REMARK    6  A    between atoms: C_6  and  C_7
REMARK    7  A    between atoms: C_7  and  C_8
REMARK                            x       y       z     vdW  Elec       q    Type
REMARK                         _______ _______ _______ _____ _____    ______ ____
ROOT
ATOM      1  C   UNL     1      -7.142  -1.922 124.795  0.00  0.00    +0.000 C 
ATOM      2  C   UNL     1      -7.449  -1.393 123.403  0.00  0.00    +0.000 C 
ATOM      3  O   UNL     1      -6.765  -1.590 122.392  0.00  0.00    +0.000 OA
ATOM      4  N   UNL     1      -8.628  -0.713 123.324  0.00  0.00    +0.000 N 
ATOM      5  C   UNL     1      -8.907   0.240 124.256  0.00  0.00    +0.000 C 
ATOM      6  S   UNL     1      -9.772   1.603 123.881  0.00  0.00    +0.000 S 
ATOM      7  N   UNL     1      -8.471  -0.016 125.524  0.00  0.00    +0.000 N 
ATOM      8  C   UNL     1      -7.382  -0.806 125.810  0.00  0.00    +0.000 C 
ATOM      9  O   UNL     1      -6.718  -0.618 126.831  0.00  0.00    +0.000 OA
ATOM     10  H   UNL     1      -9.051  -0.631 122.411  0.00  0.00    +0.000 HD
ATOM     11  H   UNL     1      -8.943   0.423 126.303  0.00  0.00    +0.000 HD
ENDROOT
BRANCH   1  12
ATOM     12  C   UNL     1      -8.153  -3.118 125.074  0.00  0.00    +0.000 C 
ATOM     13  C   UNL     1      -9.038  -3.398 123.843  0.00  0.00    +0.000 C 
BRANCH  12  14
ATOM     14  C   UNL     1      -9.036  -2.893 126.320  0.00  0.00    +0.000 C 
BRANCH  14  16
ATOM     15  C   UNL     1      -8.311  -3.246 128.640  0.00  0.00    +0.000 C 
ATOM     16  C   UNL     1      -8.915  -3.921 127.420  0.00  0.00    +0.000 C 
ENDBRANCH  14  16
ENDBRANCH  12  14
ENDBRANCH   1  12
BRANCH   1  17
ATOM     17  C   UNL     1      -5.697  -2.454 124.892  0.00  0.00    +0.000 C 
BRANCH  17  18
ATOM     18  C   UNL     1      -5.513  -3.811 124.269  0.00  0.00    +0.000 C 
ATOM     19  C   UNL     1      -4.430  -4.148 123.564  0.00  0.00    +0.000 C 
ENDBRANCH  17  18
ENDBRANCH   1  17
TORSDOF 5
ENDMDL
MODEL 4
REMARK VINA RESULT:      -5.6      2.505      3.805
REMARK  Name = Thiamylal
REMARK  7 active torsions:
REMARK  status: ('A' for Active; 'I' for Inactive)
REMARK    1  A    between atoms: C_1  and  C_2
REMARK    2  A    between atoms: C_2  and  C_3
REMARK    3  A    between atoms: C_3  and  C_4
REMARK    4  A    between atoms: C_4  and  C_5
REMARK    5  A    between atoms: C_4  and  C_6
REMARK    6  A    between atoms: C_6  and  C_7
REMARK    7  A    between atoms: C_7  and  C_8
REMARK                            x       y       z     vdW  Elec       q    Type
REMARK                         _______ _______ _______ _____ _____    ______ ____
ROOT
ATOM      1  C   UNL     1      -7.629  -1.770 124.625  0.00  0.00    +0.000 C 
ATOM      2  C   UNL     1      -8.378  -3.088 124.516  0.00  0.00    +0.000 C 
ATOM      3  O   UNL     1      -8.930  -3.518 123.496  0.00  0.00    +0.000 OA
ATOM      4  N   UNL     1      -8.337  -3.838 125.653  0.00  0.00    +0.000 N 
ATOM      5  C   UNL     1      -8.613  -3.245 126.848  0.00  0.00    +0.000 C 
ATOM      6  S   UNL     1      -9.372  -4.060 128.074  0.00  0.00    +0.000 S 
ATOM      7  N   UNL     1      -8.186  -1.955 126.988  0.00  0.00    +0.000 N 
ATOM      8  C   UNL     1      -8.022  -1.088 125.934  0.00  0.00    +0.000 C 
ATOM      9  O   UNL     1      -8.148   0.128 126.093  0.00  0.00    +0.000 OA
ATOM     10  H   UNL     1      -8.508  -4.828 125.557  0.00  0.00    +0.000 HD
ATOM     11  H   UNL     1      -8.015  -1.594 127.918  0.00  0.00    +0.000 HD
ENDROOT
BRANCH   1  12
ATOM     12  C   UNL     1      -6.076  -2.116 124.656  0.00  0.00    +0.000 C 
ATOM     13  C   UNL     1      -5.250  -0.927 125.186  0.00  0.00    +0.000 C 
BRANCH  12  14
ATOM     14  C   UNL     1      -5.526  -2.576 123.290  0.00  0.00    +0.000 C 
BRANCH  14  16
ATOM     15  C   UNL     1      -4.593  -4.808 123.720  0.00  0.00    +0.000 C 
ATOM     16  C   UNL     1      -4.248  -3.383 123.320  0.00  0.00    +0.000 C 
ENDBRANCH  14  16
ENDBRANCH  12  14
ENDBRANCH   1  12
BRANCH   1  17
ATOM     17  C   UNL     1      -7.915  -0.854 123.418  0.00  0.00    +0.000 C 
BRANCH  17  18
ATOM     18  C   UNL     1      -9.375  -0.544 123.231  0.00  0.00    +0.000 C 
ATOM     19  C   UNL     1      -9.824   0.665 122.886  0.00  0.00    +0.000 C 
ENDBRANCH  17  18
ENDBRANCH   1  17
TORSDOF 5
ENDMDL
MODEL 5
REMARK VINA RESULT:      -5.6      2.394      4.270
REMARK  Name = Thiamylal
REMARK  7 active torsions:
REMARK  status: ('A' for Active; 'I' for Inactive)
REMARK    1  A    between atoms: C_1  and  C_2
REMARK    2  A    between atoms: C_2  and  C_3
REMARK    3  A    between atoms: C_3  and  C_4
REMARK    4  A    between atoms: C_4  and  C_5
REMARK    5  A    between atoms: C_4  and  C_6
REMARK    6  A    between atoms: C_6  and  C_7
REMARK    7  A    between atoms: C_7  and  C_8
REMARK                            x       y       z     vdW  Elec       q    Type
REMARK                         _______ _______ _______ _____ _____    ______ ____
ROOT
ATOM      1  C   UNL     1      -6.895  -2.071 124.526  0.00  0.00    +0.000 C 
ATOM      2  C   UNL     1      -6.170  -1.349 125.651  0.00  0.00    +0.000 C 
ATOM      3  O   UNL     1      -5.014  -0.913 125.597  0.00  0.00    +0.000 OA
ATOM      4  N   UNL     1      -6.943  -1.138 126.753  0.00  0.00    +0.000 N 
ATOM      5  C   UNL     1      -7.673  -2.171 127.258  0.00  0.00    +0.000 C 
ATOM      6  S   UNL     1      -7.953  -2.331 128.884  0.00  0.00    +0.000 S 
ATOM      7  N   UNL     1      -8.195  -3.039 126.343  0.00  0.00    +0.000 N 
ATOM      8  C   UNL     1      -7.634  -3.274 125.110  0.00  0.00    +0.000 C 
ATOM      9  O   UNL     1      -7.783  -4.360 124.546  0.00  0.00    +0.000 OA
ATOM     10  H   UNL     1      -6.658  -0.399 127.379  0.00  0.00    +0.000 HD
ATOM     11  H   UNL     1      -9.018  -3.574 126.589  0.00  0.00    +0.000 HD
ENDROOT
BRANCH   1  12
ATOM     12  C   UNL     1      -7.948  -1.047 123.916  0.00  0.00    +0.000 C 
ATOM     13  C   UNL     1      -8.851  -1.733 122.871  0.00  0.00    +0.000 C 
BRANCH  12  14
ATOM     14  C   UNL     1      -7.295   0.211 123.306  0.00  0.00    +0.000 C 
BRANCH  14  16
ATOM     15  C   UNL     1      -9.032   1.946 123.396  0.00  0.00    +0.000 C 
ATOM     16  C   UNL     1      -7.673   1.532 123.935  0.00  0.00    +0.000 C 
ENDBRANCH  14  16
ENDBRANCH  12  14
ENDBRANCH   1  12
BRANCH   1  17
ATOM     17  C   UNL     1      -5.920  -2.510 123.414  0.00  0.00    +0.000 C 
BRANCH  17  18
ATOM     18  C   UNL     1      -4.747  -3.304 123.922  0.00  0.00    +0.000 C 
ATOM     19  C   UNL     1      -4.442  -4.523 123.469  0.00  0.00    +0.000 C 
ENDBRANCH  17  18
ENDBRANCH   1  17
TORSDOF 5
ENDMDL
MODEL 6
REMARK VINA RESULT:      -5.4      8.146     10.161
REMARK  Name = Thiamylal
REMARK  7 active torsions:
REMARK  status: ('A' for Active; 'I' for Inactive)
REMARK    1  A    between atoms: C_1  and  C_2
REMARK    2  A    between atoms: C_2  and  C_3
REMARK    3  A    between atoms: C_3  and  C_4
REMARK    4  A    between atoms: C_4  and  C_5
REMARK    5  A    between atoms: C_4  and  C_6
REMARK    6  A    between atoms: C_6  and  C_7
REMARK    7  A    between atoms: C_7  and  C_8
REMARK                            x       y       z     vdW  Elec       q    Type
REMARK                         _______ _______ _______ _____ _____    ______ ____
ROOT
ATOM      1  C   UNL     1      -8.705   5.057 131.663  0.00  0.00    +0.000 C 
ATOM      2  C   UNL     1      -9.300   5.504 130.338  0.00  0.00    +0.000 C 
ATOM      3  O   UNL     1      -8.662   5.719 129.300  0.00  0.00    +0.000 OA
ATOM      4  N   UNL     1     -10.660   5.586 130.348  0.00  0.00    +0.000 N 
ATOM      5  C   UNL     1     -11.278   6.231 131.376  0.00  0.00    +0.000 C 
ATOM      6  S   UNL     1     -12.680   7.086 131.155  0.00  0.00    +0.000 S 
ATOM      7  N   UNL     1     -10.697   6.095 132.604  0.00  0.00    +0.000 N 
ATOM      8  C   UNL     1      -9.355   5.859 132.789  0.00  0.00    +0.000 C 
ATOM      9  O   UNL     1      -8.783   6.241 133.812  0.00  0.00    +0.000 OA
ATOM     10  H   UNL     1     -11.130   5.543 129.455  0.00  0.00    +0.000 HD
ATOM     11  H   UNL     1     -11.267   6.210 133.432  0.00  0.00    +0.000 HD
ENDROOT
BRANCH   1  12
ATOM     12  C   UNL     1      -9.058   3.516 131.839  0.00  0.00    +0.000 C 
ATOM     13  C   UNL     1      -9.188   3.141 133.329  0.00  0.00    +0.000 C 
BRANCH  12  14
ATOM     14  C   UNL     1      -8.054   2.575 131.141  0.00  0.00    +0.000 C 
BRANCH  14  16
ATOM     15  C   UNL     1      -8.615   2.130 128.791  0.00  0.00    +0.000 C 
ATOM     16  C   UNL     1      -8.641   1.552 130.197  0.00  0.00    +0.000 C 
ENDBRANCH  14  16
ENDBRANCH  12  14
ENDBRANCH   1  12
BRANCH   1  17
ATOM     17  C   UNL     1      -7.171   5.225 131.681  0.00  0.00    +0.000 C 
BRANCH  17  18
ATOM     18  C   UNL     1      -6.720   6.645 131.473  0.00  0.00    +0.000 C 
ATOM     19  C   UNL     1      -5.536   6.962 130.942  0.00  0.00    +0.000 C 
ENDBRANCH  17  18
ENDBRANCH   1  17
TORSDOF 5
ENDMDL
MODEL 7
REMARK VINA RESULT:      -5.2      2.548      3.691
REMARK  Name = Thiamylal
REMARK  7 active torsions:
REMARK  status: ('A' for Active; 'I' for Inactive)
REMARK    1  A    between atoms: C_1  and  C_2
REMARK    2  A    between atoms: C_2  and  C_3
REMARK    3  A    between atoms: C_3  and  C_4
REMARK    4  A    between atoms: C_4  and  C_5
REMARK    5  A    between atoms: C_4  and  C_6
REMARK    6  A    between atoms: C_6  and  C_7
REMARK    7  A    between atoms: C_7  and  C_8
REMARK                            x       y       z     vdW  Elec       q    Type
REMARK                         _______ _______ _______ _____ _____    ______ ____
ROOT
ATOM      1  C   UNL     1      -8.676  -0.739 123.705  0.00  0.00    +0.000 C 
ATOM      2  C   UNL     1      -9.541   0.338 123.070  0.00  0.00    +0.000 C 
ATOM      3  O   UNL     1     -10.631   0.150 122.515  0.00  0.00    +0.000 OA
ATOM      4  N   UNL     1      -9.048   1.599 123.223  0.00  0.00    +0.000 N 
ATOM      5  C   UNL     1      -7.735   1.835 122.948  0.00  0.00    +0.000 C 
ATOM      6  S   UNL     1      -7.220   3.277 122.314  0.00  0.00    +0.000 S 
ATOM      7  N   UNL     1      -6.867   0.830 123.265  0.00  0.00    +0.000 N 
ATOM      8  C   UNL     1      -7.221  -0.498 123.308  0.00  0.00    +0.000 C 
ATOM      9  O   UNL     1      -6.389  -1.379 123.084  0.00  0.00    +0.000 OA
ATOM     10  H   UNL     1      -9.703   2.363 123.136  0.00  0.00    +0.000 HD
ATOM     11  H   UNL     1      -5.897   1.058 123.444  0.00  0.00    +0.000 HD
ENDROOT
BRANCH   1  12
ATOM     12  C   UNL     1      -8.827  -0.589 125.282  0.00  0.00    +0.000 C 
ATOM     13  C   UNL     1      -9.865   0.493 125.642  0.00  0.00    +0.000 C 
BRANCH  12  14
ATOM     14  C   UNL     1      -7.491  -0.300 125.998  0.00  0.00    +0.000 C 
BRANCH  14  16
ATOM     15  C   UNL     1      -7.588  -1.196 128.284  0.00  0.00    +0.000 C 
ATOM     16  C   UNL     1      -6.971  -1.388 126.908  0.00  0.00    +0.000 C 
ENDBRANCH  14  16
ENDBRANCH  12  14
ENDBRANCH   1  12
BRANCH   1  17
ATOM     17  C   UNL     1      -9.135  -2.152 123.290  0.00  0.00    +0.000 C 
BRANCH  17  18
ATOM     18  C   UNL     1      -9.173  -3.131 124.431  0.00  0.00    +0.000 C 
ATOM     19  C   UNL     1      -8.213  -4.034 124.649  0.00  0.00    +0.000 C 
ENDBRANCH  17  18
ENDBRANCH   1  17
TORSDOF 5
ENDMDL
MODEL 8
REMARK VINA RESULT:      -5.2      2.571      4.032
REMARK  Name = Thiamylal
REMARK  7 active torsions:
REMARK  status: ('A' for Active; 'I' for Inactive)
REMARK    1  A    between atoms: C_1  and  C_2
REMARK    2  A    between atoms: C_2  and  C_3
REMARK    3  A    between atoms: C_3  and  C_4
REMARK    4  A    between atoms: C_4  and  C_5
REMARK    5  A    between atoms: C_4  and  C_6
REMARK    6  A    between atoms: C_6  and  C_7
REMARK    7  A    between atoms: C_7  and  C_8
REMARK                            x       y       z     vdW  Elec       q    Type
REMARK                         _______ _______ _______ _____ _____    ______ ____
ROOT
ATOM      1  C   UNL     1      -7.523  -0.913 125.306  0.00  0.00    +0.000 C 
ATOM      2  C   UNL     1      -8.782  -1.538 125.886  0.00  0.00    +0.000 C 
ATOM      3  O   UNL     1      -9.939  -1.168 125.656  0.00  0.00    +0.000 OA
ATOM      4  N   UNL     1      -8.542  -2.635 126.659  0.00  0.00    +0.000 N 
ATOM      5  C   UNL     1      -7.571  -2.575 127.611  0.00  0.00    +0.000 C 
ATOM      6  S   UNL     1      -7.702  -3.394 129.046  0.00  0.00    +0.000 S 
ATOM      7  N   UNL     1      -6.467  -1.838 127.295  0.00  0.00    +0.000 N 
ATOM      8  C   UNL     1      -6.483  -0.781 126.416  0.00  0.00    +0.000 C 
ATOM      9  O   UNL     1      -5.678   0.146 126.530  0.00  0.00    +0.000 OA
ATOM     10  H   UNL     1      -9.309  -3.279 126.793  0.00  0.00    +0.000 HD
ATOM     11  H   UNL     1      -5.590  -2.047 127.754  0.00  0.00    +0.000 HD
ENDROOT
BRANCH   1  12
ATOM     12  C   UNL     1      -6.981  -1.907 124.188  0.00  0.00    +0.000 C 
ATOM     13  C   UNL     1      -8.023  -2.994 123.856  0.00  0.00    +0.000 C 
BRANCH  12  14
ATOM     14  C   UNL     1      -5.633  -2.562 124.555  0.00  0.00    +0.000 C 
BRANCH  14  16
ATOM     15  C   UNL     1      -4.458  -4.553 123.724  0.00  0.00    +0.000 C 
ATOM     16  C   UNL     1      -4.821  -3.112 123.405  0.00  0.00    +0.000 C 
ENDBRANCH  14  16
ENDBRANCH  12  14
ENDBRANCH   1  12
BRANCH   1  17
ATOM     17  C   UNL     1      -7.817   0.456 124.659  0.00  0.00    +0.000 C 
BRANCH  17  18
ATOM     18  C   UNL     1      -7.104   0.669 123.351  0.00  0.00    +0.000 C 
ATOM     19  C   UNL     1      -6.835   1.880 122.857  0.00  0.00    +0.000 C 
ENDBRANCH  17  18
ENDBRANCH   1  17
TORSDOF 5
ENDMDL
MODEL 9
REMARK VINA RESULT:      -5.1      2.863      4.769
REMARK  Name = Thiamylal
REMARK  7 active torsions:
REMARK  status: ('A' for Active; 'I' for Inactive)
REMARK    1  A    between atoms: C_1  and  C_2
REMARK    2  A    between atoms: C_2  and  C_3
REMARK    3  A    between atoms: C_3  and  C_4
REMARK    4  A    between atoms: C_4  and  C_5
REMARK    5  A    between atoms: C_4  and  C_6
REMARK    6  A    between atoms: C_6  and  C_7
REMARK    7  A    between atoms: C_7  and  C_8
REMARK                            x       y       z     vdW  Elec       q    Type
REMARK                         _______ _______ _______ _____ _____    ______ ____
ROOT
ATOM      1  C   UNL     1      -7.336  -2.065 125.721  0.00  0.00    +0.000 C 
ATOM      2  C   UNL     1      -7.623  -3.216 124.771  0.00  0.00    +0.000 C 
ATOM      3  O   UNL     1      -8.666  -3.881 124.743  0.00  0.00    +0.000 OA
ATOM      4  N   UNL     1      -6.636  -3.431 123.857  0.00  0.00    +0.000 N 
ATOM      5  C   UNL     1      -5.342  -3.489 124.280  0.00  0.00    +0.000 C 
ATOM      6  S   UNL     1      -4.229  -4.480 123.555  0.00  0.00    +0.000 S 
ATOM      7  N   UNL     1      -5.010  -2.652 125.305  0.00  0.00    +0.000 N 
ATOM      8  C   UNL     1      -5.908  -2.204 126.245  0.00  0.00    +0.000 C 
ATOM      9  O   UNL     1      -5.535  -1.911 127.383  0.00  0.00    +0.000 OA
ATOM     10  H   UNL     1      -6.889  -3.927 123.015  0.00  0.00    +0.000 HD
ATOM     11  H   UNL     1      -4.044  -2.368 125.413  0.00  0.00    +0.000 HD
ENDROOT
BRANCH   1  12
ATOM     12  C   UNL     1      -7.461  -0.721 124.879  0.00  0.00    +0.000 C 
ATOM     13  C   UNL     1      -6.804   0.463 125.617  0.00  0.00    +0.000 C 
BRANCH  12  14
ATOM     14  C   UNL     1      -8.916  -0.369 124.503  0.00  0.00    +0.000 C 
BRANCH  14  16
ATOM     15  C   UNL     1      -9.802   1.780 123.707  0.00  0.00    +0.000 C 
ATOM     16  C   UNL     1      -9.411   0.989 124.944  0.00  0.00    +0.000 C 
ENDBRANCH  14  16
ENDBRANCH  12  14
ENDBRANCH   1  12
BRANCH   1  17
ATOM     17  C   UNL     1      -8.348  -2.024 126.885  0.00  0.00    +0.000 C 
BRANCH  17  18
ATOM     18  C   UNL     1      -8.172  -3.143 127.874  0.00  0.00    +0.000 C 
ATOM     19  C   UNL     1      -9.136  -4.024 128.156  0.00  0.00    +0.000 C 
ENDBRANCH  17  18
ENDBRANCH   1  17
TORSDOF 5
ENDMDL
