MODEL 1
REMARK VINA RESULT:      -6.1      0.000      0.000
REMARK  Name = Thiabendazole
REMARK  1 active torsions:
REMARK  status: ('A' for Active; 'I' for Inactive)
REMARK    1  A    between atoms: C_9  and  C_10
REMARK                            x       y       z     vdW  Elec       q    Type
REMARK                         _______ _______ _______ _____ _____    ______ ____
ROOT
ATOM      1  N   UNL     1     -10.319   6.558 130.958  0.00  0.00    +0.000 N 
ATOM      2  C   UNL     1     -11.268   7.096 130.125  0.00  0.00    +0.000 A 
ATOM      3  C   UNL     1     -12.660   6.993 130.095  0.00  0.00    +0.000 A 
ATOM      4  C   UNL     1     -13.314   7.656 129.049  0.00  0.00    +0.000 A 
ATOM      5  C   UNL     1     -12.601   8.375 128.086  0.00  0.00    +0.000 A 
ATOM      6  C   UNL     1     -11.205   8.474 128.151  0.00  0.00    +0.000 A 
ATOM      7  C   UNL     1     -10.535   7.841 129.209  0.00  0.00    +0.000 A 
ATOM      8  N   UNL     1      -9.200   7.845 129.537  0.00  0.00    +0.000 NA
ATOM      9  C   UNL     1      -9.094   7.032 130.564  0.00  0.00    +0.000 A 
ATOM     10  H   UNL     1     -10.481   5.993 131.774  0.00  0.00    +0.000 HD
ENDROOT
BRANCH   9  11
ATOM     11  C   UNL     1      -7.830   6.675 131.258  0.00  0.00    +0.000 A 
ATOM     12  C   UNL     1      -7.816   5.966 132.441  0.00  0.00    +0.000 A 
ATOM     13  S   UNL     1      -6.197   5.740 132.956  0.00  0.00    +0.000 S 
ATOM     14  C   UNL     1      -5.661   6.633 131.591  0.00  0.00    +0.000 A 
ATOM     15  N   UNL     1      -6.590   6.988 130.728  0.00  0.00    +0.000 NA
ENDBRANCH   9  11
TORSDOF 1
ENDMDL
MODEL 2
REMARK VINA RESULT:      -6.0      2.493      2.912
REMARK  Name = Thiabendazole
REMARK  1 active torsions:
REMARK  status: ('A' for Active; 'I' for Inactive)
REMARK    1  A    between atoms: C_9  and  C_10
REMARK                            x       y       z     vdW  Elec       q    Type
REMARK                         _______ _______ _______ _____ _____    ______ ____
ROOT
ATOM      1  N   UNL     1     -11.228   7.092 130.751  0.00  0.00    +0.000 N 
ATOM      2  C   UNL     1     -12.065   7.645 129.815  0.00  0.00    +0.000 A 
ATOM      3  C   UNL     1     -12.462   8.961 129.569  0.00  0.00    +0.000 A 
ATOM      4  C   UNL     1     -13.386   9.153 128.535  0.00  0.00    +0.000 A 
ATOM      5  C   UNL     1     -13.885   8.076 127.797  0.00  0.00    +0.000 A 
ATOM      6  C   UNL     1     -13.456   6.768 128.056  0.00  0.00    +0.000 A 
ATOM      7  C   UNL     1     -12.508   6.560 129.068  0.00  0.00    +0.000 A 
ATOM      8  N   UNL     1     -11.879   5.403 129.466  0.00  0.00    +0.000 NA
ATOM      9  C   UNL     1     -11.150   5.745 130.505  0.00  0.00    +0.000 A 
ATOM     10  H   UNL     1     -10.684   7.581 131.441  0.00  0.00    +0.000 HD
ENDROOT
BRANCH   9  11
ATOM     11  C   UNL     1     -10.311   4.824 131.313  0.00  0.00    +0.000 A 
ATOM     12  C   UNL     1      -9.705   5.221 132.486  0.00  0.00    +0.000 A 
ATOM     13  S   UNL     1      -8.815   3.912 133.145  0.00  0.00    +0.000 S 
ATOM     14  C   UNL     1      -9.278   2.950 131.801  0.00  0.00    +0.000 A 
ATOM     15  N   UNL     1     -10.132   3.496 130.962  0.00  0.00    +0.000 NA
ENDBRANCH   9  11
TORSDOF 1
ENDMDL
MODEL 3
REMARK VINA RESULT:      -6.0      2.713      5.544
REMARK  Name = Thiabendazole
REMARK  1 active torsions:
REMARK  status: ('A' for Active; 'I' for Inactive)
REMARK    1  A    between atoms: C_9  and  C_10
REMARK                            x       y       z     vdW  Elec       q    Type
REMARK                         _______ _______ _______ _____ _____    ______ ____
ROOT
ATOM      1  N   UNL     1     -10.464   6.420 131.451  0.00  0.00    +0.000 N 
ATOM      2  C   UNL     1      -9.179   6.221 131.889  0.00  0.00    +0.000 A 
ATOM      3  C   UNL     1      -8.658   5.573 133.011  0.00  0.00    +0.000 A 
ATOM      4  C   UNL     1      -7.266   5.606 133.163  0.00  0.00    +0.000 A 
ATOM      5  C   UNL     1      -6.450   6.263 132.237  0.00  0.00    +0.000 A 
ATOM      6  C   UNL     1      -7.000   6.891 131.112  0.00  0.00    +0.000 A 
ATOM      7  C   UNL     1      -8.390   6.841 130.928  0.00  0.00    +0.000 A 
ATOM      8  N   UNL     1      -9.161   7.307 129.888  0.00  0.00    +0.000 NA
ATOM      9  C   UNL     1     -10.403   7.079 130.250  0.00  0.00    +0.000 A 
ATOM     10  H   UNL     1     -11.308   6.070 131.872  0.00  0.00    +0.000 HD
ENDROOT
BRANCH   9  11
ATOM     11  C   UNL     1     -11.612   7.445 129.468  0.00  0.00    +0.000 A 
ATOM     12  C   UNL     1     -12.450   6.494 128.925  0.00  0.00    +0.000 A 
ATOM     13  S   UNL     1     -13.731   7.269 128.088  0.00  0.00    +0.000 S 
ATOM     14  C   UNL     1     -13.041   8.790 128.485  0.00  0.00    +0.000 A 
ATOM     15  N   UNL     1     -11.995   8.763 129.284  0.00  0.00    +0.000 NA
ENDBRANCH   9  11
TORSDOF 1
ENDMDL
MODEL 4
REMARK VINA RESULT:      -5.9      2.942      3.192
REMARK  Name = Thiabendazole
REMARK  1 active torsions:
REMARK  status: ('A' for Active; 'I' for Inactive)
REMARK    1  A    between atoms: C_9  and  C_10
REMARK                            x       y       z     vdW  Elec       q    Type
REMARK                         _______ _______ _______ _____ _____    ______ ____
ROOT
ATOM      1  N   UNL     1     -11.453   5.321 131.139  0.00  0.00    +0.000 N 
ATOM      2  C   UNL     1     -11.889   6.556 130.729  0.00  0.00    +0.000 A 
ATOM      3  C   UNL     1     -12.780   7.473 131.290  0.00  0.00    +0.000 A 
ATOM      4  C   UNL     1     -13.026   8.638 130.554  0.00  0.00    +0.000 A 
ATOM      5  C   UNL     1     -12.412   8.860 129.318  0.00  0.00    +0.000 A 
ATOM      6  C   UNL     1     -11.510   7.929 128.787  0.00  0.00    +0.000 A 
ATOM      7  C   UNL     1     -11.228   6.770 129.525  0.00  0.00    +0.000 A 
ATOM      8  N   UNL     1     -10.340   5.751 129.267  0.00  0.00    +0.000 NA
ATOM      9  C   UNL     1     -10.528   4.876 130.229  0.00  0.00    +0.000 A 
ATOM     10  H   UNL     1     -11.685   4.852 131.998  0.00  0.00    +0.000 HD
ENDROOT
BRANCH   9  11
ATOM     11  C   UNL     1      -9.824   3.575 130.364  0.00  0.00    +0.000 A 
ATOM     12  C   UNL     1      -9.768   2.892 131.560  0.00  0.00    +0.000 A 
ATOM     13  S   UNL     1      -8.875   1.443 131.353  0.00  0.00    +0.000 S 
ATOM     14  C   UNL     1      -8.609   1.869 129.711  0.00  0.00    +0.000 A 
ATOM     15  N   UNL     1      -9.228   2.949 129.283  0.00  0.00    +0.000 NA
ENDBRANCH   9  11
TORSDOF 1
ENDMDL
MODEL 5
REMARK VINA RESULT:      -5.8      1.897      2.511
REMARK  Name = Thiabendazole
REMARK  1 active torsions:
REMARK  status: ('A' for Active; 'I' for Inactive)
REMARK    1  A    between atoms: C_9  and  C_10
REMARK                            x       y       z     vdW  Elec       q    Type
REMARK                         _______ _______ _______ _____ _____    ______ ____
ROOT
ATOM      1  N   UNL     1      -9.560   6.985 130.522  0.00  0.00    +0.000 N 
ATOM      2  C   UNL     1     -10.549   7.481 129.709  0.00  0.00    +0.000 A 
ATOM      3  C   UNL     1     -10.513   8.279 128.565  0.00  0.00    +0.000 A 
ATOM      4  C   UNL     1     -11.749   8.635 128.011  0.00  0.00    +0.000 A 
ATOM      5  C   UNL     1     -12.951   8.213 128.585  0.00  0.00    +0.000 A 
ATOM      6  C   UNL     1     -12.955   7.399 129.725  0.00  0.00    +0.000 A 
ATOM      7  C   UNL     1     -11.726   7.007 130.276  0.00  0.00    +0.000 A 
ATOM      8  N   UNL     1     -11.458   6.166 131.331  0.00  0.00    +0.000 NA
ATOM      9  C   UNL     1     -10.154   6.207 131.483  0.00  0.00    +0.000 A 
ATOM     10  H   UNL     1      -8.568   7.085 130.397  0.00  0.00    +0.000 HD
ENDROOT
BRANCH   9  11
ATOM     11  C   UNL     1      -9.382   5.488 132.529  0.00  0.00    +0.000 A 
ATOM     12  C   UNL     1      -9.299   4.112 132.565  0.00  0.00    +0.000 A 
ATOM     13  S   UNL     1      -8.341   3.629 133.902  0.00  0.00    +0.000 S 
ATOM     14  C   UNL     1      -8.155   5.280 134.336  0.00  0.00    +0.000 A 
ATOM     15  N   UNL     1      -8.659   6.161 133.499  0.00  0.00    +0.000 NA
ENDBRANCH   9  11
TORSDOF 1
ENDMDL
MODEL 6
REMARK VINA RESULT:      -5.8      2.825      5.508
REMARK  Name = Thiabendazole
REMARK  1 active torsions:
REMARK  status: ('A' for Active; 'I' for Inactive)
REMARK    1  A    between atoms: C_9  and  C_10
REMARK                            x       y       z     vdW  Elec       q    Type
REMARK                         _______ _______ _______ _____ _____    ______ ____
ROOT
ATOM      1  N   UNL     1     -10.156   4.854 130.870  0.00  0.00    +0.000 N 
ATOM      2  C   UNL     1      -9.496   4.448 132.002  0.00  0.00    +0.000 A 
ATOM      3  C   UNL     1      -9.262   3.186 132.552  0.00  0.00    +0.000 A 
ATOM      4  C   UNL     1      -8.573   3.152 133.771  0.00  0.00    +0.000 A 
ATOM      5  C   UNL     1      -8.153   4.327 134.401  0.00  0.00    +0.000 A 
ATOM      6  C   UNL     1      -8.388   5.579 133.816  0.00  0.00    +0.000 A 
ATOM      7  C   UNL     1      -9.049   5.630 132.580  0.00  0.00    +0.000 A 
ATOM      8  N   UNL     1      -9.333   6.708 131.774  0.00  0.00    +0.000 NA
ATOM      9  C   UNL     1     -10.035   6.218 130.777  0.00  0.00    +0.000 A 
ATOM     10  H   UNL     1     -10.576   4.267 130.171  0.00  0.00    +0.000 HD
ENDROOT
BRANCH   9  11
ATOM     11  C   UNL     1     -10.613   7.004 129.658  0.00  0.00    +0.000 A 
ATOM     12  C   UNL     1     -11.925   6.860 129.259  0.00  0.00    +0.000 A 
ATOM     13  S   UNL     1     -12.245   7.911 127.943  0.00  0.00    +0.000 S 
ATOM     14  C   UNL     1     -10.610   8.434 127.993  0.00  0.00    +0.000 A 
ATOM     15  N   UNL     1      -9.880   7.966 128.983  0.00  0.00    +0.000 NA
ENDBRANCH   9  11
TORSDOF 1
ENDMDL
MODEL 7
REMARK VINA RESULT:      -5.7      8.594      9.227
REMARK  Name = Thiabendazole
REMARK  1 active torsions:
REMARK  status: ('A' for Active; 'I' for Inactive)
REMARK    1  A    between atoms: C_9  and  C_10
REMARK                            x       y       z     vdW  Elec       q    Type
REMARK                         _______ _______ _______ _____ _____    ______ ____
ROOT
ATOM      1  N   UNL     1      -6.488   3.220 122.880  0.00  0.00    +0.000 N 
ATOM      2  C   UNL     1      -6.832   3.595 121.605  0.00  0.00    +0.000 A 
ATOM      3  C   UNL     1      -6.073   4.022 120.514  0.00  0.00    +0.000 A 
ATOM      4  C   UNL     1      -6.781   4.372 119.358  0.00  0.00    +0.000 A 
ATOM      5  C   UNL     1      -8.176   4.302 119.312  0.00  0.00    +0.000 A 
ATOM      6  C   UNL     1      -8.910   3.855 120.418  0.00  0.00    +0.000 A 
ATOM      7  C   UNL     1      -8.216   3.470 121.574  0.00  0.00    +0.000 A 
ATOM      8  N   UNL     1      -8.686   2.935 122.751  0.00  0.00    +0.000 NA
ATOM      9  C   UNL     1      -7.633   2.836 123.531  0.00  0.00    +0.000 A 
ATOM     10  H   UNL     1      -5.559   3.141 123.258  0.00  0.00    +0.000 HD
ENDROOT
BRANCH   9  11
ATOM     11  C   UNL     1      -7.638   2.346 124.933  0.00  0.00    +0.000 A 
ATOM     12  C   UNL     1      -6.477   2.012 125.598  0.00  0.00    +0.000 A 
ATOM     13  S   UNL     1      -6.857   1.481 127.184  0.00  0.00    +0.000 S 
ATOM     14  C   UNL     1      -8.523   1.702 126.835  0.00  0.00    +0.000 A 
ATOM     15  N   UNL     1      -8.806   2.244 125.669  0.00  0.00    +0.000 NA
ENDBRANCH   9  11
TORSDOF 1
ENDMDL
MODEL 8
REMARK VINA RESULT:      -5.6      2.001      2.427
REMARK  Name = Thiabendazole
REMARK  1 active torsions:
REMARK  status: ('A' for Active; 'I' for Inactive)
REMARK    1  A    between atoms: C_9  and  C_10
REMARK                            x       y       z     vdW  Elec       q    Type
REMARK                         _______ _______ _______ _____ _____    ______ ____
ROOT
ATOM      1  N   UNL     1     -10.762   5.886 132.552  0.00  0.00    +0.000 N 
ATOM      2  C   UNL     1     -11.308   6.639 131.543  0.00  0.00    +0.000 A 
ATOM      3  C   UNL     1     -12.611   7.071 131.291  0.00  0.00    +0.000 A 
ATOM      4  C   UNL     1     -12.812   7.802 130.114  0.00  0.00    +0.000 A 
ATOM      5  C   UNL     1     -11.757   8.074 129.239  0.00  0.00    +0.000 A 
ATOM      6  C   UNL     1     -10.456   7.642 129.526  0.00  0.00    +0.000 A 
ATOM      7  C   UNL     1     -10.230   6.935 130.716  0.00  0.00    +0.000 A 
ATOM      8  N   UNL     1      -9.055   6.470 131.259  0.00  0.00    +0.000 NA
ATOM      9  C   UNL     1      -9.409   5.808 132.337  0.00  0.00    +0.000 A 
ATOM     10  H   UNL     1     -11.236   5.527 133.363  0.00  0.00    +0.000 HD
ENDROOT
BRANCH   9  11
ATOM     11  C   UNL     1      -8.488   5.083 133.248  0.00  0.00    +0.000 A 
ATOM     12  C   UNL     1      -7.964   3.847 132.932  0.00  0.00    +0.000 A 
ATOM     13  S   UNL     1      -6.954   3.308 134.209  0.00  0.00    +0.000 S 
ATOM     14  C   UNL     1      -7.332   4.737 135.082  0.00  0.00    +0.000 A 
ATOM     15  N   UNL     1      -8.062   5.630 134.447  0.00  0.00    +0.000 NA
ENDBRANCH   9  11
TORSDOF 1
ENDMDL
MODEL 9
REMARK VINA RESULT:      -5.5      4.049      5.968
REMARK  Name = Thiabendazole
REMARK  1 active torsions:
REMARK  status: ('A' for Active; 'I' for Inactive)
REMARK    1  A    between atoms: C_9  and  C_10
REMARK                            x       y       z     vdW  Elec       q    Type
REMARK                         _______ _______ _______ _____ _____    ______ ____
ROOT
ATOM      1  N   UNL     1     -10.647   3.759 131.528  0.00  0.00    +0.000 N 
ATOM      2  C   UNL     1      -9.879   2.667 131.210  0.00  0.00    +0.000 A 
ATOM      3  C   UNL     1      -9.598   1.483 131.894  0.00  0.00    +0.000 A 
ATOM      4  C   UNL     1      -8.716   0.593 131.270  0.00  0.00    +0.000 A 
ATOM      5  C   UNL     1      -8.145   0.886 130.029  0.00  0.00    +0.000 A 
ATOM      6  C   UNL     1      -8.458   2.076 129.358  0.00  0.00    +0.000 A 
ATOM      7  C   UNL     1      -9.364   2.965 129.954  0.00  0.00    +0.000 A 
ATOM      8  N   UNL     1      -9.886   4.146 129.478  0.00  0.00    +0.000 NA
ATOM      9  C   UNL     1     -10.618   4.621 130.461  0.00  0.00    +0.000 A 
ATOM     10  H   UNL     1     -11.214   3.880 132.349  0.00  0.00    +0.000 HD
ENDROOT
BRANCH   9  11
ATOM     11  C   UNL     1     -11.359   5.907 130.443  0.00  0.00    +0.000 A 
ATOM     12  C   UNL     1     -11.361   6.739 129.343  0.00  0.00    +0.000 A 
ATOM     13  S   UNL     1     -12.307   8.130 129.676  0.00  0.00    +0.000 S 
ATOM     14  C   UNL     1     -12.598   7.526 131.257  0.00  0.00    +0.000 A 
ATOM     15  N   UNL     1     -12.135   6.321 131.513  0.00  0.00    +0.000 NA
ENDBRANCH   9  11
TORSDOF 1
ENDMDL
