MODEL 1
REMARK VINA RESULT:      -7.0      0.000      0.000
REMARK  Name = Thiethylperazine
REMARK  8 active torsions:
REMARK  status: ('A' for Active; 'I' for Inactive)
REMARK    1  A    between atoms: C_1  and  C_2
REMARK    2  A    between atoms: C_2  and  S_3
REMARK    3  A    between atoms: S_3  and  C_4
REMARK    4  A    between atoms: N_15  and  C_16
REMARK    5  A    between atoms: C_16  and  C_17
REMARK    6  A    between atoms: C_17  and  C_18
REMARK    7  A    between atoms: C_18  and  N_19
REMARK    8  A    between atoms: N_22  and  C_23
REMARK                            x       y       z     vdW  Elec       q    Type
REMARK                         _______ _______ _______ _____ _____    ______ ____
ROOT
ATOM      1  C   UNL     1      -5.750  -3.263 129.602  0.00  0.00    +0.000 A 
ATOM      2  C   UNL     1      -5.396  -2.481 128.499  0.00  0.00    +0.000 A 
ATOM      3  C   UNL     1      -6.315  -2.215 127.467  0.00  0.00    +0.000 A 
ATOM      4  C   UNL     1      -7.642  -2.673 127.605  0.00  0.00    +0.000 A 
ATOM      5  S   UNL     1      -8.886  -2.320 126.373  0.00  0.00    +0.000 S 
ATOM      6  C   UNL     1      -7.845  -2.223 124.930  0.00  0.00    +0.000 A 
ATOM      7  C   UNL     1      -8.372  -2.558 123.684  0.00  0.00    +0.000 A 
ATOM      8  C   UNL     1      -7.578  -2.501 122.534  0.00  0.00    +0.000 A 
ATOM      9  C   UNL     1      -6.245  -2.117 122.624  0.00  0.00    +0.000 A 
ATOM     10  C   UNL     1      -5.708  -1.852 123.865  0.00  0.00    +0.000 A 
ATOM     11  C   UNL     1      -6.492  -1.858 125.025  0.00  0.00    +0.000 A 
ATOM     12  N   UNL     1      -5.846  -1.621 126.249  0.00  0.00    +0.000 N 
ATOM     13  C   UNL     1      -8.008  -3.432 128.720  0.00  0.00    +0.000 A 
ATOM     14  C   UNL     1      -7.062  -3.740 129.700  0.00  0.00    +0.000 A 
ENDROOT
BRANCH   1  15
ATOM     15  S   UNL     1      -4.622  -3.645 130.933  0.00  0.00    +0.000 S 
BRANCH  15  17
ATOM     16  C   UNL     1      -5.755  -4.775 133.135  0.00  0.00    +0.000 C 
ATOM     17  C   UNL     1      -5.370  -5.126 131.705  0.00  0.00    +0.000 C 
ENDBRANCH  15  17
ENDBRANCH   1  15
BRANCH  12  18
ATOM     18  C   UNL     1      -5.402  -0.227 126.458  0.00  0.00    +0.000 C 
BRANCH  18  19
ATOM     19  C   UNL     1      -6.419   0.924 126.446  0.00  0.00    +0.000 C 
BRANCH  19  20
ATOM     20  C   UNL     1      -6.288   1.900 125.275  0.00  0.00    +0.000 C 
BRANCH  20  21
ATOM     21  N   UNL     1      -7.552   2.200 124.620  0.00  0.00    +0.000 NA
ATOM     22  C   UNL     1      -8.634   1.352 125.170  0.00  0.00    +0.000 C 
ATOM     23  C   UNL     1      -9.992   1.707 124.514  0.00  0.00    +0.000 C 
ATOM     24  N   UNL     1     -10.002   1.720 123.029  0.00  0.00    +0.000 NA
ATOM     25  C   UNL     1      -9.930   0.365 122.482  0.00  0.00    +0.000 C 
ATOM     26  C   UNL     1      -8.842   2.486 122.554  0.00  0.00    +0.000 C 
ATOM     27  C   UNL     1      -7.539   1.968 123.167  0.00  0.00    +0.000 C 
ENDBRANCH  20  21
ENDBRANCH  19  20
ENDBRANCH  18  19
ENDBRANCH  12  18
TORSDOF 6
ENDMDL
MODEL 2
REMARK VINA RESULT:      -7.0      2.563      4.059
REMARK  Name = Thiethylperazine
REMARK  8 active torsions:
REMARK  status: ('A' for Active; 'I' for Inactive)
REMARK    1  A    between atoms: C_1  and  C_2
REMARK    2  A    between atoms: C_2  and  S_3
REMARK    3  A    between atoms: S_3  and  C_4
REMARK    4  A    between atoms: N_15  and  C_16
REMARK    5  A    between atoms: C_16  and  C_17
REMARK    6  A    between atoms: C_17  and  C_18
REMARK    7  A    between atoms: C_18  and  N_19
REMARK    8  A    between atoms: N_22  and  C_23
REMARK                            x       y       z     vdW  Elec       q    Type
REMARK                         _______ _______ _______ _____ _____    ______ ____
ROOT
ATOM      1  C   UNL     1      -6.210  -2.795 129.460  0.00  0.00    +0.000 A 
ATOM      2  C   UNL     1      -6.063  -1.914 128.385  0.00  0.00    +0.000 A 
ATOM      3  C   UNL     1      -6.982  -1.903 127.319  0.00  0.00    +0.000 A 
ATOM      4  C   UNL     1      -8.119  -2.736 127.394  0.00  0.00    +0.000 A 
ATOM      5  S   UNL     1      -9.366  -2.733 126.117  0.00  0.00    +0.000 S 
ATOM      6  C   UNL     1      -8.349  -2.295 124.720  0.00  0.00    +0.000 A 
ATOM      7  C   UNL     1      -8.709  -2.738 123.448  0.00  0.00    +0.000 A 
ATOM      8  C   UNL     1      -7.927  -2.418 122.334  0.00  0.00    +0.000 A 
ATOM      9  C   UNL     1      -6.771  -1.661 122.486  0.00  0.00    +0.000 A 
ATOM     10  C   UNL     1      -6.381  -1.283 123.752  0.00  0.00    +0.000 A 
ATOM     11  C   UNL     1      -7.169  -1.550 124.878  0.00  0.00    +0.000 A 
ATOM     12  N   UNL     1      -6.666  -1.166 126.131  0.00  0.00    +0.000 N 
ATOM     13  C   UNL     1      -8.283  -3.599 128.482  0.00  0.00    +0.000 A 
ATOM     14  C   UNL     1      -7.324  -3.640 129.496  0.00  0.00    +0.000 A 
ENDROOT
BRANCH   1  15
ATOM     15  S   UNL     1      -5.067  -2.863 130.832  0.00  0.00    +0.000 S 
BRANCH  15  17
ATOM     16  C   UNL     1      -3.017  -3.676 129.235  0.00  0.00    +0.000 C 
ATOM     17  C   UNL     1      -3.457  -2.472 130.056  0.00  0.00    +0.000 C 
ENDBRANCH  15  17
ENDBRANCH   1  15
BRANCH  12  18
ATOM     18  C   UNL     1      -6.662   0.291 126.379  0.00  0.00    +0.000 C 
BRANCH  18  19
ATOM     19  C   UNL     1      -5.362   1.099 126.251  0.00  0.00    +0.000 C 
BRANCH  19  20
ATOM     20  C   UNL     1      -5.514   2.489 125.628  0.00  0.00    +0.000 C 
BRANCH  20  21
ATOM     21  N   UNL     1      -4.525   3.448 126.093  0.00  0.00    +0.000 NA
ATOM     22  C   UNL     1      -3.370   2.749 126.700  0.00  0.00    +0.000 C 
ATOM     23  C   UNL     1      -2.290   3.766 127.147  0.00  0.00    +0.000 C 
ATOM     24  N   UNL     1      -2.773   4.880 128.003  0.00  0.00    +0.000 NA
ATOM     25  C   UNL     1      -3.097   4.414 129.352  0.00  0.00    +0.000 C 
ATOM     26  C   UNL     1      -3.981   5.454 127.396  0.00  0.00    +0.000 C 
ATOM     27  C   UNL     1      -5.033   4.379 127.114  0.00  0.00    +0.000 C 
ENDBRANCH  20  21
ENDBRANCH  19  20
ENDBRANCH  18  19
ENDBRANCH  12  18
TORSDOF 6
ENDMDL
MODEL 3
REMARK VINA RESULT:      -6.9      3.250      4.334
REMARK  Name = Thiethylperazine
REMARK  8 active torsions:
REMARK  status: ('A' for Active; 'I' for Inactive)
REMARK    1  A    between atoms: C_1  and  C_2
REMARK    2  A    between atoms: C_2  and  S_3
REMARK    3  A    between atoms: S_3  and  C_4
REMARK    4  A    between atoms: N_15  and  C_16
REMARK    5  A    between atoms: C_16  and  C_17
REMARK    6  A    between atoms: C_17  and  C_18
REMARK    7  A    between atoms: C_18  and  N_19
REMARK    8  A    between atoms: N_22  and  C_23
REMARK                            x       y       z     vdW  Elec       q    Type
REMARK                         _______ _______ _______ _____ _____    ______ ____
ROOT
ATOM      1  C   UNL     1      -6.240  -2.731 129.530  0.00  0.00    +0.000 A 
ATOM      2  C   UNL     1      -6.132  -1.829 128.467  0.00  0.00    +0.000 A 
ATOM      3  C   UNL     1      -7.045  -1.850 127.396  0.00  0.00    +0.000 A 
ATOM      4  C   UNL     1      -8.137  -2.741 127.452  0.00  0.00    +0.000 A 
ATOM      5  S   UNL     1      -9.375  -2.785 126.167  0.00  0.00    +0.000 S 
ATOM      6  C   UNL     1      -8.374  -2.275 124.783  0.00  0.00    +0.000 A 
ATOM      7  C   UNL     1      -8.704  -2.718 123.503  0.00  0.00    +0.000 A 
ATOM      8  C   UNL     1      -7.932  -2.343 122.398  0.00  0.00    +0.000 A 
ATOM      9  C   UNL     1      -6.818  -1.529 122.568  0.00  0.00    +0.000 A 
ATOM     10  C   UNL     1      -6.456  -1.150 123.841  0.00  0.00    +0.000 A 
ATOM     11  C   UNL     1      -7.235  -1.472 124.959  0.00  0.00    +0.000 A 
ATOM     12  N   UNL     1      -6.760  -1.081 126.220  0.00  0.00    +0.000 N 
ATOM     13  C   UNL     1      -8.263  -3.626 128.527  0.00  0.00    +0.000 A 
ATOM     14  C   UNL     1      -7.309  -3.632 129.547  0.00  0.00    +0.000 A 
ENDROOT
BRANCH   1  15
ATOM     15  S   UNL     1      -5.103  -2.759 130.908  0.00  0.00    +0.000 S 
BRANCH  15  17
ATOM     16  C   UNL     1      -3.103  -3.654 129.292  0.00  0.00    +0.000 C 
ATOM     17  C   UNL     1      -3.483  -2.436 130.122  0.00  0.00    +0.000 C 
ENDBRANCH  15  17
ENDBRANCH   1  15
BRANCH  12  18
ATOM     18  C   UNL     1      -6.832   0.371 126.488  0.00  0.00    +0.000 C 
BRANCH  18  19
ATOM     19  C   UNL     1      -8.054   0.971 127.201  0.00  0.00    +0.000 C 
BRANCH  19  20
ATOM     20  C   UNL     1      -7.737   1.860 128.406  0.00  0.00    +0.000 C 
BRANCH  20  21
ATOM     21  N   UNL     1      -8.677   1.709 129.505  0.00  0.00    +0.000 NA
ATOM     22  C   UNL     1      -9.129   3.035 129.986  0.00  0.00    +0.000 C 
ATOM     23  C   UNL     1     -10.172   2.877 131.121  0.00  0.00    +0.000 C 
ATOM     24  N   UNL     1      -9.771   1.990 132.243  0.00  0.00    +0.000 NA
ATOM     25  C   UNL     1      -8.746   2.617 133.078  0.00  0.00    +0.000 C 
ATOM     26  C   UNL     1      -9.233   0.741 131.689  0.00  0.00    +0.000 C 
ATOM     27  C   UNL     1      -8.120   1.010 130.674  0.00  0.00    +0.000 C 
ENDBRANCH  20  21
ENDBRANCH  19  20
ENDBRANCH  18  19
ENDBRANCH  12  18
TORSDOF 6
ENDMDL
MODEL 4
REMARK VINA RESULT:      -6.8      4.287      7.155
REMARK  Name = Thiethylperazine
REMARK  8 active torsions:
REMARK  status: ('A' for Active; 'I' for Inactive)
REMARK    1  A    between atoms: C_1  and  C_2
REMARK    2  A    between atoms: C_2  and  S_3
REMARK    3  A    between atoms: S_3  and  C_4
REMARK    4  A    between atoms: N_15  and  C_16
REMARK    5  A    between atoms: C_16  and  C_17
REMARK    6  A    between atoms: C_17  and  C_18
REMARK    7  A    between atoms: C_18  and  N_19
REMARK    8  A    between atoms: N_22  and  C_23
REMARK                            x       y       z     vdW  Elec       q    Type
REMARK                         _______ _______ _______ _____ _____    ______ ____
ROOT
ATOM      1  C   UNL     1      -7.316   0.147 125.642  0.00  0.00    +0.000 A 
ATOM      2  C   UNL     1      -6.679   1.360 125.365  0.00  0.00    +0.000 A 
ATOM      3  C   UNL     1      -7.092   2.174 124.293  0.00  0.00    +0.000 A 
ATOM      4  C   UNL     1      -8.229   1.792 123.549  0.00  0.00    +0.000 A 
ATOM      5  S   UNL     1      -8.856   2.802 122.217  0.00  0.00    +0.000 S 
ATOM      6  C   UNL     1      -7.334   3.561 121.687  0.00  0.00    +0.000 A 
ATOM      7  C   UNL     1      -7.191   3.945 120.354  0.00  0.00    +0.000 A 
ATOM      8  C   UNL     1      -6.005   4.534 119.905  0.00  0.00    +0.000 A 
ATOM      9  C   UNL     1      -4.948   4.735 120.785  0.00  0.00    +0.000 A 
ATOM     10  C   UNL     1      -5.066   4.293 122.084  0.00  0.00    +0.000 A 
ATOM     11  C   UNL     1      -6.258   3.742 122.571  0.00  0.00    +0.000 A 
ATOM     12  N   UNL     1      -6.268   3.278 123.896  0.00  0.00    +0.000 N 
ATOM     13  C   UNL     1      -8.885   0.593 123.840  0.00  0.00    +0.000 A 
ATOM     14  C   UNL     1      -8.418  -0.232 124.867  0.00  0.00    +0.000 A 
ENDROOT
BRANCH   1  15
ATOM     15  S   UNL     1      -6.826  -0.932 126.978  0.00  0.00    +0.000 S 
BRANCH  15  17
ATOM     16  C   UNL     1      -5.600  -2.570 125.183  0.00  0.00    +0.000 C 
ATOM     17  C   UNL     1      -6.748  -2.578 126.182  0.00  0.00    +0.000 C 
ENDBRANCH  15  17
ENDBRANCH   1  15
BRANCH  12  18
ATOM     18  C   UNL     1      -6.242   4.337 124.926  0.00  0.00    +0.000 C 
BRANCH  18  19
ATOM     19  C   UNL     1      -4.975   4.583 125.758  0.00  0.00    +0.000 C 
BRANCH  19  20
ATOM     20  C   UNL     1      -5.164   4.513 127.275  0.00  0.00    +0.000 C 
BRANCH  20  21
ATOM     21  N   UNL     1      -4.487   5.578 127.998  0.00  0.00    +0.000 NA
ATOM     22  C   UNL     1      -3.019   5.423 127.894  0.00  0.00    +0.000 C 
ATOM     23  C   UNL     1      -2.295   6.587 128.617  0.00  0.00    +0.000 C 
ATOM     24  N   UNL     1      -2.726   6.840 130.016  0.00  0.00    +0.000 NA
ATOM     25  C   UNL     1      -2.248   5.793 130.919  0.00  0.00    +0.000 C 
ATOM     26  C   UNL     1      -4.194   6.873 130.060  0.00  0.00    +0.000 C 
ATOM     27  C   UNL     1      -4.802   5.616 129.435  0.00  0.00    +0.000 C 
ENDBRANCH  20  21
ENDBRANCH  19  20
ENDBRANCH  18  19
ENDBRANCH  12  18
TORSDOF 6
ENDMDL
MODEL 5
REMARK VINA RESULT:      -6.8      7.781      9.356
REMARK  Name = Thiethylperazine
REMARK  8 active torsions:
REMARK  status: ('A' for Active; 'I' for Inactive)
REMARK    1  A    between atoms: C_1  and  C_2
REMARK    2  A    between atoms: C_2  and  S_3
REMARK    3  A    between atoms: S_3  and  C_4
REMARK    4  A    between atoms: N_15  and  C_16
REMARK    5  A    between atoms: C_16  and  C_17
REMARK    6  A    between atoms: C_17  and  C_18
REMARK    7  A    between atoms: C_18  and  N_19
REMARK    8  A    between atoms: N_22  and  C_23
REMARK                            x       y       z     vdW  Elec       q    Type
REMARK                         _______ _______ _______ _____ _____    ______ ____
ROOT
ATOM      1  C   UNL     1      -4.329   6.516 132.779  0.00  0.00    +0.000 A 
ATOM      2  C   UNL     1      -5.244   6.095 131.810  0.00  0.00    +0.000 A 
ATOM      3  C   UNL     1      -6.440   5.443 132.168  0.00  0.00    +0.000 A 
ATOM      4  C   UNL     1      -6.753   5.302 133.536  0.00  0.00    +0.000 A 
ATOM      5  S   UNL     1      -8.279   4.548 134.073  0.00  0.00    +0.000 S 
ATOM      6  C   UNL     1      -8.547   3.433 132.709  0.00  0.00    +0.000 A 
ATOM      7  C   UNL     1      -9.240   2.243 132.927  0.00  0.00    +0.000 A 
ATOM      8  C   UNL     1      -9.458   1.343 131.879  0.00  0.00    +0.000 A 
ATOM      9  C   UNL     1      -8.974   1.623 130.605  0.00  0.00    +0.000 A 
ATOM     10  C   UNL     1      -8.231   2.765 130.409  0.00  0.00    +0.000 A 
ATOM     11  C   UNL     1      -8.037   3.705 131.429  0.00  0.00    +0.000 A 
ATOM     12  N   UNL     1      -7.226   4.816 131.147  0.00  0.00    +0.000 N 
ATOM     13  C   UNL     1      -5.852   5.747 134.509  0.00  0.00    +0.000 A 
ATOM     14  C   UNL     1      -4.642   6.332 134.130  0.00  0.00    +0.000 A 
ENDROOT
BRANCH   1  15
ATOM     15  S   UNL     1      -2.792   7.334 132.383  0.00  0.00    +0.000 S 
BRANCH  15  17
ATOM     16  C   UNL     1      -1.755   4.819 132.495  0.00  0.00    +0.000 C 
ATOM     17  C   UNL     1      -1.817   6.020 131.562  0.00  0.00    +0.000 C 
ENDBRANCH  15  17
ENDBRANCH   1  15
BRANCH  12  18
ATOM     18  C   UNL     1      -7.830   5.810 130.235  0.00  0.00    +0.000 C 
BRANCH  18  19
ATOM     19  C   UNL     1      -8.702   6.946 130.790  0.00  0.00    +0.000 C 
BRANCH  19  20
ATOM     20  C   UNL     1     -10.148   6.561 131.114  0.00  0.00    +0.000 C 
BRANCH  20  21
ATOM     21  N   UNL     1     -11.128   7.189 130.242  0.00  0.00    +0.000 NA
ATOM     22  C   UNL     1     -12.024   6.169 129.650  0.00  0.00    +0.000 C 
ATOM     23  C   UNL     1     -13.103   6.841 128.764  0.00  0.00    +0.000 C 
ATOM     24  N   UNL     1     -12.594   7.789 127.740  0.00  0.00    +0.000 NA
ATOM     25  C   UNL     1     -11.928   7.086 126.645  0.00  0.00    +0.000 C 
ATOM     26  C   UNL     1     -11.632   8.699 128.376  0.00  0.00    +0.000 C 
ATOM     27  C   UNL     1     -10.536   7.929 129.115  0.00  0.00    +0.000 C 
ENDBRANCH  20  21
ENDBRANCH  19  20
ENDBRANCH  18  19
ENDBRANCH  12  18
TORSDOF 6
ENDMDL
MODEL 6
REMARK VINA RESULT:      -6.4      3.000      6.519
REMARK  Name = Thiethylperazine
REMARK  8 active torsions:
REMARK  status: ('A' for Active; 'I' for Inactive)
REMARK    1  A    between atoms: C_1  and  C_2
REMARK    2  A    between atoms: C_2  and  S_3
REMARK    3  A    between atoms: S_3  and  C_4
REMARK    4  A    between atoms: N_15  and  C_16
REMARK    5  A    between atoms: C_16  and  C_17
REMARK    6  A    between atoms: C_17  and  C_18
REMARK    7  A    between atoms: C_18  and  N_19
REMARK    8  A    between atoms: N_22  and  C_23
REMARK                            x       y       z     vdW  Elec       q    Type
REMARK                         _______ _______ _______ _____ _____    ______ ____
ROOT
ATOM      1  C   UNL     1      -8.305   2.112 128.313  0.00  0.00    +0.000 A 
ATOM      2  C   UNL     1      -8.291   0.725 128.142  0.00  0.00    +0.000 A 
ATOM      3  C   UNL     1      -7.916   0.143 126.917  0.00  0.00    +0.000 A 
ATOM      4  C   UNL     1      -7.458   0.982 125.879  0.00  0.00    +0.000 A 
ATOM      5  S   UNL     1      -6.902   0.319 124.317  0.00  0.00    +0.000 S 
ATOM      6  C   UNL     1      -7.906  -1.151 124.252  0.00  0.00    +0.000 A 
ATOM      7  C   UNL     1      -8.277  -1.669 123.012  0.00  0.00    +0.000 A 
ATOM      8  C   UNL     1      -9.073  -2.817 122.927  0.00  0.00    +0.000 A 
ATOM      9  C   UNL     1      -9.512  -3.449 124.085  0.00  0.00    +0.000 A 
ATOM     10  C   UNL     1      -9.201  -2.895 125.308  0.00  0.00    +0.000 A 
ATOM     11  C   UNL     1      -8.369  -1.775 125.422  0.00  0.00    +0.000 A 
ATOM     12  N   UNL     1      -8.146  -1.256 126.707  0.00  0.00    +0.000 N 
ATOM     13  C   UNL     1      -7.445   2.369 126.055  0.00  0.00    +0.000 A 
ATOM     14  C   UNL     1      -7.884   2.928 127.257  0.00  0.00    +0.000 A 
ENDROOT
BRANCH   1  15
ATOM     15  S   UNL     1      -8.785   2.905 129.839  0.00  0.00    +0.000 S 
BRANCH  15  17
ATOM     16  C   UNL     1      -9.829   1.921 132.153  0.00  0.00    +0.000 C 
ATOM     17  C   UNL     1      -8.902   1.510 131.018  0.00  0.00    +0.000 C 
ENDBRANCH  15  17
ENDBRANCH   1  15
BRANCH  12  18
ATOM     18  C   UNL     1      -7.283  -2.086 127.572  0.00  0.00    +0.000 C 
BRANCH  18  19
ATOM     19  C   UNL     1      -7.882  -2.866 128.752  0.00  0.00    +0.000 C 
BRANCH  19  20
ATOM     20  C   UNL     1      -7.627  -2.257 130.134  0.00  0.00    +0.000 C 
BRANCH  20  21
ATOM     21  N   UNL     1      -6.336  -2.615 130.700  0.00  0.00    +0.000 NA
ATOM     22  C   UNL     1      -5.315  -1.603 130.343  0.00  0.00    +0.000 C 
ATOM     23  C   UNL     1      -3.952  -1.952 130.991  0.00  0.00    +0.000 C 
ATOM     24  N   UNL     1      -3.464  -3.335 130.753  0.00  0.00    +0.000 NA
ATOM     25  C   UNL     1      -3.016  -3.513 129.371  0.00  0.00    +0.000 C 
ATOM     26  C   UNL     1      -4.560  -4.276 131.021  0.00  0.00    +0.000 C 
ATOM     27  C   UNL     1      -5.818  -3.911 130.232  0.00  0.00    +0.000 C 
ENDBRANCH  20  21
ENDBRANCH  19  20
ENDBRANCH  18  19
ENDBRANCH  12  18
TORSDOF 6
ENDMDL
MODEL 7
REMARK VINA RESULT:      -6.4      5.191      8.017
REMARK  Name = Thiethylperazine
REMARK  8 active torsions:
REMARK  status: ('A' for Active; 'I' for Inactive)
REMARK    1  A    between atoms: C_1  and  C_2
REMARK    2  A    between atoms: C_2  and  S_3
REMARK    3  A    between atoms: S_3  and  C_4
REMARK    4  A    between atoms: N_15  and  C_16
REMARK    5  A    between atoms: C_16  and  C_17
REMARK    6  A    between atoms: C_17  and  C_18
REMARK    7  A    between atoms: C_18  and  N_19
REMARK    8  A    between atoms: N_22  and  C_23
REMARK                            x       y       z     vdW  Elec       q    Type
REMARK                         _______ _______ _______ _____ _____    ______ ____
ROOT
ATOM      1  C   UNL     1      -9.246   6.044 130.043  0.00  0.00    +0.000 A 
ATOM      2  C   UNL     1      -8.589   4.931 129.510  0.00  0.00    +0.000 A 
ATOM      3  C   UNL     1      -7.212   4.726 129.717  0.00  0.00    +0.000 A 
ATOM      4  C   UNL     1      -6.512   5.617 130.557  0.00  0.00    +0.000 A 
ATOM      5  S   UNL     1      -4.780   5.390 130.924  0.00  0.00    +0.000 S 
ATOM      6  C   UNL     1      -4.268   4.582 129.420  0.00  0.00    +0.000 A 
ATOM      7  C   UNL     1      -2.957   4.737 128.974  0.00  0.00    +0.000 A 
ATOM      8  C   UNL     1      -2.528   4.123 127.793  0.00  0.00    +0.000 A 
ATOM      9  C   UNL     1      -3.412   3.356 127.043  0.00  0.00    +0.000 A 
ATOM     10  C   UNL     1      -4.725   3.260 127.450  0.00  0.00    +0.000 A 
ATOM     11  C   UNL     1      -5.169   3.827 128.652  0.00  0.00    +0.000 A 
ATOM     12  N   UNL     1      -6.534   3.715 128.959  0.00  0.00    +0.000 N 
ATOM     13  C   UNL     1      -7.171   6.717 131.114  0.00  0.00    +0.000 A 
ATOM     14  C   UNL     1      -8.524   6.937 130.841  0.00  0.00    +0.000 A 
ENDROOT
BRANCH   1  15
ATOM     15  S   UNL     1     -10.987   6.362 129.800  0.00  0.00    +0.000 S 
BRANCH  15  17
ATOM     16  C   UNL     1     -10.700   8.136 127.755  0.00  0.00    +0.000 C 
ATOM     17  C   UNL     1     -11.021   8.104 129.242  0.00  0.00    +0.000 C 
ENDBRANCH  15  17
ENDBRANCH   1  15
BRANCH  12  18
ATOM     18  C   UNL     1      -6.977   2.359 129.341  0.00  0.00    +0.000 C 
BRANCH  18  19
ATOM     19  C   UNL     1      -7.825   1.516 128.376  0.00  0.00    +0.000 C 
BRANCH  19  20
ATOM     20  C   UNL     1      -8.158   2.188 127.041  0.00  0.00    +0.000 C 
BRANCH  20  21
ATOM     21  N   UNL     1      -8.044   1.299 125.896  0.00  0.00    +0.000 NA
ATOM     22  C   UNL     1      -7.822   2.077 124.656  0.00  0.00    +0.000 C 
ATOM     23  C   UNL     1      -7.645   1.129 123.443  0.00  0.00    +0.000 C 
ATOM     24  N   UNL     1      -8.706   0.106 123.268  0.00  0.00    +0.000 NA
ATOM     25  C   UNL     1      -9.955   0.706 122.800  0.00  0.00    +0.000 C 
ATOM     26  C   UNL     1      -8.950  -0.549 124.560  0.00  0.00    +0.000 C 
ATOM     27  C   UNL     1      -9.240   0.474 125.661  0.00  0.00    +0.000 C 
ENDBRANCH  20  21
ENDBRANCH  19  20
ENDBRANCH  18  19
ENDBRANCH  12  18
TORSDOF 6
ENDMDL
MODEL 8
REMARK VINA RESULT:      -6.3      7.333      9.257
REMARK  Name = Thiethylperazine
REMARK  8 active torsions:
REMARK  status: ('A' for Active; 'I' for Inactive)
REMARK    1  A    between atoms: C_1  and  C_2
REMARK    2  A    between atoms: C_2  and  S_3
REMARK    3  A    between atoms: S_3  and  C_4
REMARK    4  A    between atoms: N_15  and  C_16
REMARK    5  A    between atoms: C_16  and  C_17
REMARK    6  A    between atoms: C_17  and  C_18
REMARK    7  A    between atoms: C_18  and  N_19
REMARK    8  A    between atoms: N_22  and  C_23
REMARK                            x       y       z     vdW  Elec       q    Type
REMARK                         _______ _______ _______ _____ _____    ______ ____
ROOT
ATOM      1  C   UNL     1      -4.239   6.172 130.604  0.00  0.00    +0.000 A 
ATOM      2  C   UNL     1      -5.626   6.044 130.720  0.00  0.00    +0.000 A 
ATOM      3  C   UNL     1      -6.203   5.072 131.559  0.00  0.00    +0.000 A 
ATOM      4  C   UNL     1      -5.357   4.281 132.364  0.00  0.00    +0.000 A 
ATOM      5  S   UNL     1      -6.011   3.073 133.504  0.00  0.00    +0.000 S 
ATOM      6  C   UNL     1      -7.512   2.645 132.643  0.00  0.00    +0.000 A 
ATOM      7  C   UNL     1      -8.048   1.368 132.800  0.00  0.00    +0.000 A 
ATOM      8  C   UNL     1      -9.219   0.999 132.131  0.00  0.00    +0.000 A 
ATOM      9  C   UNL     1      -9.858   1.904 131.290  0.00  0.00    +0.000 A 
ATOM     10  C   UNL     1      -9.289   3.141 131.084  0.00  0.00    +0.000 A 
ATOM     11  C   UNL     1      -8.143   3.552 131.776  0.00  0.00    +0.000 A 
ATOM     12  N   UNL     1      -7.610   4.813 131.465  0.00  0.00    +0.000 N 
ATOM     13  C   UNL     1      -3.969   4.425 132.272  0.00  0.00    +0.000 A 
ATOM     14  C   UNL     1      -3.417   5.351 131.383  0.00  0.00    +0.000 A 
ENDROOT
BRANCH   1  15
ATOM     15  S   UNL     1      -3.453   7.376 129.545  0.00  0.00    +0.000 S 
BRANCH  15  17
ATOM     16  C   UNL     1      -3.317   5.237 127.866  0.00  0.00    +0.000 C 
ATOM     17  C   UNL     1      -2.438   6.347 128.423  0.00  0.00    +0.000 C 
ENDBRANCH  15  17
ENDBRANCH   1  15
BRANCH  12  18
ATOM     18  C   UNL     1      -8.409   5.961 131.943  0.00  0.00    +0.000 C 
BRANCH  18  19
ATOM     19  C   UNL     1      -9.250   6.788 130.959  0.00  0.00    +0.000 C 
BRANCH  19  20
ATOM     20  C   UNL     1      -9.323   6.232 129.534  0.00  0.00    +0.000 C 
BRANCH  20  21
ATOM     21  N   UNL     1     -10.641   6.348 128.930  0.00  0.00    +0.000 NA
ATOM     22  C   UNL     1     -10.610   7.300 127.796  0.00  0.00    +0.000 C 
ATOM     23  C   UNL     1     -12.000   7.383 127.116  0.00  0.00    +0.000 C 
ATOM     24  N   UNL     1     -13.144   7.647 128.026  0.00  0.00    +0.000 NA
ATOM     25  C   UNL     1     -13.137   9.028 128.506  0.00  0.00    +0.000 C 
ATOM     26  C   UNL     1     -13.050   6.742 129.179  0.00  0.00    +0.000 C 
ATOM     27  C   UNL     1     -11.679   6.835 129.854  0.00  0.00    +0.000 C 
ENDBRANCH  20  21
ENDBRANCH  19  20
ENDBRANCH  18  19
ENDBRANCH  12  18
TORSDOF 6
ENDMDL
MODEL 9
REMARK VINA RESULT:      -6.1      3.125      3.917
REMARK  Name = Thiethylperazine
REMARK  8 active torsions:
REMARK  status: ('A' for Active; 'I' for Inactive)
REMARK    1  A    between atoms: C_1  and  C_2
REMARK    2  A    between atoms: C_2  and  S_3
REMARK    3  A    between atoms: S_3  and  C_4
REMARK    4  A    between atoms: N_15  and  C_16
REMARK    5  A    between atoms: C_16  and  C_17
REMARK    6  A    between atoms: C_17  and  C_18
REMARK    7  A    between atoms: C_18  and  N_19
REMARK    8  A    between atoms: N_22  and  C_23
REMARK                            x       y       z     vdW  Elec       q    Type
REMARK                         _______ _______ _______ _____ _____    ______ ____
ROOT
ATOM      1  C   UNL     1      -7.091  -2.025 130.044  0.00  0.00    +0.000 A 
ATOM      2  C   UNL     1      -7.182  -1.088 129.011  0.00  0.00    +0.000 A 
ATOM      3  C   UNL     1      -7.752  -1.423 127.769  0.00  0.00    +0.000 A 
ATOM      4  C   UNL     1      -8.322  -2.703 127.607  0.00  0.00    +0.000 A 
ATOM      5  S   UNL     1      -9.123  -3.184 126.086  0.00  0.00    +0.000 S 
ATOM      6  C   UNL     1      -8.196  -2.182 124.940  0.00  0.00    +0.000 A 
ATOM      7  C   UNL     1      -8.028  -2.624 123.629  0.00  0.00    +0.000 A 
ATOM      8  C   UNL     1      -7.297  -1.865 122.708  0.00  0.00    +0.000 A 
ATOM      9  C   UNL     1      -6.720  -0.661 123.098  0.00  0.00    +0.000 A 
ATOM     10  C   UNL     1      -6.830  -0.261 124.411  0.00  0.00    +0.000 A 
ATOM     11  C   UNL     1      -7.594  -0.979 125.341  0.00  0.00    +0.000 A 
ATOM     12  N   UNL     1      -7.608  -0.518 126.667  0.00  0.00    +0.000 N 
ATOM     13  C   UNL     1      -8.257  -3.635 128.647  0.00  0.00    +0.000 A 
ATOM     14  C   UNL     1      -7.627  -3.302 129.849  0.00  0.00    +0.000 A 
ENDROOT
BRANCH   1  15
ATOM     15  S   UNL     1      -6.365  -1.660 131.635  0.00  0.00    +0.000 S 
BRANCH  15  17
ATOM     16  C   UNL     1      -7.946  -2.760 133.558  0.00  0.00    +0.000 C 
ATOM     17  C   UNL     1      -6.792  -3.129 132.638  0.00  0.00    +0.000 C 
ENDBRANCH  15  17
ENDBRANCH   1  15
BRANCH  12  18
ATOM     18  C   UNL     1      -8.369   0.730 126.883  0.00  0.00    +0.000 C 
BRANCH  18  19
ATOM     19  C   UNL     1      -7.652   2.089 126.887  0.00  0.00    +0.000 C 
BRANCH  19  20
ATOM     20  C   UNL     1      -6.660   2.300 128.034  0.00  0.00    +0.000 C 
BRANCH  20  21
ATOM     21  N   UNL     1      -7.167   3.159 129.093  0.00  0.00    +0.000 NA
ATOM     22  C   UNL     1      -7.757   2.347 130.181  0.00  0.00    +0.000 C 
ATOM     23  C   UNL     1      -8.247   3.257 131.336  0.00  0.00    +0.000 C 
ATOM     24  N   UNL     1      -9.139   4.375 130.936  0.00  0.00    +0.000 NA
ATOM     25  C   UNL     1     -10.468   3.891 130.562  0.00  0.00    +0.000 C 
ATOM     26  C   UNL     1      -8.544   5.067 129.785  0.00  0.00    +0.000 C 
ATOM     27  C   UNL     1      -8.217   4.091 128.653  0.00  0.00    +0.000 C 
ENDBRANCH  20  21
ENDBRANCH  19  20
ENDBRANCH  18  19
ENDBRANCH  12  18
TORSDOF 6
ENDMDL
