MODEL 1
REMARK VINA RESULT:      -6.0      0.000      0.000
REMARK  Name = Thiopental
REMARK  7 active torsions:
REMARK  status: ('A' for Active; 'I' for Inactive)
REMARK    1  A    between atoms: C_1  and  C_2
REMARK    2  A    between atoms: C_2  and  C_3
REMARK    3  A    between atoms: C_3  and  C_4
REMARK    4  A    between atoms: C_4  and  C_5
REMARK    5  A    between atoms: C_4  and  C_6
REMARK    6  A    between atoms: C_6  and  C_7
REMARK    7  A    between atoms: C_7  and  C_8
REMARK                            x       y       z     vdW  Elec       q    Type
REMARK                         _______ _______ _______ _____ _____    ______ ____
ROOT
ATOM      1  C   UNL     1      -7.688  -2.081 124.407  0.00  0.00    +0.000 C 
ATOM      2  C   UNL     1      -7.713  -2.138 125.936  0.00  0.00    +0.000 C 
ATOM      3  O   UNL     1      -8.003  -3.124 126.614  0.00  0.00    +0.000 OA
ATOM      4  N   UNL     1      -7.379  -0.977 126.559  0.00  0.00    +0.000 N 
ATOM      5  C   UNL     1      -7.948   0.161 126.089  0.00  0.00    +0.000 C 
ATOM      6  S   UNL     1      -8.550   1.313 127.121  0.00  0.00    +0.000 S 
ATOM      7  N   UNL     1      -7.995   0.294 124.732  0.00  0.00    +0.000 N 
ATOM      8  C   UNL     1      -8.362  -0.789 123.961  0.00  0.00    +0.000 C 
ATOM      9  O   UNL     1      -9.070  -0.665 122.959  0.00  0.00    +0.000 OA
ATOM     10  H   UNL     1      -7.290  -1.066 127.563  0.00  0.00    +0.000 HD
ATOM     11  H   UNL     1      -8.176   1.213 124.354  0.00  0.00    +0.000 HD
ENDROOT
BRANCH   1  12
ATOM     12  C   UNL     1      -6.206  -1.849 123.917  0.00  0.00    +0.000 C 
ATOM     13  C   UNL     1      -6.112  -1.811 122.381  0.00  0.00    +0.000 C 
BRANCH  12  14
ATOM     14  C   UNL     1      -5.239  -2.869 124.521  0.00  0.00    +0.000 C 
BRANCH  14  16
ATOM     15  C   UNL     1      -4.381  -4.982 123.553  0.00  0.00    +0.000 C 
ATOM     16  C   UNL     1      -4.337  -3.476 123.459  0.00  0.00    +0.000 C 
ENDBRANCH  14  16
ENDBRANCH  12  14
ENDBRANCH   1  12
BRANCH   1  17
ATOM     17  C   UNL     1      -8.253  -3.397 123.828  0.00  0.00    +0.000 C 
ATOM     18  C   UNL     1      -9.751  -3.406 123.578  0.00  0.00    +0.000 C 
ENDBRANCH   1  17
TORSDOF 4
ENDMDL
MODEL 2
REMARK VINA RESULT:      -5.7      1.946      2.786
REMARK  Name = Thiopental
REMARK  7 active torsions:
REMARK  status: ('A' for Active; 'I' for Inactive)
REMARK    1  A    between atoms: C_1  and  C_2
REMARK    2  A    between atoms: C_2  and  C_3
REMARK    3  A    between atoms: C_3  and  C_4
REMARK    4  A    between atoms: C_4  and  C_5
REMARK    5  A    between atoms: C_4  and  C_6
REMARK    6  A    between atoms: C_6  and  C_7
REMARK    7  A    between atoms: C_7  and  C_8
REMARK                            x       y       z     vdW  Elec       q    Type
REMARK                         _______ _______ _______ _____ _____    ______ ____
ROOT
ATOM      1  C   UNL     1      -7.368  -1.418 125.464  0.00  0.00    +0.000 C 
ATOM      2  C   UNL     1      -6.661  -0.082 125.228  0.00  0.00    +0.000 C 
ATOM      3  O   UNL     1      -5.870   0.459 126.002  0.00  0.00    +0.000 OA
ATOM      4  N   UNL     1      -6.960   0.527 124.050  0.00  0.00    +0.000 N 
ATOM      5  C   UNL     1      -8.269   0.583 123.700  0.00  0.00    +0.000 C 
ATOM      6  S   UNL     1      -8.935   1.967 123.073  0.00  0.00    +0.000 S 
ATOM      7  N   UNL     1      -8.992  -0.557 123.894  0.00  0.00    +0.000 N 
ATOM      8  C   UNL     1      -8.832  -1.265 125.067  0.00  0.00    +0.000 C 
ATOM      9  O   UNL     1      -9.784  -1.799 125.641  0.00  0.00    +0.000 OA
ATOM     10  H   UNL     1      -6.398   1.347 123.862  0.00  0.00    +0.000 HD
ATOM     11  H   UNL     1      -9.884  -0.636 123.426  0.00  0.00    +0.000 HD
ENDROOT
BRANCH   1  12
ATOM     12  C   UNL     1      -6.862  -2.470 124.402  0.00  0.00    +0.000 C 
ATOM     13  C   UNL     1      -7.653  -3.789 124.484  0.00  0.00    +0.000 C 
BRANCH  12  14
ATOM     14  C   UNL     1      -5.354  -2.705 124.505  0.00  0.00    +0.000 C 
BRANCH  14  16
ATOM     15  C   UNL     1      -4.158  -4.669 123.585  0.00  0.00    +0.000 C 
ATOM     16  C   UNL     1      -4.804  -3.349 123.244  0.00  0.00    +0.000 C 
ENDBRANCH  14  16
ENDBRANCH  12  14
ENDBRANCH   1  12
BRANCH   1  17
ATOM     17  C   UNL     1      -7.083  -1.913 126.899  0.00  0.00    +0.000 C 
ATOM     18  C   UNL     1      -7.739  -1.105 128.006  0.00  0.00    +0.000 C 
ENDBRANCH   1  17
TORSDOF 4
ENDMDL
MODEL 3
REMARK VINA RESULT:      -5.7      1.669      2.226
REMARK  Name = Thiopental
REMARK  7 active torsions:
REMARK  status: ('A' for Active; 'I' for Inactive)
REMARK    1  A    between atoms: C_1  and  C_2
REMARK    2  A    between atoms: C_2  and  C_3
REMARK    3  A    between atoms: C_3  and  C_4
REMARK    4  A    between atoms: C_4  and  C_5
REMARK    5  A    between atoms: C_4  and  C_6
REMARK    6  A    between atoms: C_6  and  C_7
REMARK    7  A    between atoms: C_7  and  C_8
REMARK                            x       y       z     vdW  Elec       q    Type
REMARK                         _______ _______ _______ _____ _____    ______ ____
ROOT
ATOM      1  C   UNL     1      -7.620  -2.243 125.776  0.00  0.00    +0.000 C 
ATOM      2  C   UNL     1      -6.294  -1.840 126.425  0.00  0.00    +0.000 C 
ATOM      3  O   UNL     1      -5.754  -2.413 127.372  0.00  0.00    +0.000 OA
ATOM      4  N   UNL     1      -5.695  -0.750 125.876  0.00  0.00    +0.000 N 
ATOM      5  C   UNL     1      -6.481   0.326 125.628  0.00  0.00    +0.000 C 
ATOM      6  S   UNL     1      -5.975   1.865 125.991  0.00  0.00    +0.000 S 
ATOM      7  N   UNL     1      -7.698   0.066 125.069  0.00  0.00    +0.000 N 
ATOM      8  C   UNL     1      -8.449  -0.986 125.551  0.00  0.00    +0.000 C 
ATOM      9  O   UNL     1      -9.675  -0.911 125.664  0.00  0.00    +0.000 OA
ATOM     10  H   UNL     1      -4.769  -0.570 126.241  0.00  0.00    +0.000 HD
ATOM     11  H   UNL     1      -8.198   0.836 124.647  0.00  0.00    +0.000 HD
ENDROOT
BRANCH   1  12
ATOM     12  C   UNL     1      -7.353  -2.716 124.294  0.00  0.00    +0.000 C 
ATOM     13  C   UNL     1      -8.660  -3.093 123.572  0.00  0.00    +0.000 C 
BRANCH  12  14
ATOM     14  C   UNL     1      -6.323  -3.844 124.230  0.00  0.00    +0.000 C 
BRANCH  14  16
ATOM     15  C   UNL     1      -4.050  -4.526 123.520  0.00  0.00    +0.000 C 
ATOM     16  C   UNL     1      -5.059  -3.403 123.512  0.00  0.00    +0.000 C 
ENDBRANCH  14  16
ENDBRANCH  12  14
ENDBRANCH   1  12
BRANCH   1  17
ATOM     17  C   UNL     1      -8.279  -3.375 126.597  0.00  0.00    +0.000 C 
ATOM     18  C   UNL     1      -8.482  -3.072 128.072  0.00  0.00    +0.000 C 
ENDBRANCH   1  17
TORSDOF 4
ENDMDL
MODEL 4
REMARK VINA RESULT:      -5.6      8.909     11.048
REMARK  Name = Thiopental
REMARK  7 active torsions:
REMARK  status: ('A' for Active; 'I' for Inactive)
REMARK    1  A    between atoms: C_1  and  C_2
REMARK    2  A    between atoms: C_2  and  C_3
REMARK    3  A    between atoms: C_3  and  C_4
REMARK    4  A    between atoms: C_4  and  C_5
REMARK    5  A    between atoms: C_4  and  C_6
REMARK    6  A    between atoms: C_6  and  C_7
REMARK    7  A    between atoms: C_7  and  C_8
REMARK                            x       y       z     vdW  Elec       q    Type
REMARK                         _______ _______ _______ _____ _____    ______ ____
ROOT
ATOM      1  C   UNL     1      -9.288   6.045 130.544  0.00  0.00    +0.000 C 
ATOM      2  C   UNL     1      -9.640   5.611 131.968  0.00  0.00    +0.000 C 
ATOM      3  O   UNL     1      -9.361   6.227 132.997  0.00  0.00    +0.000 OA
ATOM      4  N   UNL     1     -10.320   4.437 132.058  0.00  0.00    +0.000 N 
ATOM      5  C   UNL     1      -9.860   3.400 131.316  0.00  0.00    +0.000 C 
ATOM      6  S   UNL     1      -9.752   1.869 131.947  0.00  0.00    +0.000 S 
ATOM      7  N   UNL     1      -9.497   3.692 130.034  0.00  0.00    +0.000 N 
ATOM      8  C   UNL     1      -8.762   4.833 129.785  0.00  0.00    +0.000 C 
ATOM      9  O   UNL     1      -7.858   4.854 128.947  0.00  0.00    +0.000 OA
ATOM     10  H   UNL     1     -10.643   4.226 132.994  0.00  0.00    +0.000 HD
ATOM     11  H   UNL     1      -9.391   2.924 129.386  0.00  0.00    +0.000 HD
ENDROOT
BRANCH   1  12
ATOM     12  C   UNL     1     -10.615   6.362 129.751  0.00  0.00    +0.000 C 
ATOM     13  C   UNL     1     -10.322   6.963 128.364  0.00  0.00    +0.000 C 
BRANCH  12  14
ATOM     14  C   UNL     1     -11.568   7.241 130.562  0.00  0.00    +0.000 C 
BRANCH  14  16
ATOM     15  C   UNL     1     -12.843   9.163 129.658  0.00  0.00    +0.000 C 
ATOM     16  C   UNL     1     -12.776   7.658 129.740  0.00  0.00    +0.000 C 
ENDBRANCH  14  16
ENDBRANCH  12  14
ENDBRANCH   1  12
BRANCH   1  17
ATOM     17  C   UNL     1      -8.372   7.289 130.590  0.00  0.00    +0.000 C 
ATOM     18  C   UNL     1      -6.951   7.030 131.060  0.00  0.00    +0.000 C 
ENDBRANCH   1  17
TORSDOF 4
ENDMDL
MODEL 5
REMARK VINA RESULT:      -5.5      2.030      2.691
REMARK  Name = Thiopental
REMARK  7 active torsions:
REMARK  status: ('A' for Active; 'I' for Inactive)
REMARK    1  A    between atoms: C_1  and  C_2
REMARK    2  A    between atoms: C_2  and  C_3
REMARK    3  A    between atoms: C_3  and  C_4
REMARK    4  A    between atoms: C_4  and  C_5
REMARK    5  A    between atoms: C_4  and  C_6
REMARK    6  A    between atoms: C_6  and  C_7
REMARK    7  A    between atoms: C_7  and  C_8
REMARK                            x       y       z     vdW  Elec       q    Type
REMARK                         _______ _______ _______ _____ _____    ______ ____
ROOT
ATOM      1  C   UNL     1      -7.727  -1.924 124.469  0.00  0.00    +0.000 C 
ATOM      2  C   UNL     1      -8.676  -0.938 125.153  0.00  0.00    +0.000 C 
ATOM      3  O   UNL     1      -9.742  -1.226 125.697  0.00  0.00    +0.000 OA
ATOM      4  N   UNL     1      -8.267   0.359 125.134  0.00  0.00    +0.000 N 
ATOM      5  C   UNL     1      -7.803   0.842 123.955  0.00  0.00    +0.000 C 
ATOM      6  S   UNL     1      -8.242   2.346 123.408  0.00  0.00    +0.000 S 
ATOM      7  N   UNL     1      -6.964   0.022 123.258  0.00  0.00    +0.000 N 
ATOM      8  C   UNL     1      -7.270  -1.318 123.148  0.00  0.00    +0.000 C 
ATOM      9  O   UNL     1      -7.071  -1.948 122.107  0.00  0.00    +0.000 OA
ATOM     10  H   UNL     1      -8.847   0.975 125.688  0.00  0.00    +0.000 HD
ATOM     11  H   UNL     1      -6.411   0.432 122.518  0.00  0.00    +0.000 HD
ENDROOT
BRANCH   1  12
ATOM     12  C   UNL     1      -6.371  -1.987 125.274  0.00  0.00    +0.000 C 
ATOM     13  C   UNL     1      -5.395  -3.012 124.668  0.00  0.00    +0.000 C 
BRANCH  12  14
ATOM     14  C   UNL     1      -6.603  -2.236 126.765  0.00  0.00    +0.000 C 
BRANCH  14  16
ATOM     15  C   UNL     1      -4.837  -2.609 128.461  0.00  0.00    +0.000 C 
ATOM     16  C   UNL     1      -5.531  -1.571 127.613  0.00  0.00    +0.000 C 
ENDBRANCH  14  16
ENDBRANCH  12  14
ENDBRANCH   1  12
BRANCH   1  17
ATOM     17  C   UNL     1      -8.386  -3.320 124.404  0.00  0.00    +0.000 C 
ATOM     18  C   UNL     1      -9.575  -3.433 123.465  0.00  0.00    +0.000 C 
ENDBRANCH   1  17
TORSDOF 4
ENDMDL
MODEL 6
REMARK VINA RESULT:      -5.3      2.246      3.285
REMARK  Name = Thiopental
REMARK  7 active torsions:
REMARK  status: ('A' for Active; 'I' for Inactive)
REMARK    1  A    between atoms: C_1  and  C_2
REMARK    2  A    between atoms: C_2  and  C_3
REMARK    3  A    between atoms: C_3  and  C_4
REMARK    4  A    between atoms: C_4  and  C_5
REMARK    5  A    between atoms: C_4  and  C_6
REMARK    6  A    between atoms: C_6  and  C_7
REMARK    7  A    between atoms: C_7  and  C_8
REMARK                            x       y       z     vdW  Elec       q    Type
REMARK                         _______ _______ _______ _____ _____    ______ ____
ROOT
ATOM      1  C   UNL     1      -8.407  -1.414 124.662  0.00  0.00    +0.000 C 
ATOM      2  C   UNL     1      -9.048  -0.375 125.583  0.00  0.00    +0.000 C 
ATOM      3  O   UNL     1     -10.195   0.064 125.483  0.00  0.00    +0.000 OA
ATOM      4  N   UNL     1      -8.248   0.077 126.584  0.00  0.00    +0.000 N 
ATOM      5  C   UNL     1      -6.977   0.414 126.254  0.00  0.00    +0.000 C 
ATOM      6  S   UNL     1      -6.271   1.795 126.844  0.00  0.00    +0.000 S 
ATOM      7  N   UNL     1      -6.327  -0.442 125.415  0.00  0.00    +0.000 N 
ATOM      8  C   UNL     1      -6.995  -0.952 124.322  0.00  0.00    +0.000 C 
ATOM      9  O   UNL     1      -6.438  -1.108 123.232  0.00  0.00    +0.000 OA
ATOM     10  H   UNL     1      -8.725   0.674 127.248  0.00  0.00    +0.000 HD
ATOM     11  H   UNL     1      -5.321  -0.364 125.346  0.00  0.00    +0.000 HD
ENDROOT
BRANCH   1  12
ATOM     12  C   UNL     1      -8.119  -2.731 125.482  0.00  0.00    +0.000 C 
ATOM     13  C   UNL     1      -7.619  -3.871 124.576  0.00  0.00    +0.000 C 
BRANCH  12  14
ATOM     14  C   UNL     1      -9.326  -3.159 126.319  0.00  0.00    +0.000 C 
BRANCH  14  16
ATOM     15  C   UNL     1      -7.897  -2.997 128.335  0.00  0.00    +0.000 C 
ATOM     16  C   UNL     1      -8.898  -3.854 127.600  0.00  0.00    +0.000 C 
ENDBRANCH  14  16
ENDBRANCH  12  14
ENDBRANCH   1  12
BRANCH   1  17
ATOM     17  C   UNL     1      -9.349  -1.710 123.473  0.00  0.00    +0.000 C 
ATOM     18  C   UNL     1      -9.591  -0.542 122.533  0.00  0.00    +0.000 C 
ENDBRANCH   1  17
TORSDOF 4
ENDMDL
MODEL 7
REMARK VINA RESULT:      -4.9      7.942     10.332
REMARK  Name = Thiopental
REMARK  7 active torsions:
REMARK  status: ('A' for Active; 'I' for Inactive)
REMARK    1  A    between atoms: C_1  and  C_2
REMARK    2  A    between atoms: C_2  and  C_3
REMARK    3  A    between atoms: C_3  and  C_4
REMARK    4  A    between atoms: C_4  and  C_5
REMARK    5  A    between atoms: C_4  and  C_6
REMARK    6  A    between atoms: C_6  and  C_7
REMARK    7  A    between atoms: C_7  and  C_8
REMARK                            x       y       z     vdW  Elec       q    Type
REMARK                         _______ _______ _______ _____ _____    ______ ____
ROOT
ATOM      1  C   UNL     1      -8.816   5.165 131.521  0.00  0.00    +0.000 C 
ATOM      2  C   UNL     1      -9.485   5.611 130.220  0.00  0.00    +0.000 C 
ATOM      3  O   UNL     1      -8.901   5.927 129.183  0.00  0.00    +0.000 OA
ATOM      4  N   UNL     1     -10.843   5.647 130.256  0.00  0.00    +0.000 N 
ATOM      5  C   UNL     1     -11.416   6.226 131.340  0.00  0.00    +0.000 C 
ATOM      6  S   UNL     1     -12.704   7.262 131.184  0.00  0.00    +0.000 S 
ATOM      7  N   UNL     1     -10.873   5.907 132.550  0.00  0.00    +0.000 N 
ATOM      8  C   UNL     1      -9.500   5.873 132.684  0.00  0.00    +0.000 C 
ATOM      9  O   UNL     1      -8.936   6.279 133.702  0.00  0.00    +0.000 OA
ATOM     10  H   UNL     1     -11.269   5.832 129.357  0.00  0.00    +0.000 HD
ATOM     11  H   UNL     1     -11.413   6.112 133.379  0.00  0.00    +0.000 HD
ENDROOT
BRANCH   1  12
ATOM     12  C   UNL     1      -9.186   3.658 131.808  0.00  0.00    +0.000 C 
ATOM     13  C   UNL     1      -9.019   3.302 133.297  0.00  0.00    +0.000 C 
BRANCH  12  14
ATOM     14  C   UNL     1      -8.410   2.697 130.905  0.00  0.00    +0.000 C 
BRANCH  14  16
ATOM     15  C   UNL     1      -8.312   2.207 128.479  0.00  0.00    +0.000 C 
ATOM     16  C   UNL     1      -9.221   2.309 129.679  0.00  0.00    +0.000 C 
ENDBRANCH  14  16
ENDBRANCH  12  14
ENDBRANCH   1  12
BRANCH   1  17
ATOM     17  C   UNL     1      -7.285   5.336 131.406  0.00  0.00    +0.000 C 
ATOM     18  C   UNL     1      -6.799   6.773 131.309  0.00  0.00    +0.000 C 
ENDBRANCH   1  17
TORSDOF 4
ENDMDL
MODEL 8
REMARK VINA RESULT:      -4.9      2.775      4.816
REMARK  Name = Thiopental
REMARK  7 active torsions:
REMARK  status: ('A' for Active; 'I' for Inactive)
REMARK    1  A    between atoms: C_1  and  C_2
REMARK    2  A    between atoms: C_2  and  C_3
REMARK    3  A    between atoms: C_3  and  C_4
REMARK    4  A    between atoms: C_4  and  C_5
REMARK    5  A    between atoms: C_4  and  C_6
REMARK    6  A    between atoms: C_6  and  C_7
REMARK    7  A    between atoms: C_7  and  C_8
REMARK                            x       y       z     vdW  Elec       q    Type
REMARK                         _______ _______ _______ _____ _____    ______ ____
ROOT
ATOM      1  C   UNL     1      -7.693  -2.277 126.035  0.00  0.00    +0.000 C 
ATOM      2  C   UNL     1      -7.868  -3.165 124.802  0.00  0.00    +0.000 C 
ATOM      3  O   UNL     1      -8.819  -3.917 124.587  0.00  0.00    +0.000 OA
ATOM      4  N   UNL     1      -6.862  -3.087 123.891  0.00  0.00    +0.000 N 
ATOM      5  C   UNL     1      -5.594  -3.132 124.367  0.00  0.00    +0.000 C 
ATOM      6  S   UNL     1      -4.426  -4.048 123.623  0.00  0.00    +0.000 S 
ATOM      7  N   UNL     1      -5.343  -2.388 125.482  0.00  0.00    +0.000 N 
ATOM      8  C   UNL     1      -6.253  -2.400 126.518  0.00  0.00    +0.000 C 
ATOM      9  O   UNL     1      -5.895  -2.395 127.699  0.00  0.00    +0.000 OA
ATOM     10  H   UNL     1      -7.051  -3.592 123.034  0.00  0.00    +0.000 HD
ATOM     11  H   UNL     1      -4.378  -2.198 125.716  0.00  0.00    +0.000 HD
ENDROOT
BRANCH   1  12
ATOM     12  C   UNL     1      -7.751  -0.761 125.598  0.00  0.00    +0.000 C 
ATOM     13  C   UNL     1      -7.650   0.186 126.808  0.00  0.00    +0.000 C 
BRANCH  12  14
ATOM     14  C   UNL     1      -8.982  -0.460 124.742  0.00  0.00    +0.000 C 
BRANCH  14  16
ATOM     15  C   UNL     1      -9.692   1.836 124.145  0.00  0.00    +0.000 C 
ATOM     16  C   UNL     1      -9.706   0.784 125.227  0.00  0.00    +0.000 C 
ENDBRANCH  14  16
ENDBRANCH  12  14
ENDBRANCH   1  12
BRANCH   1  17
ATOM     17  C   UNL     1      -8.802  -2.588 127.064  0.00  0.00    +0.000 C 
ATOM     18  C   UNL     1      -8.696  -3.944 127.741  0.00  0.00    +0.000 C 
ENDBRANCH   1  17
TORSDOF 4
ENDMDL
MODEL 9
REMARK VINA RESULT:      -4.7      8.789     10.809
REMARK  Name = Thiopental
REMARK  7 active torsions:
REMARK  status: ('A' for Active; 'I' for Inactive)
REMARK    1  A    between atoms: C_1  and  C_2
REMARK    2  A    between atoms: C_2  and  C_3
REMARK    3  A    between atoms: C_3  and  C_4
REMARK    4  A    between atoms: C_4  and  C_5
REMARK    5  A    between atoms: C_4  and  C_6
REMARK    6  A    between atoms: C_6  and  C_7
REMARK    7  A    between atoms: C_7  and  C_8
REMARK                            x       y       z     vdW  Elec       q    Type
REMARK                         _______ _______ _______ _____ _____    ______ ____
ROOT
ATOM      1  C   UNL     1      -4.030   5.726 130.314  0.00  0.00    +0.000 C 
ATOM      2  C   UNL     1      -3.828   6.497 129.008  0.00  0.00    +0.000 C 
ATOM      3  O   UNL     1      -4.048   7.697 128.840  0.00  0.00    +0.000 OA
ATOM      4  N   UNL     1      -3.366   5.753 127.968  0.00  0.00    +0.000 N 
ATOM      5  C   UNL     1      -3.958   4.552 127.757  0.00  0.00    +0.000 C 
ATOM      6  S   UNL     1      -4.359   4.046 126.228  0.00  0.00    +0.000 S 
ATOM      7  N   UNL     1      -4.201   3.798 128.867  0.00  0.00    +0.000 N 
ATOM      8  C   UNL     1      -4.717   4.404 129.994  0.00  0.00    +0.000 C 
ATOM      9  O   UNL     1      -5.562   3.851 130.702  0.00  0.00    +0.000 OA
ATOM     10  H   UNL     1      -3.130   6.301 127.151  0.00  0.00    +0.000 HD
ATOM     11  H   UNL     1      -4.405   2.817 128.737  0.00  0.00    +0.000 HD
ENDROOT
BRANCH   1  12
ATOM     12  C   UNL     1      -2.630   5.232 130.850  0.00  0.00    +0.000 C 
ATOM     13  C   UNL     1      -2.777   4.361 132.111  0.00  0.00    +0.000 C 
BRANCH  12  14
ATOM     14  C   UNL     1      -1.661   6.395 131.072  0.00  0.00    +0.000 C 
BRANCH  14  16
ATOM     15  C   UNL     1      -0.310   7.468 132.848  0.00  0.00    +0.000 C 
ATOM     16  C   UNL     1      -0.763   6.149 132.273  0.00  0.00    +0.000 C 
ENDBRANCH  14  16
ENDBRANCH  12  14
ENDBRANCH   1  12
BRANCH   1  17
ATOM     17  C   UNL     1      -4.720   6.636 131.355  0.00  0.00    +0.000 C 
ATOM     18  C   UNL     1      -6.190   6.918 131.096  0.00  0.00    +0.000 C 
ENDBRANCH   1  17
TORSDOF 4
ENDMDL
