MODEL 1
REMARK VINA RESULT:      -3.7      0.000      0.000
REMARK  Name = Thiosulfuric acid
REMARK  2 active torsions:
REMARK  status: ('A' for Active; 'I' for Inactive)
REMARK    1  A    between atoms: O_1  and  S_2
REMARK    2  A    between atoms: S_2  and  O_3
REMARK                            x       y       z     vdW  Elec       q    Type
REMARK                         _______ _______ _______ _____ _____    ______ ____
ROOT
ATOM      1  S   UNL     1     -10.853   7.335 126.403  0.00  0.00    +0.000 S 
ATOM      2  O   UNL     1      -9.789   6.367 126.380  0.00  0.00    +0.000 OA
ATOM      3  S   UNL     1     -10.842   8.340 127.916  0.00  0.00    +0.000 S 
ENDROOT
BRANCH   1   4
ATOM      4  O   UNL     1     -10.694   8.232 125.090  0.00  0.00    +0.000 OA
ATOM      5  H   UNL     1     -11.088   9.116 125.217  0.00  0.00    +0.000 HD
ENDBRANCH   1   4
BRANCH   1   6
ATOM      6  O   UNL     1     -12.222   6.526 126.235  0.00  0.00    +0.000 OA
ATOM      7  H   UNL     1     -12.824   6.978 125.614  0.00  0.00    +0.000 HD
ENDBRANCH   1   6
TORSDOF 2
ENDMDL
MODEL 2
REMARK VINA RESULT:      -3.5      0.210      1.912
REMARK  Name = Thiosulfuric acid
REMARK  2 active torsions:
REMARK  status: ('A' for Active; 'I' for Inactive)
REMARK    1  A    between atoms: O_1  and  S_2
REMARK    2  A    between atoms: S_2  and  O_3
REMARK                            x       y       z     vdW  Elec       q    Type
REMARK                         _______ _______ _______ _____ _____    ______ ____
ROOT
ATOM      1  S   UNL     1     -10.886   7.355 126.549  0.00  0.00    +0.000 S 
ATOM      2  O   UNL     1     -12.142   6.654 126.535  0.00  0.00    +0.000 OA
ATOM      3  S   UNL     1     -10.693   8.400 128.023  0.00  0.00    +0.000 S 
ENDROOT
BRANCH   1   4
ATOM      4  O   UNL     1      -9.736   6.251 126.447  0.00  0.00    +0.000 OA
ATOM      5  H   UNL     1      -9.652   5.751 127.282  0.00  0.00    +0.000 HD
ENDBRANCH   1   4
BRANCH   1   6
ATOM      6  O   UNL     1     -10.815   8.209 125.200  0.00  0.00    +0.000 OA
ATOM      7  H   UNL     1     -11.659   8.667 125.028  0.00  0.00    +0.000 HD
ENDBRANCH   1   6
TORSDOF 2
ENDMDL
MODEL 3
REMARK VINA RESULT:      -3.5      0.187      1.947
REMARK  Name = Thiosulfuric acid
REMARK  2 active torsions:
REMARK  status: ('A' for Active; 'I' for Inactive)
REMARK    1  A    between atoms: O_1  and  S_2
REMARK    2  A    between atoms: S_2  and  O_3
REMARK                            x       y       z     vdW  Elec       q    Type
REMARK                         _______ _______ _______ _____ _____    ______ ____
ROOT
ATOM      1  S   UNL     1     -10.899   7.352 126.520  0.00  0.00    +0.000 S 
ATOM      2  O   UNL     1     -10.825   8.152 125.327  0.00  0.00    +0.000 OA
ATOM      3  S   UNL     1     -10.788   8.351 128.033  0.00  0.00    +0.000 S 
ENDROOT
BRANCH   1   4
ATOM      4  O   UNL     1     -12.270   6.534 126.446  0.00  0.00    +0.000 OA
ATOM      5  H   UNL     1     -12.686   6.464 127.326  0.00  0.00    +0.000 HD
ENDBRANCH   1   4
BRANCH   1   6
ATOM      6  O   UNL     1      -9.723   6.273 126.430  0.00  0.00    +0.000 OA
ATOM      7  H   UNL     1      -8.864   6.668 126.672  0.00  0.00    +0.000 HD
ENDBRANCH   1   6
TORSDOF 2
ENDMDL
MODEL 4
REMARK VINA RESULT:      -3.3      1.507      1.967
REMARK  Name = Thiosulfuric acid
REMARK  2 active torsions:
REMARK  status: ('A' for Active; 'I' for Inactive)
REMARK    1  A    between atoms: O_1  and  S_2
REMARK    2  A    between atoms: S_2  and  O_3
REMARK                            x       y       z     vdW  Elec       q    Type
REMARK                         _______ _______ _______ _____ _____    ______ ____
ROOT
ATOM      1  S   UNL     1     -10.974   7.623 126.703  0.00  0.00    +0.000 S 
ATOM      2  O   UNL     1     -10.001   6.588 126.930  0.00  0.00    +0.000 OA
ATOM      3  S   UNL     1     -12.674   7.045 126.977  0.00  0.00    +0.000 S 
ENDROOT
BRANCH   1   4
ATOM      4  O   UNL     1     -10.594   8.838 127.668  0.00  0.00    +0.000 OA
ATOM      5  H   UNL     1     -10.424   8.526 128.577  0.00  0.00    +0.000 HD
ENDBRANCH   1   4
BRANCH   1   6
ATOM      6  O   UNL     1     -10.756   8.146 125.208  0.00  0.00    +0.000 OA
ATOM      7  H   UNL     1      -9.838   7.994 124.913  0.00  0.00    +0.000 HD
ENDBRANCH   1   6
TORSDOF 2
ENDMDL
MODEL 5
REMARK VINA RESULT:      -3.0      1.750      2.891
REMARK  Name = Thiosulfuric acid
REMARK  2 active torsions:
REMARK  status: ('A' for Active; 'I' for Inactive)
REMARK    1  A    between atoms: O_1  and  S_2
REMARK    2  A    between atoms: S_2  and  O_3
REMARK                            x       y       z     vdW  Elec       q    Type
REMARK                         _______ _______ _______ _____ _____    ______ ____
ROOT
ATOM      1  S   UNL     1     -12.206   7.268 127.673  0.00  0.00    +0.000 S 
ATOM      2  O   UNL     1     -13.465   7.964 127.725  0.00  0.00    +0.000 OA
ATOM      3  S   UNL     1     -10.797   8.360 128.025  0.00  0.00    +0.000 S 
ENDROOT
BRANCH   1   4
ATOM      4  O   UNL     1     -12.299   6.062 128.716  0.00  0.00    +0.000 OA
ATOM      5  H   UNL     1     -11.580   5.417 128.575  0.00  0.00    +0.000 HD
ENDBRANCH   1   4
BRANCH   1   6
ATOM      6  O   UNL     1     -12.100   6.606 126.222  0.00  0.00    +0.000 OA
ATOM      7  H   UNL     1     -11.293   6.063 126.141  0.00  0.00    +0.000 HD
ENDBRANCH   1   6
TORSDOF 2
ENDMDL
MODEL 6
REMARK VINA RESULT:      -2.9      3.684      4.686
REMARK  Name = Thiosulfuric acid
REMARK  2 active torsions:
REMARK  status: ('A' for Active; 'I' for Inactive)
REMARK    1  A    between atoms: O_1  and  S_2
REMARK    2  A    between atoms: S_2  and  O_3
REMARK                            x       y       z     vdW  Elec       q    Type
REMARK                         _______ _______ _______ _____ _____    ______ ____
ROOT
ATOM      1  S   UNL     1      -7.846   4.796 125.577  0.00  0.00    +0.000 S 
ATOM      2  O   UNL     1      -8.933   5.618 126.036  0.00  0.00    +0.000 OA
ATOM      3  S   UNL     1      -7.225   3.683 126.872  0.00  0.00    +0.000 S 
ENDROOT
BRANCH   1   4
ATOM      4  O   UNL     1      -8.378   3.989 124.305  0.00  0.00    +0.000 OA
ATOM      5  H   UNL     1      -9.185   4.399 123.940  0.00  0.00    +0.000 HD
ENDBRANCH   1   4
BRANCH   1   6
ATOM      6  O   UNL     1      -6.708   5.784 125.044  0.00  0.00    +0.000 OA
ATOM      7  H   UNL     1      -6.379   5.503 124.170  0.00  0.00    +0.000 HD
ENDBRANCH   1   6
TORSDOF 2
ENDMDL
MODEL 7
REMARK VINA RESULT:      -2.8      4.353      5.054
REMARK  Name = Thiosulfuric acid
REMARK  2 active torsions:
REMARK  status: ('A' for Active; 'I' for Inactive)
REMARK    1  A    between atoms: O_1  and  S_2
REMARK    2  A    between atoms: S_2  and  O_3
REMARK                            x       y       z     vdW  Elec       q    Type
REMARK                         _______ _______ _______ _____ _____    ______ ____
ROOT
ATOM      1  S   UNL     1     -11.273   5.654 130.632  0.00  0.00    +0.000 S 
ATOM      2  O   UNL     1     -12.044   5.666 129.417  0.00  0.00    +0.000 OA
ATOM      3  S   UNL     1      -9.766   6.660 130.504  0.00  0.00    +0.000 S 
ENDROOT
BRANCH   1   4
ATOM      4  O   UNL     1     -12.236   6.170 131.797  0.00  0.00    +0.000 OA
ATOM      5  H   UNL     1     -13.050   6.568 131.433  0.00  0.00    +0.000 HD
ENDBRANCH   1   4
BRANCH   1   6
ATOM      6  O   UNL     1     -10.944   4.125 130.959  0.00  0.00    +0.000 OA
ATOM      7  H   UNL     1     -11.650   3.535 130.633  0.00  0.00    +0.000 HD
ENDBRANCH   1   6
TORSDOF 2
ENDMDL
MODEL 8
REMARK VINA RESULT:      -2.8      3.185      3.569
REMARK  Name = Thiosulfuric acid
REMARK  2 active torsions:
REMARK  status: ('A' for Active; 'I' for Inactive)
REMARK    1  A    between atoms: O_1  and  S_2
REMARK    2  A    between atoms: S_2  and  O_3
REMARK                            x       y       z     vdW  Elec       q    Type
REMARK                         _______ _______ _______ _____ _____    ______ ____
ROOT
ATOM      1  S   UNL     1     -12.176   8.545 128.559  0.00  0.00    +0.000 S 
ATOM      2  O   UNL     1     -11.645   8.085 129.814  0.00  0.00    +0.000 OA
ATOM      3  S   UNL     1     -13.356   7.369 127.834  0.00  0.00    +0.000 S 
ENDROOT
BRANCH   1   4
ATOM      4  O   UNL     1     -12.846   9.969 128.831  0.00  0.00    +0.000 OA
ATOM      5  H   UNL     1     -13.813   9.889 128.939  0.00  0.00    +0.000 HD
ENDBRANCH   1   4
BRANCH   1   6
ATOM      6  O   UNL     1     -10.928   8.808 127.595  0.00  0.00    +0.000 OA
ATOM      7  H   UNL     1     -11.221   8.992 126.682  0.00  0.00    +0.000 HD
ENDBRANCH   1   6
TORSDOF 2
ENDMDL
MODEL 9
REMARK VINA RESULT:      -2.8      2.262      3.077
REMARK  Name = Thiosulfuric acid
REMARK  2 active torsions:
REMARK  status: ('A' for Active; 'I' for Inactive)
REMARK    1  A    between atoms: O_1  and  S_2
REMARK    2  A    between atoms: S_2  and  O_3
REMARK                            x       y       z     vdW  Elec       q    Type
REMARK                         _______ _______ _______ _____ _____    ______ ____
ROOT
ATOM      1  S   UNL     1     -12.539   7.432 127.768  0.00  0.00    +0.000 S 
ATOM      2  O   UNL     1     -13.887   7.909 127.613  0.00  0.00    +0.000 OA
ATOM      3  S   UNL     1     -12.326   6.436 129.272  0.00  0.00    +0.000 S 
ENDROOT
BRANCH   1   4
ATOM      4  O   UNL     1     -12.186   6.603 126.449  0.00  0.00    +0.000 OA
ATOM      5  H   UNL     1     -12.175   5.643 126.628  0.00  0.00    +0.000 HD
ENDBRANCH   1   4
BRANCH   1   6
ATOM      6  O   UNL     1     -11.588   8.717 127.763  0.00  0.00    +0.000 OA
ATOM      7  H   UNL     1     -11.723   9.252 126.959  0.00  0.00    +0.000 HD
ENDBRANCH   1   6
TORSDOF 2
ENDMDL
