MODEL 1
REMARK VINA RESULT:      -7.3      0.000      0.000
REMARK  Name = Thiohexam
REMARK  3 active torsions:
REMARK  status: ('A' for Active; 'I' for Inactive)
REMARK    1  A    between atoms: C_4  and  N_7
REMARK    2  A    between atoms: N_7  and  S_8
REMARK    3  A    between atoms: S_8  and  C_9
REMARK                            x       y       z     vdW  Elec       q    Type
REMARK                         _______ _______ _______ _____ _____    ______ ____
ROOT
ATOM      1  S   UNL     1      -9.716   1.597 124.252  0.00  0.00    +0.000 S 
ENDROOT
BRANCH   1   2
ATOM      2  C   UNL     1      -8.565   2.497 123.276  0.00  0.00    +0.000 A 
ATOM      3  N   UNL     1      -8.938   2.946 122.101  0.00  0.00    +0.000 NA
ATOM      4  C   UNL     1      -7.854   3.482 121.428  0.00  0.00    +0.000 A 
ATOM      5  C   UNL     1      -7.873   4.046 120.136  0.00  0.00    +0.000 A 
ATOM      6  C   UNL     1      -6.692   4.549 119.579  0.00  0.00    +0.000 A 
ATOM      7  C   UNL     1      -5.497   4.487 120.290  0.00  0.00    +0.000 A 
ATOM      8  C   UNL     1      -5.451   3.923 121.568  0.00  0.00    +0.000 A 
ATOM      9  C   UNL     1      -6.644   3.429 122.123  0.00  0.00    +0.000 A 
ATOM     10  S   UNL     1      -6.908   2.692 123.660  0.00  0.00    +0.000 S 
ENDBRANCH   1   2
BRANCH   1  11
ATOM     11  N   UNL     1      -9.765   0.050 123.593  0.00  0.00    +0.000 NA
ATOM     12  H   UNL     1     -10.728  -0.289 123.606  0.00  0.00    +0.000 HD
BRANCH  11  16
ATOM     13  C   UNL     1      -8.367  -3.608 125.495  0.00  0.00    +0.000 C 
ATOM     14  C   UNL     1      -8.314  -2.310 126.298  0.00  0.00    +0.000 C 
ATOM     15  C   UNL     1      -9.226  -1.225 125.705  0.00  0.00    +0.000 C 
ATOM     16  C   UNL     1      -8.895  -0.974 124.219  0.00  0.00    +0.000 C 
ATOM     17  C   UNL     1      -8.987  -2.300 123.442  0.00  0.00    +0.000 C 
ATOM     18  C   UNL     1      -8.062  -3.360 124.025  0.00  0.00    +0.000 C 
ENDBRANCH  11  16
ENDBRANCH   1  11
TORSDOF 3
ENDMDL
MODEL 2
REMARK VINA RESULT:      -7.1      1.065      1.697
REMARK  Name = Thiohexam
REMARK  3 active torsions:
REMARK  status: ('A' for Active; 'I' for Inactive)
REMARK    1  A    between atoms: C_4  and  N_7
REMARK    2  A    between atoms: N_7  and  S_8
REMARK    3  A    between atoms: S_8  and  C_9
REMARK                            x       y       z     vdW  Elec       q    Type
REMARK                         _______ _______ _______ _____ _____    ______ ____
ROOT
ATOM      1  S   UNL     1      -8.574   2.067 125.271  0.00  0.00    +0.000 S 
ENDROOT
BRANCH   1   2
ATOM      2  C   UNL     1      -8.045   2.814 123.772  0.00  0.00    +0.000 A 
ATOM      3  N   UNL     1      -8.921   3.021 122.817  0.00  0.00    +0.000 NA
ATOM      4  C   UNL     1      -8.283   3.465 121.672  0.00  0.00    +0.000 A 
ATOM      5  C   UNL     1      -8.902   3.777 120.443  0.00  0.00    +0.000 A 
ATOM      6  C   UNL     1      -8.126   4.215 119.364  0.00  0.00    +0.000 A 
ATOM      7  C   UNL     1      -6.745   4.334 119.495  0.00  0.00    +0.000 A 
ATOM      8  C   UNL     1      -6.108   4.021 120.699  0.00  0.00    +0.000 A 
ATOM      9  C   UNL     1      -6.898   3.592 121.780  0.00  0.00    +0.000 A 
ATOM     10  S   UNL     1      -6.413   3.145 123.373  0.00  0.00    +0.000 S 
ENDBRANCH   1   2
BRANCH   1  11
ATOM     11  N   UNL     1      -7.831   0.558 125.318  0.00  0.00    +0.000 NA
ATOM     12  H   UNL     1      -6.986   0.583 124.746  0.00  0.00    +0.000 HD
BRANCH  11  16
ATOM     13  C   UNL     1      -9.061  -3.469 124.211  0.00  0.00    +0.000 C 
ATOM     14  C   UNL     1      -9.111  -2.379 123.142  0.00  0.00    +0.000 C 
ATOM     15  C   UNL     1      -8.251  -1.162 123.516  0.00  0.00    +0.000 C 
ATOM     16  C   UNL     1      -8.650  -0.605 124.899  0.00  0.00    +0.000 C 
ATOM     17  C   UNL     1      -8.559  -1.727 125.949  0.00  0.00    +0.000 C 
ATOM     18  C   UNL     1      -9.434  -2.918 125.579  0.00  0.00    +0.000 C 
ENDBRANCH  11  16
ENDBRANCH   1  11
TORSDOF 3
ENDMDL
MODEL 3
REMARK VINA RESULT:      -6.9      1.295      6.881
REMARK  Name = Thiohexam
REMARK  3 active torsions:
REMARK  status: ('A' for Active; 'I' for Inactive)
REMARK    1  A    between atoms: C_4  and  N_7
REMARK    2  A    between atoms: N_7  and  S_8
REMARK    3  A    between atoms: S_8  and  C_9
REMARK                            x       y       z     vdW  Elec       q    Type
REMARK                         _______ _______ _______ _____ _____    ______ ____
ROOT
ATOM      1  S   UNL     1      -9.345   2.110 123.281  0.00  0.00    +0.000 S 
ENDROOT
BRANCH   1   2
ATOM      2  C   UNL     1      -8.649   0.506 123.450  0.00  0.00    +0.000 A 
ATOM      3  N   UNL     1      -9.434  -0.503 123.748  0.00  0.00    +0.000 NA
ATOM      4  C   UNL     1      -8.681  -1.637 123.993  0.00  0.00    +0.000 A 
ATOM      5  C   UNL     1      -9.181  -2.906 124.354  0.00  0.00    +0.000 A 
ATOM      6  C   UNL     1      -8.296  -3.967 124.574  0.00  0.00    +0.000 A 
ATOM      7  C   UNL     1      -6.923  -3.774 124.448  0.00  0.00    +0.000 A 
ATOM      8  C   UNL     1      -6.403  -2.523 124.102  0.00  0.00    +0.000 A 
ATOM      9  C   UNL     1      -7.301  -1.466 123.873  0.00  0.00    +0.000 A 
ATOM     10  S   UNL     1      -6.971   0.168 123.432  0.00  0.00    +0.000 S 
ENDBRANCH   1   2
BRANCH   1  11
ATOM     11  N   UNL     1      -8.039   3.166 123.165  0.00  0.00    +0.000 NA
ATOM     12  H   UNL     1      -8.339   4.101 123.443  0.00  0.00    +0.000 HD
BRANCH  11  16
ATOM     13  C   UNL     1      -6.079   4.731 119.606  0.00  0.00    +0.000 C 
ATOM     14  C   UNL     1      -7.457   4.091 119.450  0.00  0.00    +0.000 C 
ATOM     15  C   UNL     1      -8.208   4.001 120.787  0.00  0.00    +0.000 C 
ATOM     16  C   UNL     1      -7.367   3.259 121.847  0.00  0.00    +0.000 C 
ATOM     17  C   UNL     1      -6.000   3.952 121.993  0.00  0.00    +0.000 C 
ATOM     18  C   UNL     1      -5.255   4.014 120.666  0.00  0.00    +0.000 C 
ENDBRANCH  11  16
ENDBRANCH   1  11
TORSDOF 3
ENDMDL
MODEL 4
REMARK VINA RESULT:      -6.8      8.886      9.847
REMARK  Name = Thiohexam
REMARK  3 active torsions:
REMARK  status: ('A' for Active; 'I' for Inactive)
REMARK    1  A    between atoms: C_4  and  N_7
REMARK    2  A    between atoms: N_7  and  S_8
REMARK    3  A    between atoms: S_8  and  C_9
REMARK                            x       y       z     vdW  Elec       q    Type
REMARK                         _______ _______ _______ _____ _____    ______ ____
ROOT
ATOM      1  S   UNL     1      -8.893   5.676 132.854  0.00  0.00    +0.000 S 
ENDROOT
BRANCH   1   2
ATOM      2  C   UNL     1      -9.963   6.292 131.606  0.00  0.00    +0.000 A 
ATOM      3  N   UNL     1      -9.444   6.845 130.534  0.00  0.00    +0.000 NA
ATOM      4  C   UNL     1     -10.441   7.405 129.755  0.00  0.00    +0.000 A 
ATOM      5  C   UNL     1     -10.257   8.093 128.538  0.00  0.00    +0.000 A 
ATOM      6  C   UNL     1     -11.365   8.611 127.857  0.00  0.00    +0.000 A 
ATOM      7  C   UNL     1     -12.645   8.459 128.380  0.00  0.00    +0.000 A 
ATOM      8  C   UNL     1     -12.852   7.789 129.589  0.00  0.00    +0.000 A 
ATOM      9  C   UNL     1     -11.734   7.264 130.261  0.00  0.00    +0.000 A 
ATOM     10  S   UNL     1     -11.666   6.394 131.749  0.00  0.00    +0.000 S 
ENDBRANCH   1   2
BRANCH   1  11
ATOM     11  N   UNL     1      -9.748   4.450 133.627  0.00  0.00    +0.000 NA
ATOM     12  H   UNL     1      -9.752   4.626 134.632  0.00  0.00    +0.000 HD
BRANCH  11  16
ATOM     13  C   UNL     1      -7.775   0.963 131.922  0.00  0.00    +0.000 C 
ATOM     14  C   UNL     1      -9.301   1.024 131.876  0.00  0.00    +0.000 C 
ATOM     15  C   UNL     1      -9.829   2.452 132.083  0.00  0.00    +0.000 C 
ATOM     16  C   UNL     1      -9.286   3.061 133.393  0.00  0.00    +0.000 C 
ATOM     17  C   UNL     1      -7.747   3.004 133.385  0.00  0.00    +0.000 C 
ATOM     18  C   UNL     1      -7.237   1.581 133.203  0.00  0.00    +0.000 C 
ENDBRANCH  11  16
ENDBRANCH   1  11
TORSDOF 3
ENDMDL
MODEL 5
REMARK VINA RESULT:      -6.7      1.320      6.870
REMARK  Name = Thiohexam
REMARK  3 active torsions:
REMARK  status: ('A' for Active; 'I' for Inactive)
REMARK    1  A    between atoms: C_4  and  N_7
REMARK    2  A    between atoms: N_7  and  S_8
REMARK    3  A    between atoms: S_8  and  C_9
REMARK                            x       y       z     vdW  Elec       q    Type
REMARK                         _______ _______ _______ _____ _____    ______ ____
ROOT
ATOM      1  S   UNL     1      -7.519   2.867 124.471  0.00  0.00    +0.000 S 
ENDROOT
BRANCH   1   2
ATOM      2  C   UNL     1      -7.871   1.152 124.611  0.00  0.00    +0.000 A 
ATOM      3  N   UNL     1      -8.147   0.465 123.526  0.00  0.00    +0.000 NA
ATOM      4  C   UNL     1      -8.549  -0.816 123.861  0.00  0.00    +0.000 A 
ATOM      5  C   UNL     1      -8.935  -1.828 122.958  0.00  0.00    +0.000 A 
ATOM      6  C   UNL     1      -9.322  -3.083 123.444  0.00  0.00    +0.000 A 
ATOM      7  C   UNL     1      -9.336  -3.332 124.813  0.00  0.00    +0.000 A 
ATOM      8  C   UNL     1      -8.967  -2.341 125.727  0.00  0.00    +0.000 A 
ATOM      9  C   UNL     1      -8.571  -1.088 125.229  0.00  0.00    +0.000 A 
ATOM     10  S   UNL     1      -8.061   0.316 126.092  0.00  0.00    +0.000 S 
ENDBRANCH   1   2
BRANCH   1  11
ATOM     11  N   UNL     1      -6.287   2.990 123.331  0.00  0.00    +0.000 NA
ATOM     12  H   UNL     1      -5.447   3.352 123.784  0.00  0.00    +0.000 HD
BRANCH  11  16
ATOM     13  C   UNL     1      -6.968   4.222 119.211  0.00  0.00    +0.000 C 
ATOM     14  C   UNL     1      -5.719   4.737 119.922  0.00  0.00    +0.000 C 
ATOM     15  C   UNL     1      -5.369   3.897 121.160  0.00  0.00    +0.000 C 
ATOM     16  C   UNL     1      -6.567   3.812 122.130  0.00  0.00    +0.000 C 
ATOM     17  C   UNL     1      -7.795   3.263 121.381  0.00  0.00    +0.000 C 
ATOM     18  C   UNL     1      -8.145   4.118 120.170  0.00  0.00    +0.000 C 
ENDBRANCH  11  16
ENDBRANCH   1  11
TORSDOF 3
ENDMDL
MODEL 6
REMARK VINA RESULT:      -6.7      9.676     10.797
REMARK  Name = Thiohexam
REMARK  3 active torsions:
REMARK  status: ('A' for Active; 'I' for Inactive)
REMARK    1  A    between atoms: C_4  and  N_7
REMARK    2  A    between atoms: N_7  and  S_8
REMARK    3  A    between atoms: S_8  and  C_9
REMARK                            x       y       z     vdW  Elec       q    Type
REMARK                         _______ _______ _______ _____ _____    ______ ____
ROOT
ATOM      1  S   UNL     1      -7.083   6.447 131.546  0.00  0.00    +0.000 S 
ENDROOT
BRANCH   1   2
ATOM      2  C   UNL     1      -8.700   6.687 130.903  0.00  0.00    +0.000 A 
ATOM      3  N   UNL     1      -8.857   7.421 129.826  0.00  0.00    +0.000 NA
ATOM      4  C   UNL     1     -10.204   7.618 129.576  0.00  0.00    +0.000 A 
ATOM      5  C   UNL     1     -10.750   8.367 128.512  0.00  0.00    +0.000 A 
ATOM      6  C   UNL     1     -12.139   8.483 128.385  0.00  0.00    +0.000 A 
ATOM      7  C   UNL     1     -12.983   7.872 129.308  0.00  0.00    +0.000 A 
ATOM      8  C   UNL     1     -12.464   7.134 130.376  0.00  0.00    +0.000 A 
ATOM      9  C   UNL     1     -11.068   7.015 130.490  0.00  0.00    +0.000 A 
ATOM     10  S   UNL     1     -10.139   6.177 131.677  0.00  0.00    +0.000 S 
ENDBRANCH   1   2
BRANCH   1  11
ATOM     11  N   UNL     1      -6.088   6.211 130.209  0.00  0.00    +0.000 NA
ATOM     12  H   UNL     1      -6.044   5.214 129.996  0.00  0.00    +0.000 HD
BRANCH  11  16
ATOM     13  C   UNL     1      -1.821   6.547 131.007  0.00  0.00    +0.000 C 
ATOM     14  C   UNL     1      -2.776   7.440 131.797  0.00  0.00    +0.000 C 
ATOM     15  C   UNL     1      -4.222   6.920 131.756  0.00  0.00    +0.000 C 
ATOM     16  C   UNL     1      -4.705   6.736 130.302  0.00  0.00    +0.000 C 
ATOM     17  C   UNL     1      -3.731   5.809 129.552  0.00  0.00    +0.000 C 
ATOM     18  C   UNL     1      -2.307   6.347 129.579  0.00  0.00    +0.000 C 
ENDBRANCH  11  16
ENDBRANCH   1  11
TORSDOF 3
ENDMDL
MODEL 7
REMARK VINA RESULT:      -6.5      9.214     10.548
REMARK  Name = Thiohexam
REMARK  3 active torsions:
REMARK  status: ('A' for Active; 'I' for Inactive)
REMARK    1  A    between atoms: C_4  and  N_7
REMARK    2  A    between atoms: N_7  and  S_8
REMARK    3  A    between atoms: S_8  and  C_9
REMARK                            x       y       z     vdW  Elec       q    Type
REMARK                         _______ _______ _______ _____ _____    ______ ____
ROOT
ATOM      1  S   UNL     1      -9.233   6.551 131.093  0.00  0.00    +0.000 S 
ENDROOT
BRANCH   1   2
ATOM      2  C   UNL     1      -7.509   6.655 131.409  0.00  0.00    +0.000 A 
ATOM      3  N   UNL     1      -6.748   7.337 130.585  0.00  0.00    +0.000 NA
ATOM      4  C   UNL     1      -5.414   7.166 130.915  0.00  0.00    +0.000 A 
ATOM      5  C   UNL     1      -4.312   7.736 130.243  0.00  0.00    +0.000 A 
ATOM      6  C   UNL     1      -3.013   7.471 130.690  0.00  0.00    +0.000 A 
ATOM      7  C   UNL     1      -2.802   6.641 131.787  0.00  0.00    +0.000 A 
ATOM      8  C   UNL     1      -3.878   6.057 132.462  0.00  0.00    +0.000 A 
ATOM      9  C   UNL     1      -5.180   6.336 132.012  0.00  0.00    +0.000 A 
ATOM     10  S   UNL     1      -6.690   5.779 132.631  0.00  0.00    +0.000 S 
ENDBRANCH   1   2
BRANCH   1  11
ATOM     11  N   UNL     1      -9.482   7.361 129.639  0.00  0.00    +0.000 NA
ATOM     12  H   UNL     1      -9.542   8.364 129.820  0.00  0.00    +0.000 HD
BRANCH  11  16
ATOM     13  C   UNL     1     -13.225   7.461 127.416  0.00  0.00    +0.000 C 
ATOM     14  C   UNL     1     -13.183   6.678 128.727  0.00  0.00    +0.000 C 
ATOM     15  C   UNL     1     -11.992   7.086 129.608  0.00  0.00    +0.000 C 
ATOM     16  C   UNL     1     -10.661   6.955 128.838  0.00  0.00    +0.000 C 
ATOM     17  C   UNL     1     -10.736   7.780 127.541  0.00  0.00    +0.000 C 
ATOM     18  C   UNL     1     -11.906   7.350 126.666  0.00  0.00    +0.000 C 
ENDBRANCH  11  16
ENDBRANCH   1  11
TORSDOF 3
ENDMDL
MODEL 8
REMARK VINA RESULT:      -6.5      9.075      9.982
REMARK  Name = Thiohexam
REMARK  3 active torsions:
REMARK  status: ('A' for Active; 'I' for Inactive)
REMARK    1  A    between atoms: C_4  and  N_7
REMARK    2  A    between atoms: N_7  and  S_8
REMARK    3  A    between atoms: S_8  and  C_9
REMARK                            x       y       z     vdW  Elec       q    Type
REMARK                         _______ _______ _______ _____ _____    ______ ____
ROOT
ATOM      1  S   UNL     1      -9.616   3.281 130.701  0.00  0.00    +0.000 S 
ENDROOT
BRANCH   1   2
ATOM      2  C   UNL     1     -10.303   4.829 130.235  0.00  0.00    +0.000 A 
ATOM      3  N   UNL     1     -11.566   4.887 129.882  0.00  0.00    +0.000 NA
ATOM      4  C   UNL     1     -11.870   6.149 129.402  0.00  0.00    +0.000 A 
ATOM      5  C   UNL     1     -13.125   6.575 128.921  0.00  0.00    +0.000 A 
ATOM      6  C   UNL     1     -13.285   7.887 128.462  0.00  0.00    +0.000 A 
ATOM      7  C   UNL     1     -12.210   8.771 128.470  0.00  0.00    +0.000 A 
ATOM      8  C   UNL     1     -10.953   8.368 128.933  0.00  0.00    +0.000 A 
ATOM      9  C   UNL     1     -10.805   7.051 129.400  0.00  0.00    +0.000 A 
ATOM     10  S   UNL     1      -9.403   6.270 130.031  0.00  0.00    +0.000 S 
ENDBRANCH   1   2
BRANCH   1  11
ATOM     11  N   UNL     1     -10.163   2.989 132.266  0.00  0.00    +0.000 NA
ATOM     12  H   UNL     1     -10.908   3.650 132.489  0.00  0.00    +0.000 HD
BRANCH  11  16
ATOM     13  C   UNL     1      -6.567   3.885 134.552  0.00  0.00    +0.000 C 
ATOM     14  C   UNL     1      -6.804   2.441 134.116  0.00  0.00    +0.000 C 
ATOM     15  C   UNL     1      -7.825   2.342 132.971  0.00  0.00    +0.000 C 
ATOM     16  C   UNL     1      -9.151   3.035 133.349  0.00  0.00    +0.000 C 
ATOM     17  C   UNL     1      -8.870   4.494 133.754  0.00  0.00    +0.000 C 
ATOM     18  C   UNL     1      -7.875   4.577 134.904  0.00  0.00    +0.000 C 
ENDBRANCH  11  16
ENDBRANCH   1  11
TORSDOF 3
ENDMDL
MODEL 9
REMARK VINA RESULT:      -6.4      1.650      7.089
REMARK  Name = Thiohexam
REMARK  3 active torsions:
REMARK  status: ('A' for Active; 'I' for Inactive)
REMARK    1  A    between atoms: C_4  and  N_7
REMARK    2  A    between atoms: N_7  and  S_8
REMARK    3  A    between atoms: S_8  and  C_9
REMARK                            x       y       z     vdW  Elec       q    Type
REMARK                         _______ _______ _______ _____ _____    ______ ____
ROOT
ATOM      1  S   UNL     1      -6.472   2.109 125.299  0.00  0.00    +0.000 S 
ENDROOT
BRANCH   1   2
ATOM      2  C   UNL     1      -7.336   0.630 124.908  0.00  0.00    +0.000 A 
ATOM      3  N   UNL     1      -7.005  -0.484 125.519  0.00  0.00    +0.000 NA
ATOM      4  C   UNL     1      -7.684  -1.553 124.962  0.00  0.00    +0.000 A 
ATOM      5  C   UNL     1      -7.571  -2.904 125.353  0.00  0.00    +0.000 A 
ATOM      6  C   UNL     1      -8.322  -3.884 124.694  0.00  0.00    +0.000 A 
ATOM      7  C   UNL     1      -9.171  -3.534 123.649  0.00  0.00    +0.000 A 
ATOM      8  C   UNL     1      -9.292  -2.203 123.237  0.00  0.00    +0.000 A 
ATOM      9  C   UNL     1      -8.541  -1.225 123.911  0.00  0.00    +0.000 A 
ATOM     10  S   UNL     1      -8.480   0.478 123.644  0.00  0.00    +0.000 S 
ENDBRANCH   1   2
BRANCH   1  11
ATOM     11  N   UNL     1      -6.998   3.255 124.184  0.00  0.00    +0.000 NA
ATOM     12  H   UNL     1      -7.971   3.065 123.942  0.00  0.00    +0.000 HD
BRANCH  11  16
ATOM     13  C   UNL     1      -5.275   4.816 120.503  0.00  0.00    +0.000 C 
ATOM     14  C   UNL     1      -6.241   3.638 120.405  0.00  0.00    +0.000 C 
ATOM     15  C   UNL     1      -7.099   3.486 121.671  0.00  0.00    +0.000 C 
ATOM     16  C   UNL     1      -6.215   3.378 122.931  0.00  0.00    +0.000 C 
ATOM     17  C   UNL     1      -5.277   4.597 123.005  0.00  0.00    +0.000 C 
ATOM     18  C   UNL     1      -4.416   4.723 121.756  0.00  0.00    +0.000 C 
ENDBRANCH  11  16
ENDBRANCH   1  11
TORSDOF 3
ENDMDL
