MODEL 1
REMARK VINA RESULT:      -4.1      0.000      0.000
REMARK  Name = Thiotepa
REMARK  3 active torsions:
REMARK  status: ('A' for Active; 'I' for Inactive)
REMARK    1  A    between atoms: P_2  and  N_3
REMARK    2  A    between atoms: P_2  and  N_6
REMARK    3  A    between atoms: P_2  and  N_9
REMARK                            x       y       z     vdW  Elec       q    Type
REMARK                         _______ _______ _______ _____ _____    ______ ____
ROOT
ATOM      1  S   UNL     1     -10.325   7.843 129.017  0.00  0.00    +0.000 S 
ATOM      2  P   UNL     1     -10.121   6.208 129.959  0.00  0.00    +0.000 P 
ENDROOT
BRANCH   2   3
ATOM      3  N   UNL     1      -9.162   6.929 131.238  0.00  0.00    +0.000 NA
ATOM      4  C   UNL     1      -8.340   6.076 132.138  0.00  0.00    +0.000 C 
ATOM      5  C   UNL     1      -7.655   6.838 131.084  0.00  0.00    +0.000 C 
ENDBRANCH   2   3
BRANCH   2   6
ATOM      6  N   UNL     1     -11.846   6.067 130.290  0.00  0.00    +0.000 NA
ATOM      7  C   UNL     1     -12.395   6.934 131.415  0.00  0.00    +0.000 C 
ATOM      8  C   UNL     1     -12.802   7.180 130.022  0.00  0.00    +0.000 C 
ENDBRANCH   2   6
BRANCH   2   9
ATOM      9  N   UNL     1      -9.930   4.674 130.842  0.00  0.00    +0.000 NA
ATOM     10  C   UNL     1     -10.853   3.561 130.526  0.00  0.00    +0.000 C 
ATOM     11  C   UNL     1      -9.460   3.510 130.051  0.00  0.00    +0.000 C 
ENDBRANCH   2   9
TORSDOF 3
ENDMDL
MODEL 2
REMARK VINA RESULT:      -4.1      9.111     10.073
REMARK  Name = Thiotepa
REMARK  3 active torsions:
REMARK  status: ('A' for Active; 'I' for Inactive)
REMARK    1  A    between atoms: P_2  and  N_3
REMARK    2  A    between atoms: P_2  and  N_6
REMARK    3  A    between atoms: P_2  and  N_9
REMARK                            x       y       z     vdW  Elec       q    Type
REMARK                         _______ _______ _______ _____ _____    ______ ____
ROOT
ATOM      1  S   UNL     1      -9.356   0.597 125.835  0.00  0.00    +0.000 S 
ATOM      2  P   UNL     1      -8.437  -0.632 124.718  0.00  0.00    +0.000 P 
ENDROOT
BRANCH   2   3
ATOM      3  N   UNL     1      -9.625  -1.904 124.944  0.00  0.00    +0.000 NA
ATOM      4  C   UNL     1      -9.299  -3.311 124.592  0.00  0.00    +0.000 C 
ATOM      5  C   UNL     1      -9.313  -2.934 126.013  0.00  0.00    +0.000 C 
ENDBRANCH   2   3
BRANCH   2   6
ATOM      6  N   UNL     1      -8.652   0.361 123.278  0.00  0.00    +0.000 NA
ATOM      7  C   UNL     1     -10.005   0.271 122.586  0.00  0.00    +0.000 C 
ATOM      8  C   UNL     1      -9.588   1.520 123.242  0.00  0.00    +0.000 C 
ENDBRANCH   2   6
BRANCH   2   9
ATOM      9  N   UNL     1      -7.575  -1.785 123.672  0.00  0.00    +0.000 NA
ATOM     10  C   UNL     1      -6.556  -1.259 122.736  0.00  0.00    +0.000 C 
ATOM     11  C   UNL     1      -6.130  -1.977 123.949  0.00  0.00    +0.000 C 
ENDBRANCH   2   9
TORSDOF 3
ENDMDL
MODEL 3
REMARK VINA RESULT:      -4.0      9.002     10.708
REMARK  Name = Thiotepa
REMARK  3 active torsions:
REMARK  status: ('A' for Active; 'I' for Inactive)
REMARK    1  A    between atoms: P_2  and  N_3
REMARK    2  A    between atoms: P_2  and  N_6
REMARK    3  A    between atoms: P_2  and  N_9
REMARK                            x       y       z     vdW  Elec       q    Type
REMARK                         _______ _______ _______ _____ _____    ______ ____
ROOT
ATOM      1  S   UNL     1      -8.903  -3.482 126.970  0.00  0.00    +0.000 S 
ATOM      2  P   UNL     1      -7.832  -2.813 125.553  0.00  0.00    +0.000 P 
ENDROOT
BRANCH   2   3
ATOM      3  N   UNL     1      -9.212  -2.358 124.570  0.00  0.00    +0.000 NA
ATOM      4  C   UNL     1      -9.032  -1.999 123.137  0.00  0.00    +0.000 C 
ATOM      5  C   UNL     1      -9.594  -3.319 123.460  0.00  0.00    +0.000 C 
ENDBRANCH   2   3
BRANCH   2   6
ATOM      6  N   UNL     1      -7.148  -1.526 126.544  0.00  0.00    +0.000 NA
ATOM      7  C   UNL     1      -8.038  -0.316 126.796  0.00  0.00    +0.000 C 
ATOM      8  C   UNL     1      -7.666  -1.208 127.905  0.00  0.00    +0.000 C 
ENDBRANCH   2   6
BRANCH   2   9
ATOM      9  N   UNL     1      -6.828  -2.185 124.224  0.00  0.00    +0.000 NA
ATOM     10  C   UNL     1      -5.436  -1.781 124.526  0.00  0.00    +0.000 C 
ATOM     11  C   UNL     1      -5.689  -3.036 123.798  0.00  0.00    +0.000 C 
ENDBRANCH   2   9
TORSDOF 3
ENDMDL
MODEL 4
REMARK VINA RESULT:      -3.8      1.757      3.281
REMARK  Name = Thiotepa
REMARK  3 active torsions:
REMARK  status: ('A' for Active; 'I' for Inactive)
REMARK    1  A    between atoms: P_2  and  N_3
REMARK    2  A    between atoms: P_2  and  N_6
REMARK    3  A    between atoms: P_2  and  N_9
REMARK                            x       y       z     vdW  Elec       q    Type
REMARK                         _______ _______ _______ _____ _____    ______ ____
ROOT
ATOM      1  S   UNL     1     -12.184   6.534 130.216  0.00  0.00    +0.000 S 
ATOM      2  P   UNL     1     -10.323   6.218 130.412  0.00  0.00    +0.000 P 
ENDROOT
BRANCH   2   3
ATOM      3  N   UNL     1     -10.402   4.615 129.702  0.00  0.00    +0.000 NA
ATOM      4  C   UNL     1      -9.353   3.605 130.003  0.00  0.00    +0.000 C 
ATOM      5  C   UNL     1     -10.661   3.467 130.659  0.00  0.00    +0.000 C 
ENDBRANCH   2   3
BRANCH   2   6
ATOM      6  N   UNL     1      -9.884   7.518 129.306  0.00  0.00    +0.000 NA
ATOM      7  C   UNL     1     -10.273   7.328 127.846  0.00  0.00    +0.000 C 
ATOM      8  C   UNL     1     -10.904   8.386 128.652  0.00  0.00    +0.000 C 
ENDBRANCH   2   6
BRANCH   2   9
ATOM      9  N   UNL     1      -8.577   5.922 130.596  0.00  0.00    +0.000 NA
ATOM     10  C   UNL     1      -7.686   7.084 130.812  0.00  0.00    +0.000 C 
ATOM     11  C   UNL     1      -8.000   6.186 131.937  0.00  0.00    +0.000 C 
ENDBRANCH   2   9
TORSDOF 3
ENDMDL
MODEL 5
REMARK VINA RESULT:      -3.8      8.590      9.931
REMARK  Name = Thiotepa
REMARK  3 active torsions:
REMARK  status: ('A' for Active; 'I' for Inactive)
REMARK    1  A    between atoms: P_2  and  N_3
REMARK    2  A    between atoms: P_2  and  N_6
REMARK    3  A    between atoms: P_2  and  N_9
REMARK                            x       y       z     vdW  Elec       q    Type
REMARK                         _______ _______ _______ _____ _____    ______ ____
ROOT
ATOM      1  S   UNL     1      -9.447  -0.153 122.925  0.00  0.00    +0.000 S 
ATOM      2  P   UNL     1      -8.646  -1.451 124.055  0.00  0.00    +0.000 P 
ENDROOT
BRANCH   2   3
ATOM      3  N   UNL     1      -7.011  -0.945 123.670  0.00  0.00    +0.000 NA
ATOM      4  C   UNL     1      -5.852  -1.814 124.009  0.00  0.00    +0.000 C 
ATOM      5  C   UNL     1      -6.289  -1.750 122.606  0.00  0.00    +0.000 C 
ENDBRANCH   2   3
BRANCH   2   6
ATOM      6  N   UNL     1      -9.334  -0.748 125.518  0.00  0.00    +0.000 NA
ATOM      7  C   UNL     1      -8.480   0.283 126.243  0.00  0.00    +0.000 C 
ATOM      8  C   UNL     1      -9.741   0.684 125.598  0.00  0.00    +0.000 C 
ENDBRANCH   2   6
BRANCH   2   9
ATOM      9  N   UNL     1      -7.894  -2.667 125.114  0.00  0.00    +0.000 NA
ATOM     10  C   UNL     1      -8.749  -3.365 126.101  0.00  0.00    +0.000 C 
ATOM     11  C   UNL     1      -8.299  -4.078 124.893  0.00  0.00    +0.000 C 
ENDBRANCH   2   9
TORSDOF 3
ENDMDL
MODEL 6
REMARK VINA RESULT:      -3.7      9.572     10.945
REMARK  Name = Thiotepa
REMARK  3 active torsions:
REMARK  status: ('A' for Active; 'I' for Inactive)
REMARK    1  A    between atoms: P_2  and  N_3
REMARK    2  A    between atoms: P_2  and  N_6
REMARK    3  A    between atoms: P_2  and  N_9
REMARK                            x       y       z     vdW  Elec       q    Type
REMARK                         _______ _______ _______ _____ _____    ______ ____
ROOT
ATOM      1  S   UNL     1      -8.292  -0.692 123.464  0.00  0.00    +0.000 S 
ATOM      2  P   UNL     1      -6.851  -1.796 124.019  0.00  0.00    +0.000 P 
ENDROOT
BRANCH   2   3
ATOM      3  N   UNL     1      -6.724  -1.037 125.596  0.00  0.00    +0.000 NA
ATOM      4  C   UNL     1      -5.541  -1.289 126.461  0.00  0.00    +0.000 C 
ATOM      5  C   UNL     1      -5.627  -0.001 125.758  0.00  0.00    +0.000 C 
ENDBRANCH   2   3
BRANCH   2   6
ATOM      6  N   UNL     1      -7.821  -3.266 123.959  0.00  0.00    +0.000 NA
ATOM      7  C   UNL     1      -8.767  -3.503 125.129  0.00  0.00    +0.000 C 
ATOM      8  C   UNL     1      -9.301  -3.236 123.784  0.00  0.00    +0.000 C 
ENDBRANCH   2   6
BRANCH   2   9
ATOM      9  N   UNL     1      -5.499  -2.830 124.538  0.00  0.00    +0.000 NA
ATOM     10  C   UNL     1      -5.380  -4.181 123.946  0.00  0.00    +0.000 C 
ATOM     11  C   UNL     1      -4.456  -3.115 123.522  0.00  0.00    +0.000 C 
ENDBRANCH   2   9
TORSDOF 3
ENDMDL
MODEL 7
REMARK VINA RESULT:      -3.7      8.510     10.311
REMARK  Name = Thiotepa
REMARK  3 active torsions:
REMARK  status: ('A' for Active; 'I' for Inactive)
REMARK    1  A    between atoms: P_2  and  N_3
REMARK    2  A    between atoms: P_2  and  N_6
REMARK    3  A    between atoms: P_2  and  N_9
REMARK                            x       y       z     vdW  Elec       q    Type
REMARK                         _______ _______ _______ _____ _____    ______ ____
ROOT
ATOM      1  S   UNL     1      -9.026  -3.121 123.680  0.00  0.00    +0.000 S 
ATOM      2  P   UNL     1      -8.517  -1.791 124.935  0.00  0.00    +0.000 P 
ENDROOT
BRANCH   2   3
ATOM      3  N   UNL     1      -7.965  -2.958 126.123  0.00  0.00    +0.000 NA
ATOM      4  C   UNL     1      -7.983  -2.624 127.573  0.00  0.00    +0.000 C 
ATOM      5  C   UNL     1      -9.023  -3.524 127.053  0.00  0.00    +0.000 C 
ENDBRANCH   2   3
BRANCH   2   6
ATOM      6  N   UNL     1      -7.267  -1.132 123.881  0.00  0.00    +0.000 NA
ATOM      7  C   UNL     1      -5.939  -1.877 123.854  0.00  0.00    +0.000 C 
ATOM      8  C   UNL     1      -6.798  -1.846 122.659  0.00  0.00    +0.000 C 
ENDBRANCH   2   6
BRANCH   2   9
ATOM      9  N   UNL     1      -8.039  -0.543 126.112  0.00  0.00    +0.000 NA
ATOM     10  C   UNL     1      -7.707   0.808 125.608  0.00  0.00    +0.000 C 
ATOM     11  C   UNL     1      -8.986   0.583 126.302  0.00  0.00    +0.000 C 
ENDBRANCH   2   9
TORSDOF 3
ENDMDL
MODEL 8
REMARK VINA RESULT:      -3.7      8.683     10.318
REMARK  Name = Thiotepa
REMARK  3 active torsions:
REMARK  status: ('A' for Active; 'I' for Inactive)
REMARK    1  A    between atoms: P_2  and  N_3
REMARK    2  A    between atoms: P_2  and  N_6
REMARK    3  A    between atoms: P_2  and  N_9
REMARK                            x       y       z     vdW  Elec       q    Type
REMARK                         _______ _______ _______ _____ _____    ______ ____
ROOT
ATOM      1  S   UNL     1      -5.626  -0.894 125.589  0.00  0.00    +0.000 S 
ATOM      2  P   UNL     1      -7.415  -1.432 125.257  0.00  0.00    +0.000 P 
ENDROOT
BRANCH   2   3
ATOM      3  N   UNL     1      -7.948   0.187 124.843  0.00  0.00    +0.000 NA
ATOM      4  C   UNL     1      -9.390   0.548 124.912  0.00  0.00    +0.000 C 
ATOM      5  C   UNL     1      -8.499   1.027 125.980  0.00  0.00    +0.000 C 
ENDBRANCH   2   3
BRANCH   2   6
ATOM      6  N   UNL     1      -6.962  -2.455 123.895  0.00  0.00    +0.000 NA
ATOM      7  C   UNL     1      -6.513  -1.739 122.628  0.00  0.00    +0.000 C 
ATOM      8  C   UNL     1      -5.558  -2.548 123.403  0.00  0.00    +0.000 C 
ENDBRANCH   2   6
BRANCH   2   9
ATOM      9  N   UNL     1      -9.094  -1.937 124.946  0.00  0.00    +0.000 NA
ATOM     10  C   UNL     1      -9.333  -3.306 124.437  0.00  0.00    +0.000 C 
ATOM     11  C   UNL     1      -9.645  -2.985 125.840  0.00  0.00    +0.000 C 
ENDBRANCH   2   9
TORSDOF 3
ENDMDL
MODEL 9
REMARK VINA RESULT:      -3.6      8.581      9.828
REMARK  Name = Thiotepa
REMARK  3 active torsions:
REMARK  status: ('A' for Active; 'I' for Inactive)
REMARK    1  A    between atoms: P_2  and  N_3
REMARK    2  A    between atoms: P_2  and  N_6
REMARK    3  A    between atoms: P_2  and  N_9
REMARK                            x       y       z     vdW  Elec       q    Type
REMARK                         _______ _______ _______ _____ _____    ______ ____
ROOT
ATOM      1  S   UNL     1      -8.733  -2.126 126.081  0.00  0.00    +0.000 S 
ATOM      2  P   UNL     1      -8.860  -0.672 124.869  0.00  0.00    +0.000 P 
ENDROOT
BRANCH   2   3
ATOM      3  N   UNL     1      -7.135  -0.351 124.891  0.00  0.00    +0.000 NA
ATOM      4  C   UNL     1      -6.618   1.015 124.611  0.00  0.00    +0.000 C 
ATOM      5  C   UNL     1      -6.631   0.547 126.005  0.00  0.00    +0.000 C 
ENDBRANCH   2   3
BRANCH   2   6
ATOM      6  N   UNL     1      -9.426  -1.692 123.547  0.00  0.00    +0.000 NA
ATOM      7  C   UNL     1      -8.358  -2.446 122.766  0.00  0.00    +0.000 C 
ATOM      8  C   UNL     1      -9.331  -3.179 123.592  0.00  0.00    +0.000 C 
ENDBRANCH   2   6
BRANCH   2   9
ATOM      9  N   UNL     1      -8.979   0.693 123.732  0.00  0.00    +0.000 NA
ATOM     10  C   UNL     1     -10.125   0.730 122.796  0.00  0.00    +0.000 C 
ATOM     11  C   UNL     1     -10.099   1.641 123.952  0.00  0.00    +0.000 C 
ENDBRANCH   2   9
TORSDOF 3
ENDMDL
