MODEL 1
REMARK VINA RESULT:      -8.1      0.000      0.000
REMARK  Name = Thiothixene
REMARK  8 active torsions:
REMARK  status: ('A' for Active; 'I' for Inactive)
REMARK    1  A    between atoms: C_1  and  N_2
REMARK    2  A    between atoms: N_2  and  C_3
REMARK    3  A    between atoms: N_2  and  S_4
REMARK    4  A    between atoms: S_4  and  C_7
REMARK    5  A    between atoms: C_19  and  C_20
REMARK    6  A    between atoms: C_20  and  C_21
REMARK    7  A    between atoms: C_21  and  N_22
REMARK    8  A    between atoms: N_25  and  C_26
REMARK                            x       y       z     vdW  Elec       q    Type
REMARK                         _______ _______ _______ _____ _____    ______ ____
ROOT
ATOM      1  C   UNL     1      -6.444   2.708 126.076  0.00  0.00    +0.000 A 
ATOM      2  C   UNL     1      -7.147   2.779 124.892  0.00  0.00    +0.000 A 
ATOM      3  C   UNL     1      -6.712   3.333 123.681  0.00  0.00    +0.000 A 
ATOM      4  C   UNL     1      -5.448   3.910 123.752  0.00  0.00    +0.000 A 
ATOM      5  S   UNL     1      -4.638   4.710 122.404  0.00  0.00    +0.000 S 
ATOM      6  C   UNL     1      -5.783   4.543 121.062  0.00  0.00    +0.000 A 
ATOM      7  C   UNL     1      -5.337   5.121 119.864  0.00  0.00    +0.000 A 
ATOM      8  C   UNL     1      -6.113   5.081 118.715  0.00  0.00    +0.000 A 
ATOM      9  C   UNL     1      -7.348   4.461 118.748  0.00  0.00    +0.000 A 
ATOM     10  C   UNL     1      -7.799   3.886 119.931  0.00  0.00    +0.000 A 
ATOM     11  C   UNL     1      -7.036   3.910 121.121  0.00  0.00    +0.000 A 
ATOM     12  C   UNL     1      -7.537   3.314 122.407  0.00  0.00    +0.000 C 
ATOM     13  C   UNL     1      -8.777   2.759 122.371  0.00  0.00    +0.000 C 
ATOM     14  C   UNL     1      -4.722   3.900 124.970  0.00  0.00    +0.000 A 
ATOM     15  C   UNL     1      -5.213   3.304 126.136  0.00  0.00    +0.000 A 
ENDROOT
BRANCH   1  16
ATOM     16  S   UNL     1      -7.303   1.991 127.456  0.00  0.00    +0.000 S 
ATOM     17  O   UNL     1      -6.709   0.691 127.744  0.00  0.00    +0.000 OA
ATOM     18  O   UNL     1      -8.713   2.104 127.191  0.00  0.00    +0.000 OA
BRANCH  16  20
ATOM     19  C   UNL     1      -8.124   3.447 129.490  0.00  0.00    +0.000 C 
ATOM     20  N   UNL     1      -6.893   2.999 128.788  0.00  0.00    +0.000 NA
ATOM     21  C   UNL     1      -5.944   2.423 129.777  0.00  0.00    +0.000 C 
ENDBRANCH  16  20
ENDBRANCH   1  16
BRANCH  13  22
ATOM     22  C   UNL     1      -9.504   2.152 123.511  0.00  0.00    +0.000 C 
BRANCH  22  23
ATOM     23  C   UNL     1      -9.966   0.732 123.428  0.00  0.00    +0.000 C 
BRANCH  23  24
ATOM     24  N   UNL     1      -8.828  -0.158 123.618  0.00  0.00    +0.000 NA
ATOM     25  C   UNL     1      -9.001  -1.301 122.722  0.00  0.00    +0.000 C 
ATOM     26  C   UNL     1      -7.789  -2.236 122.822  0.00  0.00    +0.000 C 
ATOM     27  N   UNL     1      -7.481  -2.712 124.192  0.00  0.00    +0.000 NA
ATOM     28  C   UNL     1      -8.493  -3.669 124.636  0.00  0.00    +0.000 C 
ATOM     29  C   UNL     1      -7.446  -1.570 125.121  0.00  0.00    +0.000 C 
ATOM     30  C   UNL     1      -8.676  -0.658 125.005  0.00  0.00    +0.000 C 
ENDBRANCH  23  24
ENDBRANCH  22  23
ENDBRANCH  13  22
TORSDOF 5
ENDMDL
MODEL 2
REMARK VINA RESULT:      -7.7      2.956      5.919
REMARK  Name = Thiothixene
REMARK  8 active torsions:
REMARK  status: ('A' for Active; 'I' for Inactive)
REMARK    1  A    between atoms: C_1  and  N_2
REMARK    2  A    between atoms: N_2  and  C_3
REMARK    3  A    between atoms: N_2  and  S_4
REMARK    4  A    between atoms: S_4  and  C_7
REMARK    5  A    between atoms: C_19  and  C_20
REMARK    6  A    between atoms: C_20  and  C_21
REMARK    7  A    between atoms: C_21  and  N_22
REMARK    8  A    between atoms: N_25  and  C_26
REMARK                            x       y       z     vdW  Elec       q    Type
REMARK                         _______ _______ _______ _____ _____    ______ ____
ROOT
ATOM      1  C   UNL     1      -7.723   1.746 127.418  0.00  0.00    +0.000 A 
ATOM      2  C   UNL     1      -6.810   2.385 126.605  0.00  0.00    +0.000 A 
ATOM      3  C   UNL     1      -6.938   2.652 125.236  0.00  0.00    +0.000 A 
ATOM      4  C   UNL     1      -8.108   2.149 124.674  0.00  0.00    +0.000 A 
ATOM      5  S   UNL     1      -8.544   2.300 122.972  0.00  0.00    +0.000 S 
ATOM      6  C   UNL     1      -7.203   3.221 122.271  0.00  0.00    +0.000 A 
ATOM      7  C   UNL     1      -7.342   3.463 120.896  0.00  0.00    +0.000 A 
ATOM      8  C   UNL     1      -6.378   4.168 120.190  0.00  0.00    +0.000 A 
ATOM      9  C   UNL     1      -5.262   4.645 120.850  0.00  0.00    +0.000 A 
ATOM     10  C   UNL     1      -5.116   4.411 122.214  0.00  0.00    +0.000 A 
ATOM     11  C   UNL     1      -6.075   3.693 122.964  0.00  0.00    +0.000 A 
ATOM     12  C   UNL     1      -5.903   3.415 124.431  0.00  0.00    +0.000 C 
ATOM     13  C   UNL     1      -4.760   3.879 125.001  0.00  0.00    +0.000 C 
ATOM     14  C   UNL     1      -9.042   1.442 125.474  0.00  0.00    +0.000 A 
ATOM     15  C   UNL     1      -8.856   1.235 126.845  0.00  0.00    +0.000 A 
ENDROOT
BRANCH   1  16
ATOM     16  S   UNL     1      -7.233   1.509 129.110  0.00  0.00    +0.000 S 
ATOM     17  O   UNL     1      -5.848   1.055 129.130  0.00  0.00    +0.000 OA
ATOM     18  O   UNL     1      -8.262   0.735 129.752  0.00  0.00    +0.000 OA
BRANCH  16  20
ATOM     19  C   UNL     1      -8.565   3.710 129.674  0.00  0.00    +0.000 C 
ATOM     20  N   UNL     1      -7.216   3.095 129.776  0.00  0.00    +0.000 NA
ATOM     21  C   UNL     1      -6.727   3.212 131.176  0.00  0.00    +0.000 C 
ENDBRANCH  16  20
ENDBRANCH   1  16
BRANCH  13  22
ATOM     22  C   UNL     1      -4.340   3.696 126.411  0.00  0.00    +0.000 C 
BRANCH  22  23
ATOM     23  C   UNL     1      -2.890   3.544 126.742  0.00  0.00    +0.000 C 
BRANCH  23  24
ATOM     24  N   UNL     1      -2.602   4.248 127.985  0.00  0.00    +0.000 NA
ATOM     25  C   UNL     1      -3.596   3.832 128.974  0.00  0.00    +0.000 C 
ATOM     26  C   UNL     1      -3.293   4.484 130.330  0.00  0.00    +0.000 C 
ATOM     27  N   UNL     1      -3.198   5.963 130.302  0.00  0.00    +0.000 NA
ATOM     28  C   UNL     1      -4.520   6.552 130.102  0.00  0.00    +0.000 C 
ATOM     29  C   UNL     1      -2.303   6.385 129.212  0.00  0.00    +0.000 C 
ATOM     30  C   UNL     1      -2.636   5.725 127.865  0.00  0.00    +0.000 C 
ENDBRANCH  23  24
ENDBRANCH  22  23
ENDBRANCH  13  22
TORSDOF 5
ENDMDL
MODEL 3
REMARK VINA RESULT:      -7.6      3.314      8.665
REMARK  Name = Thiothixene
REMARK  8 active torsions:
REMARK  status: ('A' for Active; 'I' for Inactive)
REMARK    1  A    between atoms: C_1  and  N_2
REMARK    2  A    between atoms: N_2  and  C_3
REMARK    3  A    between atoms: N_2  and  S_4
REMARK    4  A    between atoms: S_4  and  C_7
REMARK    5  A    between atoms: C_19  and  C_20
REMARK    6  A    between atoms: C_20  and  C_21
REMARK    7  A    between atoms: C_21  and  N_22
REMARK    8  A    between atoms: N_25  and  C_26
REMARK                            x       y       z     vdW  Elec       q    Type
REMARK                         _______ _______ _______ _____ _____    ______ ____
ROOT
ATOM      1  C   UNL     1      -7.860   1.515 124.903  0.00  0.00    +0.000 A 
ATOM      2  C   UNL     1      -7.886   1.469 126.281  0.00  0.00    +0.000 A 
ATOM      3  C   UNL     1      -7.791   0.331 127.091  0.00  0.00    +0.000 A 
ATOM      4  C   UNL     1      -7.719  -0.861 126.376  0.00  0.00    +0.000 A 
ATOM      5  S   UNL     1      -7.619  -2.462 127.109  0.00  0.00    +0.000 S 
ATOM      6  C   UNL     1      -7.600  -2.131 128.850  0.00  0.00    +0.000 A 
ATOM      7  C   UNL     1      -7.523  -3.285 129.644  0.00  0.00    +0.000 A 
ATOM      8  C   UNL     1      -7.501  -3.204 131.029  0.00  0.00    +0.000 A 
ATOM      9  C   UNL     1      -7.554  -1.966 131.640  0.00  0.00    +0.000 A 
ATOM     10  C   UNL     1      -7.631  -0.816 130.861  0.00  0.00    +0.000 A 
ATOM     11  C   UNL     1      -7.659  -0.861 129.448  0.00  0.00    +0.000 A 
ATOM     12  C   UNL     1      -7.771   0.381 128.608  0.00  0.00    +0.000 C 
ATOM     13  C   UNL     1      -7.861   1.557 129.281  0.00  0.00    +0.000 C 
ATOM     14  C   UNL     1      -7.743  -0.850 124.958  0.00  0.00    +0.000 A 
ATOM     15  C   UNL     1      -7.816   0.333 124.215  0.00  0.00    +0.000 A 
ENDROOT
BRANCH   1  16
ATOM     16  S   UNL     1      -8.062   3.121 124.170  0.00  0.00    +0.000 S 
ATOM     17  O   UNL     1      -8.778   3.972 125.113  0.00  0.00    +0.000 OA
ATOM     18  O   UNL     1      -8.569   2.926 122.837  0.00  0.00    +0.000 OA
BRANCH  16  20
ATOM     19  C   UNL     1      -6.066   3.950 122.665  0.00  0.00    +0.000 C 
ATOM     20  N   UNL     1      -6.466   3.757 124.083  0.00  0.00    +0.000 NA
ATOM     21  C   UNL     1      -6.220   5.014 124.839  0.00  0.00    +0.000 C 
ENDBRANCH  16  20
ENDBRANCH   1  16
BRANCH  13  22
ATOM     22  C   UNL     1      -8.023   2.905 128.684  0.00  0.00    +0.000 C 
BRANCH  22  23
ATOM     23  C   UNL     1      -6.970   3.945 128.896  0.00  0.00    +0.000 C 
BRANCH  23  24
ATOM     24  N   UNL     1      -7.587   5.160 129.409  0.00  0.00    +0.000 NA
ATOM     25  C   UNL     1      -6.998   5.442 130.718  0.00  0.00    +0.000 C 
ATOM     26  C   UNL     1      -7.555   6.759 131.273  0.00  0.00    +0.000 C 
ATOM     27  N   UNL     1      -9.033   6.821 131.363  0.00  0.00    +0.000 NA
ATOM     28  C   UNL     1      -9.514   5.948 132.432  0.00  0.00    +0.000 C 
ATOM     29  C   UNL     1      -9.629   6.401 130.083  0.00  0.00    +0.000 C 
ATOM     30  C   UNL     1      -9.060   5.075 129.557  0.00  0.00    +0.000 C 
ENDBRANCH  23  24
ENDBRANCH  22  23
ENDBRANCH  13  22
TORSDOF 5
ENDMDL
MODEL 4
REMARK VINA RESULT:      -7.5      4.891      8.316
REMARK  Name = Thiothixene
REMARK  8 active torsions:
REMARK  status: ('A' for Active; 'I' for Inactive)
REMARK    1  A    between atoms: C_1  and  N_2
REMARK    2  A    between atoms: N_2  and  C_3
REMARK    3  A    between atoms: N_2  and  S_4
REMARK    4  A    between atoms: S_4  and  C_7
REMARK    5  A    between atoms: C_19  and  C_20
REMARK    6  A    between atoms: C_20  and  C_21
REMARK    7  A    between atoms: C_21  and  N_22
REMARK    8  A    between atoms: N_25  and  C_26
REMARK                            x       y       z     vdW  Elec       q    Type
REMARK                         _______ _______ _______ _____ _____    ______ ____
ROOT
ATOM      1  C   UNL     1      -9.492   4.044 130.423  0.00  0.00    +0.000 A 
ATOM      2  C   UNL     1      -8.901   3.126 129.578  0.00  0.00    +0.000 A 
ATOM      3  C   UNL     1      -8.588   1.792 129.865  0.00  0.00    +0.000 A 
ATOM      4  C   UNL     1      -8.874   1.418 131.175  0.00  0.00    +0.000 A 
ATOM      5  S   UNL     1      -8.568  -0.183 131.847  0.00  0.00    +0.000 S 
ATOM      6  C   UNL     1      -7.893  -1.093 130.484  0.00  0.00    +0.000 A 
ATOM      7  C   UNL     1      -7.569  -2.421 130.797  0.00  0.00    +0.000 A 
ATOM      8  C   UNL     1      -7.027  -3.272 129.844  0.00  0.00    +0.000 A 
ATOM      9  C   UNL     1      -6.804  -2.806 128.562  0.00  0.00    +0.000 A 
ATOM     10  C   UNL     1      -7.122  -1.490 128.243  0.00  0.00    +0.000 A 
ATOM     11  C   UNL     1      -7.672  -0.595 129.189  0.00  0.00    +0.000 A 
ATOM     12  C   UNL     1      -7.989   0.836 128.850  0.00  0.00    +0.000 C 
ATOM     13  C   UNL     1      -7.703   1.232 127.583  0.00  0.00    +0.000 C 
ATOM     14  C   UNL     1      -9.432   2.355 132.082  0.00  0.00    +0.000 A 
ATOM     15  C   UNL     1      -9.742   3.668 131.715  0.00  0.00    +0.000 A 
ENDROOT
BRANCH   1  16
ATOM     16  S   UNL     1      -9.705   5.683 129.772  0.00  0.00    +0.000 S 
ATOM     17  O   UNL     1      -9.229   5.698 128.393  0.00  0.00    +0.000 OA
ATOM     18  O   UNL     1      -9.165   6.604 130.738  0.00  0.00    +0.000 OA
BRANCH  16  20
ATOM     19  C   UNL     1     -11.933   6.418 130.967  0.00  0.00    +0.000 C 
ATOM     20  N   UNL     1     -11.410   5.890 129.680  0.00  0.00    +0.000 NA
ATOM     21  C   UNL     1     -11.909   6.735 128.563  0.00  0.00    +0.000 C 
ENDBRANCH  16  20
ENDBRANCH   1  16
BRANCH  13  22
ATOM     22  C   UNL     1      -7.880   2.593 127.023  0.00  0.00    +0.000 C 
BRANCH  22  23
ATOM     23  C   UNL     1      -6.719   3.298 126.396  0.00  0.00    +0.000 C 
BRANCH  23  24
ATOM     24  N   UNL     1      -5.549   3.158 127.253  0.00  0.00    +0.000 NA
ATOM     25  C   UNL     1      -5.568   4.258 128.216  0.00  0.00    +0.000 C 
ATOM     26  C   UNL     1      -4.397   4.117 129.198  0.00  0.00    +0.000 C 
ATOM     27  N   UNL     1      -3.060   4.026 128.564  0.00  0.00    +0.000 NA
ATOM     28  C   UNL     1      -2.677   5.318 128.000  0.00  0.00    +0.000 C 
ATOM     29  C   UNL     1      -3.083   3.012 127.496  0.00  0.00    +0.000 C 
ATOM     30  C   UNL     1      -4.259   3.184 126.523  0.00  0.00    +0.000 C 
ENDBRANCH  23  24
ENDBRANCH  22  23
ENDBRANCH  13  22
TORSDOF 5
ENDMDL
MODEL 5
REMARK VINA RESULT:      -7.4      3.976      8.467
REMARK  Name = Thiothixene
REMARK  8 active torsions:
REMARK  status: ('A' for Active; 'I' for Inactive)
REMARK    1  A    between atoms: C_1  and  N_2
REMARK    2  A    between atoms: N_2  and  C_3
REMARK    3  A    between atoms: N_2  and  S_4
REMARK    4  A    between atoms: S_4  and  C_7
REMARK    5  A    between atoms: C_19  and  C_20
REMARK    6  A    between atoms: C_20  and  C_21
REMARK    7  A    between atoms: C_21  and  N_22
REMARK    8  A    between atoms: N_25  and  C_26
REMARK                            x       y       z     vdW  Elec       q    Type
REMARK                         _______ _______ _______ _____ _____    ______ ____
ROOT
ATOM      1  C   UNL     1      -8.241   1.204 129.368  0.00  0.00    +0.000 A 
ATOM      2  C   UNL     1      -7.531   0.031 129.218  0.00  0.00    +0.000 A 
ATOM      3  C   UNL     1      -7.269  -0.932 130.200  0.00  0.00    +0.000 A 
ATOM      4  C   UNL     1      -7.754  -0.592 131.460  0.00  0.00    +0.000 A 
ATOM      5  S   UNL     1      -7.560  -1.584 132.906  0.00  0.00    +0.000 S 
ATOM      6  C   UNL     1      -6.687  -3.012 132.326  0.00  0.00    +0.000 A 
ATOM      7  C   UNL     1      -6.419  -3.956 133.329  0.00  0.00    +0.000 A 
ATOM      8  C   UNL     1      -5.740  -5.132 133.046  0.00  0.00    +0.000 A 
ATOM      9  C   UNL     1      -5.322  -5.383 131.753  0.00  0.00    +0.000 A 
ATOM     10  C   UNL     1      -5.583  -4.453 130.752  0.00  0.00    +0.000 A 
ATOM     11  C   UNL     1      -6.269  -3.243 131.005  0.00  0.00    +0.000 A 
ATOM     12  C   UNL     1      -6.525  -2.226 129.928  0.00  0.00    +0.000 C 
ATOM     13  C   UNL     1      -6.047  -2.524 128.692  0.00  0.00    +0.000 C 
ATOM     14  C   UNL     1      -8.442   0.632 131.658  0.00  0.00    +0.000 A 
ATOM     15  C   UNL     1      -8.688   1.536 130.619  0.00  0.00    +0.000 A 
ENDROOT
BRANCH   1  16
ATOM     16  S   UNL     1      -8.346   2.245 127.933  0.00  0.00    +0.000 S 
ATOM     17  O   UNL     1      -8.717   3.588 128.363  0.00  0.00    +0.000 OA
ATOM     18  O   UNL     1      -9.139   1.550 126.953  0.00  0.00    +0.000 OA
BRANCH  16  20
ATOM     19  C   UNL     1      -6.623   1.842 125.983  0.00  0.00    +0.000 C 
ATOM     20  N   UNL     1      -6.725   2.365 127.370  0.00  0.00    +0.000 NA
ATOM     21  C   UNL     1      -6.108   3.716 127.433  0.00  0.00    +0.000 C 
ENDBRANCH  16  20
ENDBRANCH   1  16
BRANCH  13  22
ATOM     22  C   UNL     1      -6.132  -1.670 127.484  0.00  0.00    +0.000 C 
BRANCH  22  23
ATOM     23  C   UNL     1      -5.637  -2.186 126.170  0.00  0.00    +0.000 C 
BRANCH  23  24
ATOM     24  N   UNL     1      -6.506  -1.706 125.104  0.00  0.00    +0.000 NA
ATOM     25  C   UNL     1      -7.873  -1.674 125.623  0.00  0.00    +0.000 C 
ATOM     26  C   UNL     1      -8.823  -1.100 124.564  0.00  0.00    +0.000 C 
ATOM     27  N   UNL     1      -8.797  -1.800 123.258  0.00  0.00    +0.000 NA
ATOM     28  C   UNL     1      -9.421  -3.117 123.376  0.00  0.00    +0.000 C 
ATOM     29  C   UNL     1      -7.405  -1.957 122.803  0.00  0.00    +0.000 C 
ATOM     30  C   UNL     1      -6.479  -2.543 123.880  0.00  0.00    +0.000 C 
ENDBRANCH  23  24
ENDBRANCH  22  23
ENDBRANCH  13  22
TORSDOF 5
ENDMDL
MODEL 6
REMARK VINA RESULT:      -7.3      4.003      6.599
REMARK  Name = Thiothixene
REMARK  8 active torsions:
REMARK  status: ('A' for Active; 'I' for Inactive)
REMARK    1  A    between atoms: C_1  and  N_2
REMARK    2  A    between atoms: N_2  and  C_3
REMARK    3  A    between atoms: N_2  and  S_4
REMARK    4  A    between atoms: S_4  and  C_7
REMARK    5  A    between atoms: C_19  and  C_20
REMARK    6  A    between atoms: C_20  and  C_21
REMARK    7  A    between atoms: C_21  and  N_22
REMARK    8  A    between atoms: N_25  and  C_26
REMARK                            x       y       z     vdW  Elec       q    Type
REMARK                         _______ _______ _______ _____ _____    ______ ____
ROOT
ATOM      1  C   UNL     1      -4.798   2.306 126.562  0.00  0.00    +0.000 A 
ATOM      2  C   UNL     1      -5.257   1.010 126.675  0.00  0.00    +0.000 A 
ATOM      3  C   UNL     1      -6.147   0.350 125.817  0.00  0.00    +0.000 A 
ATOM      4  C   UNL     1      -6.631   1.152 124.788  0.00  0.00    +0.000 A 
ATOM      5  S   UNL     1      -7.785   0.620 123.565  0.00  0.00    +0.000 S 
ATOM      6  C   UNL     1      -8.082  -1.078 123.973  0.00  0.00    +0.000 A 
ATOM      7  C   UNL     1      -8.990  -1.715 123.114  0.00  0.00    +0.000 A 
ATOM      8  C   UNL     1      -9.337  -3.047 123.294  0.00  0.00    +0.000 A 
ATOM      9  C   UNL     1      -8.778  -3.761 124.337  0.00  0.00    +0.000 A 
ATOM     10  C   UNL     1      -7.878  -3.138 125.194  0.00  0.00    +0.000 A 
ATOM     11  C   UNL     1      -7.504  -1.783 125.043  0.00  0.00    +0.000 A 
ATOM     12  C   UNL     1      -6.553  -1.102 125.987  0.00  0.00    +0.000 C 
ATOM     13  C   UNL     1      -6.078  -1.857 127.012  0.00  0.00    +0.000 C 
ATOM     14  C   UNL     1      -6.218   2.504 124.677  0.00  0.00    +0.000 A 
ATOM     15  C   UNL     1      -5.304   3.089 125.561  0.00  0.00    +0.000 A 
ENDROOT
BRANCH   1  16
ATOM     16  S   UNL     1      -3.715   2.866 127.854  0.00  0.00    +0.000 S 
ATOM     17  O   UNL     1      -2.395   3.103 127.279  0.00  0.00    +0.000 OA
ATOM     18  O   UNL     1      -3.873   1.970 128.969  0.00  0.00    +0.000 OA
BRANCH  16  20
ATOM     19  C   UNL     1      -4.414   4.544 129.759  0.00  0.00    +0.000 C 
ATOM     20  N   UNL     1      -4.324   4.417 128.281  0.00  0.00    +0.000 NA
ATOM     21  C   UNL     1      -3.585   5.585 127.732  0.00  0.00    +0.000 C 
ENDBRANCH  16  20
ENDBRANCH   1  16
BRANCH  13  22
ATOM     22  C   UNL     1      -5.170  -1.406 128.093  0.00  0.00    +0.000 C 
BRANCH  22  23
ATOM     23  C   UNL     1      -5.610  -1.492 129.519  0.00  0.00    +0.000 C 
BRANCH  23  24
ATOM     24  N   UNL     1      -5.054  -2.693 130.126  0.00  0.00    +0.000 NA
ATOM     25  C   UNL     1      -6.128  -3.679 130.231  0.00  0.00    +0.000 C 
ATOM     26  C   UNL     1      -5.580  -4.997 130.793  0.00  0.00    +0.000 C 
ATOM     27  N   UNL     1      -4.879  -4.876 132.094  0.00  0.00    +0.000 NA
ATOM     28  C   UNL     1      -5.838  -4.601 133.162  0.00  0.00    +0.000 C 
ATOM     29  C   UNL     1      -3.892  -3.785 132.029  0.00  0.00    +0.000 C 
ATOM     30  C   UNL     1      -4.471  -2.476 131.473  0.00  0.00    +0.000 C 
ENDBRANCH  23  24
ENDBRANCH  22  23
ENDBRANCH  13  22
TORSDOF 5
ENDMDL
MODEL 7
REMARK VINA RESULT:      -7.3      3.620      6.610
REMARK  Name = Thiothixene
REMARK  8 active torsions:
REMARK  status: ('A' for Active; 'I' for Inactive)
REMARK    1  A    between atoms: C_1  and  N_2
REMARK    2  A    between atoms: N_2  and  C_3
REMARK    3  A    between atoms: N_2  and  S_4
REMARK    4  A    between atoms: S_4  and  C_7
REMARK    5  A    between atoms: C_19  and  C_20
REMARK    6  A    between atoms: C_20  and  C_21
REMARK    7  A    between atoms: C_21  and  N_22
REMARK    8  A    between atoms: N_25  and  C_26
REMARK                            x       y       z     vdW  Elec       q    Type
REMARK                         _______ _______ _______ _____ _____    ______ ____
ROOT
ATOM      1  C   UNL     1      -5.704   3.067 126.621  0.00  0.00    +0.000 A 
ATOM      2  C   UNL     1      -6.349   1.886 126.926  0.00  0.00    +0.000 A 
ATOM      3  C   UNL     1      -6.927   0.981 126.027  0.00  0.00    +0.000 A 
ATOM      4  C   UNL     1      -6.862   1.392 124.699  0.00  0.00    +0.000 A 
ATOM      5  S   UNL     1      -7.523   0.485 123.339  0.00  0.00    +0.000 S 
ATOM      6  C   UNL     1      -8.191  -0.976 124.088  0.00  0.00    +0.000 A 
ATOM      7  C   UNL     1      -8.780  -1.861 123.173  0.00  0.00    +0.000 A 
ATOM      8  C   UNL     1      -9.353  -3.053 123.593  0.00  0.00    +0.000 A 
ATOM      9  C   UNL     1      -9.343  -3.377 124.937  0.00  0.00    +0.000 A 
ATOM     10  C   UNL     1      -8.761  -2.506 125.851  0.00  0.00    +0.000 A 
ATOM     11  C   UNL     1      -8.171  -1.282 125.459  0.00  0.00    +0.000 A 
ATOM     12  C   UNL     1      -7.567  -0.328 126.452  0.00  0.00    +0.000 C 
ATOM     13  C   UNL     1      -7.632  -0.696 127.758  0.00  0.00    +0.000 C 
ATOM     14  C   UNL     1      -6.252   2.626 124.359  0.00  0.00    +0.000 A 
ATOM     15  C   UNL     1      -5.674   3.470 125.314  0.00  0.00    +0.000 A 
ENDROOT
BRANCH   1  16
ATOM     16  S   UNL     1      -5.130   4.025 128.003  0.00  0.00    +0.000 S 
ATOM     17  O   UNL     1      -4.593   3.112 129.006  0.00  0.00    +0.000 OA
ATOM     18  O   UNL     1      -6.175   4.952 128.348  0.00  0.00    +0.000 OA
BRANCH  16  20
ATOM     19  C   UNL     1      -3.711   6.243 128.010  0.00  0.00    +0.000 C 
ATOM     20  N   UNL     1      -3.778   4.894 127.389  0.00  0.00    +0.000 NA
ATOM     21  C   UNL     1      -2.456   4.226 127.519  0.00  0.00    +0.000 C 
ENDBRANCH  16  20
ENDBRANCH   1  16
BRANCH  13  22
ATOM     22  C   UNL     1      -7.153   0.088 128.920  0.00  0.00    +0.000 C 
BRANCH  22  23
ATOM     23  C   UNL     1      -7.650  -0.235 130.293  0.00  0.00    +0.000 C 
BRANCH  23  24
ATOM     24  N   UNL     1      -7.940   1.001 131.006  0.00  0.00    +0.000 NA
ATOM     25  C   UNL     1      -9.294   0.896 131.550  0.00  0.00    +0.000 C 
ATOM     26  C   UNL     1      -9.625   2.143 132.380  0.00  0.00    +0.000 C 
ATOM     27  N   UNL     1      -9.470   3.430 131.661  0.00  0.00    +0.000 NA
ATOM     28  C   UNL     1     -10.526   3.584 130.663  0.00  0.00    +0.000 C 
ATOM     29  C   UNL     1      -8.156   3.474 130.996  0.00  0.00    +0.000 C 
ATOM     30  C   UNL     1      -7.856   2.219 130.164  0.00  0.00    +0.000 C 
ENDBRANCH  23  24
ENDBRANCH  22  23
ENDBRANCH  13  22
TORSDOF 5
ENDMDL
MODEL 8
REMARK VINA RESULT:      -7.3      4.567      7.319
REMARK  Name = Thiothixene
REMARK  8 active torsions:
REMARK  status: ('A' for Active; 'I' for Inactive)
REMARK    1  A    between atoms: C_1  and  N_2
REMARK    2  A    between atoms: N_2  and  C_3
REMARK    3  A    between atoms: N_2  and  S_4
REMARK    4  A    between atoms: S_4  and  C_7
REMARK    5  A    between atoms: C_19  and  C_20
REMARK    6  A    between atoms: C_20  and  C_21
REMARK    7  A    between atoms: C_21  and  N_22
REMARK    8  A    between atoms: N_25  and  C_26
REMARK                            x       y       z     vdW  Elec       q    Type
REMARK                         _______ _______ _______ _____ _____    ______ ____
ROOT
ATOM      1  C   UNL     1      -7.287  -0.848 130.365  0.00  0.00    +0.000 A 
ATOM      2  C   UNL     1      -7.364  -0.425 129.054  0.00  0.00    +0.000 A 
ATOM      3  C   UNL     1      -7.820  -1.161 127.953  0.00  0.00    +0.000 A 
ATOM      4  C   UNL     1      -8.169  -2.472 128.262  0.00  0.00    +0.000 A 
ATOM      5  S   UNL     1      -8.752  -3.654 127.089  0.00  0.00    +0.000 S 
ATOM      6  C   UNL     1      -8.791  -2.753 125.564  0.00  0.00    +0.000 A 
ATOM      7  C   UNL     1      -9.233  -3.513 124.470  0.00  0.00    +0.000 A 
ATOM      8  C   UNL     1      -9.321  -2.961 123.200  0.00  0.00    +0.000 A 
ATOM      9  C   UNL     1      -8.970  -1.638 123.007  0.00  0.00    +0.000 A 
ATOM     10  C   UNL     1      -8.531  -0.877 124.085  0.00  0.00    +0.000 A 
ATOM     11  C   UNL     1      -8.426  -1.407 125.391  0.00  0.00    +0.000 A 
ATOM     12  C   UNL     1      -7.924  -0.592 126.550  0.00  0.00    +0.000 C 
ATOM     13  C   UNL     1      -7.558   0.687 126.273  0.00  0.00    +0.000 C 
ATOM     14  C   UNL     1      -8.051  -2.952 129.591  0.00  0.00    +0.000 A 
ATOM     15  C   UNL     1      -7.609  -2.147 130.647  0.00  0.00    +0.000 A 
ENDROOT
BRANCH   1  16
ATOM     16  S   UNL     1      -6.606   0.314 131.523  0.00  0.00    +0.000 S 
ATOM     17  O   UNL     1      -6.244   1.528 130.800  0.00  0.00    +0.000 OA
ATOM     18  O   UNL     1      -5.623  -0.386 132.308  0.00  0.00    +0.000 OA
BRANCH  16  20
ATOM     19  C   UNL     1      -7.647   2.022 133.236  0.00  0.00    +0.000 C 
ATOM     20  N   UNL     1      -7.933   0.746 132.528  0.00  0.00    +0.000 NA
ATOM     21  C   UNL     1      -9.258   0.841 131.860  0.00  0.00    +0.000 C 
ENDBRANCH  16  20
ENDBRANCH   1  16
BRANCH  13  22
ATOM     22  C   UNL     1      -6.994   1.670 127.228  0.00  0.00    +0.000 C 
BRANCH  22  23
ATOM     23  C   UNL     1      -6.302   2.893 126.717  0.00  0.00    +0.000 C 
BRANCH  23  24
ATOM     24  N   UNL     1      -4.981   2.990 127.322  0.00  0.00    +0.000 NA
ATOM     25  C   UNL     1      -5.084   3.878 128.480  0.00  0.00    +0.000 C 
ATOM     26  C   UNL     1      -3.734   3.955 129.205  0.00  0.00    +0.000 C 
ATOM     27  N   UNL     1      -2.592   4.367 128.354  0.00  0.00    +0.000 NA
ATOM     28  C   UNL     1      -2.701   5.783 128.010  0.00  0.00    +0.000 C 
ATOM     29  C   UNL     1      -2.574   3.563 127.120  0.00  0.00    +0.000 C 
ATOM     30  C   UNL     1      -3.935   3.513 126.410  0.00  0.00    +0.000 C 
ENDBRANCH  23  24
ENDBRANCH  22  23
ENDBRANCH  13  22
TORSDOF 5
ENDMDL
MODEL 9
REMARK VINA RESULT:      -7.3      3.578      7.715
REMARK  Name = Thiothixene
REMARK  8 active torsions:
REMARK  status: ('A' for Active; 'I' for Inactive)
REMARK    1  A    between atoms: C_1  and  N_2
REMARK    2  A    between atoms: N_2  and  C_3
REMARK    3  A    between atoms: N_2  and  S_4
REMARK    4  A    between atoms: S_4  and  C_7
REMARK    5  A    between atoms: C_19  and  C_20
REMARK    6  A    between atoms: C_20  and  C_21
REMARK    7  A    between atoms: C_21  and  N_22
REMARK    8  A    between atoms: N_25  and  C_26
REMARK                            x       y       z     vdW  Elec       q    Type
REMARK                         _______ _______ _______ _____ _____    ______ ____
ROOT
ATOM      1  C   UNL     1      -6.329   2.639 125.176  0.00  0.00    +0.000 A 
ATOM      2  C   UNL     1      -6.497   1.876 126.313  0.00  0.00    +0.000 A 
ATOM      3  C   UNL     1      -7.082   0.607 126.401  0.00  0.00    +0.000 A 
ATOM      4  C   UNL     1      -7.581   0.135 125.190  0.00  0.00    +0.000 A 
ATOM      5  S   UNL     1      -8.397  -1.415 124.982  0.00  0.00    +0.000 S 
ATOM      6  C   UNL     1      -8.362  -2.134 126.601  0.00  0.00    +0.000 A 
ATOM      7  C   UNL     1      -8.969  -3.396 126.672  0.00  0.00    +0.000 A 
ATOM      8  C   UNL     1      -9.031  -4.098 127.867  0.00  0.00    +0.000 A 
ATOM      9  C   UNL     1      -8.483  -3.547 129.010  0.00  0.00    +0.000 A 
ATOM     10  C   UNL     1      -7.878  -2.295 128.949  0.00  0.00    +0.000 A 
ATOM     11  C   UNL     1      -7.801  -1.551 127.750  0.00  0.00    +0.000 A 
ATOM     12  C   UNL     1      -7.173  -0.187 127.692  0.00  0.00    +0.000 C 
ATOM     13  C   UNL     1      -6.694   0.306 128.864  0.00  0.00    +0.000 C 
ATOM     14  C   UNL     1      -7.470   0.919 124.014  0.00  0.00    +0.000 A 
ATOM     15  C   UNL     1      -6.848   2.172 123.999  0.00  0.00    +0.000 A 
ENDROOT
BRANCH   1  16
ATOM     16  S   UNL     1      -5.596   4.241 125.410  0.00  0.00    +0.000 S 
ATOM     17  O   UNL     1      -6.631   5.158 125.874  0.00  0.00    +0.000 OA
ATOM     18  O   UNL     1      -4.834   4.543 124.227  0.00  0.00    +0.000 OA
BRANCH  16  20
ATOM     19  C   UNL     1      -3.158   3.712 126.251  0.00  0.00    +0.000 C 
ATOM     20  N   UNL     1      -4.525   4.032 126.739  0.00  0.00    +0.000 NA
ATOM     21  C   UNL     1      -4.451   5.161 127.704  0.00  0.00    +0.000 C 
ENDBRANCH  16  20
ENDBRANCH   1  16
BRANCH  13  22
ATOM     22  C   UNL     1      -6.075   1.637 129.074  0.00  0.00    +0.000 C 
BRANCH  22  23
ATOM     23  C   UNL     1      -6.515   2.490 130.221  0.00  0.00    +0.000 C 
BRANCH  23  24
ATOM     24  N   UNL     1      -7.814   3.074 129.919  0.00  0.00    +0.000 NA
ATOM     25  C   UNL     1      -7.629   4.515 129.756  0.00  0.00    +0.000 C 
ATOM     26  C   UNL     1      -8.956   5.174 129.358  0.00  0.00    +0.000 C 
ATOM     27  N   UNL     1     -10.084   4.913 130.284  0.00  0.00    +0.000 NA
ATOM     28  C   UNL     1      -9.886   5.634 131.540  0.00  0.00    +0.000 C 
ATOM     29  C   UNL     1     -10.180   3.469 130.558  0.00  0.00    +0.000 C 
ATOM     30  C   UNL     1      -8.840   2.839 130.964  0.00  0.00    +0.000 C 
ENDBRANCH  23  24
ENDBRANCH  22  23
ENDBRANCH  13  22
TORSDOF 5
ENDMDL
