MODEL 1
REMARK VINA RESULT:      -7.9      0.000      0.000
REMARK  Name = Thioridazine
REMARK  6 active torsions:
REMARK  status: ('A' for Active; 'I' for Inactive)
REMARK    1  A    between atoms: C_1  and  S_2
REMARK    2  A    between atoms: S_2  and  C_3
REMARK    3  A    between atoms: N_14  and  C_15
REMARK    4  A    between atoms: C_15  and  C_16
REMARK    5  A    between atoms: C_16  and  C_17
REMARK    6  A    between atoms: N_22  and  C_23
REMARK                            x       y       z     vdW  Elec       q    Type
REMARK                         _______ _______ _______ _____ _____    ______ ____
ROOT
ATOM      1  C   UNL     1      -7.158   4.141 126.029  0.00  0.00    +0.000 A 
ATOM      2  C   UNL     1      -7.891   3.507 125.016  0.00  0.00    +0.000 A 
ATOM      3  C   UNL     1      -7.366   3.368 123.718  0.00  0.00    +0.000 A 
ATOM      4  C   UNL     1      -6.061   3.829 123.460  0.00  0.00    +0.000 A 
ATOM      5  S   UNL     1      -5.334   3.687 121.829  0.00  0.00    +0.000 S 
ATOM      6  C   UNL     1      -6.823   3.835 120.849  0.00  0.00    +0.000 A 
ATOM      7  C   UNL     1      -6.742   4.409 119.570  0.00  0.00    +0.000 A 
ATOM      8  C   UNL     1      -7.892   4.558 118.790  0.00  0.00    +0.000 A 
ATOM      9  C   UNL     1      -9.123   4.172 119.283  0.00  0.00    +0.000 A 
ATOM     10  C   UNL     1      -9.209   3.672 120.580  0.00  0.00    +0.000 A 
ATOM     11  C   UNL     1      -8.063   3.428 121.355  0.00  0.00    +0.000 A 
ATOM     12  N   UNL     1      -8.201   2.917 122.662  0.00  0.00    +0.000 N 
ATOM     13  C   UNL     1      -5.312   4.423 124.482  0.00  0.00    +0.000 A 
ATOM     14  C   UNL     1      -5.865   4.587 125.756  0.00  0.00    +0.000 A 
ENDROOT
BRANCH   1  16
ATOM     15  C   UNL     1      -7.369   2.732 128.425  0.00  0.00    +0.000 C 
ATOM     16  S   UNL     1      -7.876   4.300 127.657  0.00  0.00    +0.000 S 
ENDBRANCH   1  16
BRANCH  12  17
ATOM     17  C   UNL     1      -8.797   1.577 122.885  0.00  0.00    +0.000 C 
BRANCH  17  18
ATOM     18  C   UNL     1      -7.836   0.494 123.392  0.00  0.00    +0.000 C 
BRANCH  18  19
ATOM     19  C   UNL     1      -8.457  -0.768 124.007  0.00  0.00    +0.000 C 
ATOM     20  C   UNL     1      -8.735  -1.794 122.897  0.00  0.00    +0.000 C 
ATOM     21  C   UNL     1      -9.353  -3.059 123.445  0.00  0.00    +0.000 C 
ATOM     22  C   UNL     1      -8.448  -3.616 124.533  0.00  0.00    +0.000 C 
ATOM     23  C   UNL     1      -8.216  -2.575 125.624  0.00  0.00    +0.000 C 
ATOM     24  N   UNL     1      -7.609  -1.339 125.093  0.00  0.00    +0.000 NA
ATOM     25  C   UNL     1      -7.422  -0.416 126.231  0.00  0.00    +0.000 C 
ENDBRANCH  18  19
ENDBRANCH  17  18
ENDBRANCH  12  17
TORSDOF 4
ENDMDL
MODEL 2
REMARK VINA RESULT:      -7.8      3.220      6.793
REMARK  Name = Thioridazine
REMARK  6 active torsions:
REMARK  status: ('A' for Active; 'I' for Inactive)
REMARK    1  A    between atoms: C_1  and  S_2
REMARK    2  A    between atoms: S_2  and  C_3
REMARK    3  A    between atoms: N_14  and  C_15
REMARK    4  A    between atoms: C_15  and  C_16
REMARK    5  A    between atoms: C_16  and  C_17
REMARK    6  A    between atoms: N_22  and  C_23
REMARK                            x       y       z     vdW  Elec       q    Type
REMARK                         _______ _______ _______ _____ _____    ______ ____
ROOT
ATOM      1  C   UNL     1      -6.515  -2.709 129.562  0.00  0.00    +0.000 A 
ATOM      2  C   UNL     1      -6.395  -1.747 128.550  0.00  0.00    +0.000 A 
ATOM      3  C   UNL     1      -7.255  -1.755 127.436  0.00  0.00    +0.000 A 
ATOM      4  C   UNL     1      -8.282  -2.717 127.377  0.00  0.00    +0.000 A 
ATOM      5  S   UNL     1      -9.406  -2.785 125.985  0.00  0.00    +0.000 S 
ATOM      6  C   UNL     1      -8.302  -2.199 124.706  0.00  0.00    +0.000 A 
ATOM      7  C   UNL     1      -8.480  -2.655 123.390  0.00  0.00    +0.000 A 
ATOM      8  C   UNL     1      -7.619  -2.232 122.375  0.00  0.00    +0.000 A 
ATOM      9  C   UNL     1      -6.565  -1.387 122.662  0.00  0.00    +0.000 A 
ATOM     10  C   UNL     1      -6.348  -0.996 123.981  0.00  0.00    +0.000 A 
ATOM     11  C   UNL     1      -7.245  -1.332 125.009  0.00  0.00    +0.000 A 
ATOM     12  N   UNL     1      -6.984  -0.910 126.328  0.00  0.00    +0.000 N 
ATOM     13  C   UNL     1      -8.428  -3.651 128.408  0.00  0.00    +0.000 A 
ATOM     14  C   UNL     1      -7.540  -3.652 129.489  0.00  0.00    +0.000 A 
ENDROOT
BRANCH   1  16
ATOM     15  C   UNL     1      -5.259  -4.425 131.365  0.00  0.00    +0.000 C 
ATOM     16  S   UNL     1      -5.391  -2.660 130.950  0.00  0.00    +0.000 S 
ENDBRANCH   1  16
BRANCH  12  17
ATOM     17  C   UNL     1      -6.942   0.536 126.660  0.00  0.00    +0.000 C 
BRANCH  17  18
ATOM     18  C   UNL     1      -8.183   1.348 126.270  0.00  0.00    +0.000 C 
BRANCH  18  19
ATOM     19  C   UNL     1      -8.064   2.281 125.057  0.00  0.00    +0.000 C 
ATOM     20  C   UNL     1      -6.583   2.619 124.817  0.00  0.00    +0.000 C 
ATOM     21  C   UNL     1      -6.403   3.541 123.633  0.00  0.00    +0.000 C 
ATOM     22  C   UNL     1      -7.057   2.908 122.415  0.00  0.00    +0.000 C 
ATOM     23  C   UNL     1      -8.528   2.609 122.687  0.00  0.00    +0.000 C 
ATOM     24  N   UNL     1      -8.707   1.706 123.840  0.00  0.00    +0.000 NA
ATOM     25  C   UNL     1     -10.158   1.480 124.003  0.00  0.00    +0.000 C 
ENDBRANCH  18  19
ENDBRANCH  17  18
ENDBRANCH  12  17
TORSDOF 4
ENDMDL
MODEL 3
REMARK VINA RESULT:      -7.5      7.819     10.340
REMARK  Name = Thioridazine
REMARK  6 active torsions:
REMARK  status: ('A' for Active; 'I' for Inactive)
REMARK    1  A    between atoms: C_1  and  S_2
REMARK    2  A    between atoms: S_2  and  C_3
REMARK    3  A    between atoms: N_14  and  C_15
REMARK    4  A    between atoms: C_15  and  C_16
REMARK    5  A    between atoms: C_16  and  C_17
REMARK    6  A    between atoms: N_22  and  C_23
REMARK                            x       y       z     vdW  Elec       q    Type
REMARK                         _______ _______ _______ _____ _____    ______ ____
ROOT
ATOM      1  C   UNL     1      -4.510   6.723 131.836  0.00  0.00    +0.000 A 
ATOM      2  C   UNL     1      -5.712   6.465 131.164  0.00  0.00    +0.000 A 
ATOM      3  C   UNL     1      -6.798   5.859 131.825  0.00  0.00    +0.000 A 
ATOM      4  C   UNL     1      -6.678   5.562 133.196  0.00  0.00    +0.000 A 
ATOM      5  S   UNL     1      -8.019   4.786 134.095  0.00  0.00    +0.000 S 
ATOM      6  C   UNL     1      -8.724   3.821 132.765  0.00  0.00    +0.000 A 
ATOM      7  C   UNL     1      -9.355   2.604 133.067  0.00  0.00    +0.000 A 
ATOM      8  C   UNL     1      -9.896   1.818 132.046  0.00  0.00    +0.000 A 
ATOM      9  C   UNL     1      -9.783   2.214 130.727  0.00  0.00    +0.000 A 
ATOM     10  C   UNL     1      -9.091   3.384 130.427  0.00  0.00    +0.000 A 
ATOM     11  C   UNL     1      -8.614   4.240 131.434  0.00  0.00    +0.000 A 
ATOM     12  N   UNL     1      -7.922   5.416 131.079  0.00  0.00    +0.000 N 
ATOM     13  C   UNL     1      -5.493   5.859 133.878  0.00  0.00    +0.000 A 
ATOM     14  C   UNL     1      -4.412   6.426 133.195  0.00  0.00    +0.000 A 
ENDROOT
BRANCH   1  16
ATOM     15  C   UNL     1      -4.052   8.649 129.874  0.00  0.00    +0.000 C 
ATOM     16  S   UNL     1      -3.160   7.485 130.947  0.00  0.00    +0.000 S 
ENDBRANCH   1  16
BRANCH  12  17
ATOM     17  C   UNL     1      -8.603   6.486 130.310  0.00  0.00    +0.000 C 
BRANCH  17  18
ATOM     18  C   UNL     1      -9.990   6.897 130.821  0.00  0.00    +0.000 C 
BRANCH  18  19
ATOM     19  C   UNL     1     -10.953   7.535 129.810  0.00  0.00    +0.000 C 
ATOM     20  C   UNL     1     -10.422   7.308 128.385  0.00  0.00    +0.000 C 
ATOM     21  C   UNL     1     -11.331   7.920 127.344  0.00  0.00    +0.000 C 
ATOM     22  C   UNL     1     -12.735   7.367 127.533  0.00  0.00    +0.000 C 
ATOM     23  C   UNL     1     -13.232   7.632 128.951  0.00  0.00    +0.000 C 
ATOM     24  N   UNL     1     -12.349   7.032 129.970  0.00  0.00    +0.000 NA
ATOM     25  C   UNL     1     -12.928   7.342 131.293  0.00  0.00    +0.000 C 
ENDBRANCH  18  19
ENDBRANCH  17  18
ENDBRANCH  12  17
TORSDOF 4
ENDMDL
MODEL 4
REMARK VINA RESULT:      -7.2      5.754      9.929
REMARK  Name = Thioridazine
REMARK  6 active torsions:
REMARK  status: ('A' for Active; 'I' for Inactive)
REMARK    1  A    between atoms: C_1  and  S_2
REMARK    2  A    between atoms: S_2  and  C_3
REMARK    3  A    between atoms: N_14  and  C_15
REMARK    4  A    between atoms: C_15  and  C_16
REMARK    5  A    between atoms: C_16  and  C_17
REMARK    6  A    between atoms: N_22  and  C_23
REMARK                            x       y       z     vdW  Elec       q    Type
REMARK                         _______ _______ _______ _____ _____    ______ ____
ROOT
ATOM      1  C   UNL     1      -5.160   4.057 128.066  0.00  0.00    +0.000 A 
ATOM      2  C   UNL     1      -6.418   4.258 128.649  0.00  0.00    +0.000 A 
ATOM      3  C   UNL     1      -6.547   4.895 129.897  0.00  0.00    +0.000 A 
ATOM      4  C   UNL     1      -5.389   5.382 130.534  0.00  0.00    +0.000 A 
ATOM      5  S   UNL     1      -5.482   6.197 132.126  0.00  0.00    +0.000 S 
ATOM      6  C   UNL     1      -6.889   5.325 132.803  0.00  0.00    +0.000 A 
ATOM      7  C   UNL     1      -6.968   5.134 134.192  0.00  0.00    +0.000 A 
ATOM      8  C   UNL     1      -8.044   4.437 134.748  0.00  0.00    +0.000 A 
ATOM      9  C   UNL     1      -9.022   3.900 133.933  0.00  0.00    +0.000 A 
ATOM     10  C   UNL     1      -8.901   4.027 132.551  0.00  0.00    +0.000 A 
ATOM     11  C   UNL     1      -7.880   4.797 131.967  0.00  0.00    +0.000 A 
ATOM     12  N   UNL     1      -7.800   4.898 130.564  0.00  0.00    +0.000 N 
ATOM     13  C   UNL     1      -4.136   5.220 129.932  0.00  0.00    +0.000 A 
ATOM     14  C   UNL     1      -4.025   4.551 128.709  0.00  0.00    +0.000 A 
ENDROOT
BRANCH   1  16
ATOM     15  C   UNL     1      -5.645   1.569 126.907  0.00  0.00    +0.000 C 
ATOM     16  S   UNL     1      -5.052   3.234 126.484  0.00  0.00    +0.000 S 
ENDBRANCH   1  16
BRANCH  12  17
ATOM     17  C   UNL     1      -8.899   5.532 129.793  0.00  0.00    +0.000 C 
BRANCH  17  18
ATOM     18  C   UNL     1      -9.328   6.927 130.264  0.00  0.00    +0.000 C 
BRANCH  18  19
ATOM     19  C   UNL     1     -10.656   7.476 129.725  0.00  0.00    +0.000 C 
ATOM     20  C   UNL     1     -10.560   7.638 128.199  0.00  0.00    +0.000 C 
ATOM     21  C   UNL     1     -11.842   8.181 127.611  0.00  0.00    +0.000 C 
ATOM     22  C   UNL     1     -12.993   7.278 128.026  0.00  0.00    +0.000 C 
ATOM     23  C   UNL     1     -13.066   7.162 129.545  0.00  0.00    +0.000 C 
ATOM     24  N   UNL     1     -11.817   6.628 130.122  0.00  0.00    +0.000 NA
ATOM     25  C   UNL     1     -12.005   6.550 131.585  0.00  0.00    +0.000 C 
ENDBRANCH  18  19
ENDBRANCH  17  18
ENDBRANCH  12  17
TORSDOF 4
ENDMDL
MODEL 5
REMARK VINA RESULT:      -7.0      3.665      7.073
REMARK  Name = Thioridazine
REMARK  6 active torsions:
REMARK  status: ('A' for Active; 'I' for Inactive)
REMARK    1  A    between atoms: C_1  and  S_2
REMARK    2  A    between atoms: S_2  and  C_3
REMARK    3  A    between atoms: N_14  and  C_15
REMARK    4  A    between atoms: C_15  and  C_16
REMARK    5  A    between atoms: C_16  and  C_17
REMARK    6  A    between atoms: N_22  and  C_23
REMARK                            x       y       z     vdW  Elec       q    Type
REMARK                         _______ _______ _______ _____ _____    ______ ____
ROOT
ATOM      1  C   UNL     1      -6.352  -2.755 129.545  0.00  0.00    +0.000 A 
ATOM      2  C   UNL     1      -6.218  -1.811 128.519  0.00  0.00    +0.000 A 
ATOM      3  C   UNL     1      -7.113  -1.787 127.432  0.00  0.00    +0.000 A 
ATOM      4  C   UNL     1      -8.187  -2.697 127.417  0.00  0.00    +0.000 A 
ATOM      5  S   UNL     1      -9.358  -2.724 126.062  0.00  0.00    +0.000 S 
ATOM      6  C   UNL     1      -8.268  -2.207 124.743  0.00  0.00    +0.000 A 
ATOM      7  C   UNL     1      -8.511  -2.668 123.438  0.00  0.00    +0.000 A 
ATOM      8  C   UNL     1      -7.663  -2.298 122.391  0.00  0.00    +0.000 A 
ATOM      9  C   UNL     1      -6.559  -1.504 122.635  0.00  0.00    +0.000 A 
ATOM     10  C   UNL     1      -6.281  -1.110 123.941  0.00  0.00    +0.000 A 
ATOM     11  C   UNL     1      -7.161  -1.391 125.001  0.00  0.00    +0.000 A 
ATOM     12  N   UNL     1      -6.837  -0.969 126.306  0.00  0.00    +0.000 N 
ATOM     13  C   UNL     1      -8.346  -3.613 128.464  0.00  0.00    +0.000 A 
ATOM     14  C   UNL     1      -7.425  -3.646 129.515  0.00  0.00    +0.000 A 
ENDROOT
BRANCH   1  16
ATOM     15  C   UNL     1      -5.042  -0.968 131.236  0.00  0.00    +0.000 C 
ATOM     16  S   UNL     1      -5.183  -2.748 130.896  0.00  0.00    +0.000 S 
ENDBRANCH   1  16
BRANCH  12  17
ATOM     17  C   UNL     1      -6.712   0.477 126.619  0.00  0.00    +0.000 C 
BRANCH  17  18
ATOM     18  C   UNL     1      -5.294   1.057 126.549  0.00  0.00    +0.000 C 
BRANCH  18  19
ATOM     19  C   UNL     1      -5.130   2.445 125.916  0.00  0.00    +0.000 C 
ATOM     20  C   UNL     1      -6.121   2.595 124.749  0.00  0.00    +0.000 C 
ATOM     21  C   UNL     1      -6.002   3.946 124.083  0.00  0.00    +0.000 C 
ATOM     22  C   UNL     1      -6.179   5.029 125.135  0.00  0.00    +0.000 C 
ATOM     23  C   UNL     1      -5.165   4.857 126.262  0.00  0.00    +0.000 C 
ATOM     24  N   UNL     1      -5.281   3.540 126.917  0.00  0.00    +0.000 NA
ATOM     25  C   UNL     1      -4.265   3.490 127.989  0.00  0.00    +0.000 C 
ENDBRANCH  18  19
ENDBRANCH  17  18
ENDBRANCH  12  17
TORSDOF 4
ENDMDL
MODEL 6
REMARK VINA RESULT:      -7.0      1.988      3.172
REMARK  Name = Thioridazine
REMARK  6 active torsions:
REMARK  status: ('A' for Active; 'I' for Inactive)
REMARK    1  A    between atoms: C_1  and  S_2
REMARK    2  A    between atoms: S_2  and  C_3
REMARK    3  A    between atoms: N_14  and  C_15
REMARK    4  A    between atoms: C_15  and  C_16
REMARK    5  A    between atoms: C_16  and  C_17
REMARK    6  A    between atoms: N_22  and  C_23
REMARK                            x       y       z     vdW  Elec       q    Type
REMARK                         _______ _______ _______ _____ _____    ______ ____
ROOT
ATOM      1  C   UNL     1      -7.862   3.709 129.334  0.00  0.00    +0.000 A 
ATOM      2  C   UNL     1      -8.311   2.890 128.289  0.00  0.00    +0.000 A 
ATOM      3  C   UNL     1      -7.552   2.729 127.115  0.00  0.00    +0.000 A 
ATOM      4  C   UNL     1      -6.299   3.363 127.024  0.00  0.00    +0.000 A 
ATOM      5  S   UNL     1      -5.286   3.204 125.555  0.00  0.00    +0.000 S 
ATOM      6  C   UNL     1      -6.585   3.041 124.337  0.00  0.00    +0.000 A 
ATOM      7  C   UNL     1      -6.362   3.516 123.035  0.00  0.00    +0.000 A 
ATOM      8  C   UNL     1      -7.367   3.422 122.068  0.00  0.00    +0.000 A 
ATOM      9  C   UNL     1      -8.600   2.892 122.395  0.00  0.00    +0.000 A 
ATOM     10  C   UNL     1      -8.842   2.491 123.706  0.00  0.00    +0.000 A 
ATOM     11  C   UNL     1      -7.827   2.490 124.678  0.00  0.00    +0.000 A 
ATOM     12  N   UNL     1      -8.119   2.071 125.991  0.00  0.00    +0.000 N 
ATOM     13  C   UNL     1      -5.830   4.147 128.084  0.00  0.00    +0.000 A 
ATOM     14  C   UNL     1      -6.615   4.325 129.227  0.00  0.00    +0.000 A 
ENDROOT
BRANCH   1  16
ATOM     15  C   UNL     1      -8.108   2.660 131.904  0.00  0.00    +0.000 C 
ATOM     16  S   UNL     1      -8.868   3.886 130.799  0.00  0.00    +0.000 S 
ENDBRANCH   1  16
BRANCH  12  17
ATOM     17  C   UNL     1      -8.554   0.678 126.256  0.00  0.00    +0.000 C 
BRANCH  17  18
ATOM     18  C   UNL     1      -7.469  -0.398 126.125  0.00  0.00    +0.000 C 
BRANCH  18  19
ATOM     19  C   UNL     1      -7.765  -1.591 125.206  0.00  0.00    +0.000 C 
ATOM     20  C   UNL     1      -9.004  -2.340 125.723  0.00  0.00    +0.000 C 
ATOM     21  C   UNL     1      -9.342  -3.530 124.857  0.00  0.00    +0.000 C 
ATOM     22  C   UNL     1      -9.508  -3.060 123.420  0.00  0.00    +0.000 C 
ATOM     23  C   UNL     1      -8.251  -2.343 122.939  0.00  0.00    +0.000 C 
ATOM     24  N   UNL     1      -7.920  -1.177 123.781  0.00  0.00    +0.000 NA
ATOM     25  C   UNL     1      -6.701  -0.560 123.220  0.00  0.00    +0.000 C 
ENDBRANCH  18  19
ENDBRANCH  17  18
ENDBRANCH  12  17
TORSDOF 4
ENDMDL
MODEL 7
REMARK VINA RESULT:      -7.0      2.559      5.226
REMARK  Name = Thioridazine
REMARK  6 active torsions:
REMARK  status: ('A' for Active; 'I' for Inactive)
REMARK    1  A    between atoms: C_1  and  S_2
REMARK    2  A    between atoms: S_2  and  C_3
REMARK    3  A    between atoms: N_14  and  C_15
REMARK    4  A    between atoms: C_15  and  C_16
REMARK    5  A    between atoms: C_16  and  C_17
REMARK    6  A    between atoms: N_22  and  C_23
REMARK                            x       y       z     vdW  Elec       q    Type
REMARK                         _______ _______ _______ _____ _____    ______ ____
ROOT
ATOM      1  C   UNL     1      -8.147   0.139 125.503  0.00  0.00    +0.000 A 
ATOM      2  C   UNL     1      -7.564   1.411 125.415  0.00  0.00    +0.000 A 
ATOM      3  C   UNL     1      -7.734   2.210 124.269  0.00  0.00    +0.000 A 
ATOM      4  C   UNL     1      -8.548   1.733 123.224  0.00  0.00    +0.000 A 
ATOM      5  S   UNL     1      -8.801   2.697 121.735  0.00  0.00    +0.000 S 
ATOM      6  C   UNL     1      -7.222   3.534 121.675  0.00  0.00    +0.000 A 
ATOM      7  C   UNL     1      -6.686   3.887 120.426  0.00  0.00    +0.000 A 
ATOM      8  C   UNL     1      -5.444   4.523 120.346  0.00  0.00    +0.000 A 
ATOM      9  C   UNL     1      -4.717   4.778 121.493  0.00  0.00    +0.000 A 
ATOM     10  C   UNL     1      -5.219   4.360 122.723  0.00  0.00    +0.000 A 
ATOM     11  C   UNL     1      -6.502   3.800 122.846  0.00  0.00    +0.000 A 
ATOM     12  N   UNL     1      -6.967   3.394 124.113  0.00  0.00    +0.000 N 
ATOM     13  C   UNL     1      -9.165   0.482 123.329  0.00  0.00    +0.000 A 
ATOM     14  C   UNL     1      -8.954  -0.313 124.460  0.00  0.00    +0.000 A 
ENDROOT
BRANCH   1  16
ATOM     15  C   UNL     1      -6.805   0.253 127.944  0.00  0.00    +0.000 C 
ATOM     16  S   UNL     1      -7.892  -0.837 126.978  0.00  0.00    +0.000 S 
ENDBRANCH   1  16
BRANCH  12  17
ATOM     17  C   UNL     1      -7.156   4.390 125.197  0.00  0.00    +0.000 C 
BRANCH  17  18
ATOM     18  C   UNL     1      -5.873   4.909 125.858  0.00  0.00    +0.000 C 
BRANCH  18  19
ATOM     19  C   UNL     1      -4.997   3.888 126.597  0.00  0.00    +0.000 C 
ATOM     20  C   UNL     1      -3.590   3.879 125.978  0.00  0.00    +0.000 C 
ATOM     21  C   UNL     1      -2.681   2.886 126.665  0.00  0.00    +0.000 C 
ATOM     22  C   UNL     1      -2.656   3.194 128.154  0.00  0.00    +0.000 C 
ATOM     23  C   UNL     1      -4.067   3.171 128.733  0.00  0.00    +0.000 C 
ATOM     24  N   UNL     1      -4.956   4.142 128.067  0.00  0.00    +0.000 NA
ATOM     25  C   UNL     1      -6.282   4.041 128.710  0.00  0.00    +0.000 C 
ENDBRANCH  18  19
ENDBRANCH  17  18
ENDBRANCH  12  17
TORSDOF 4
ENDMDL
MODEL 8
REMARK VINA RESULT:      -7.0      2.712      7.439
REMARK  Name = Thioridazine
REMARK  6 active torsions:
REMARK  status: ('A' for Active; 'I' for Inactive)
REMARK    1  A    between atoms: C_1  and  S_2
REMARK    2  A    between atoms: S_2  and  C_3
REMARK    3  A    between atoms: N_14  and  C_15
REMARK    4  A    between atoms: C_15  and  C_16
REMARK    5  A    between atoms: C_16  and  C_17
REMARK    6  A    between atoms: N_22  and  C_23
REMARK                            x       y       z     vdW  Elec       q    Type
REMARK                         _______ _______ _______ _____ _____    ______ ____
ROOT
ATOM      1  C   UNL     1      -8.733   0.867 123.355  0.00  0.00    +0.000 A 
ATOM      2  C   UNL     1      -7.931   0.624 124.479  0.00  0.00    +0.000 A 
ATOM      3  C   UNL     1      -7.824  -0.667 125.028  0.00  0.00    +0.000 A 
ATOM      4  C   UNL     1      -8.494  -1.732 124.397  0.00  0.00    +0.000 A 
ATOM      5  S   UNL     1      -8.404  -3.398 125.048  0.00  0.00    +0.000 S 
ATOM      6  C   UNL     1      -8.239  -3.009 126.786  0.00  0.00    +0.000 A 
ATOM      7  C   UNL     1      -8.756  -3.904 127.736  0.00  0.00    +0.000 A 
ATOM      8  C   UNL     1      -8.661  -3.616 129.100  0.00  0.00    +0.000 A 
ATOM      9  C   UNL     1      -8.089  -2.432 129.525  0.00  0.00    +0.000 A 
ATOM     10  C   UNL     1      -7.645  -1.514 128.576  0.00  0.00    +0.000 A 
ATOM     11  C   UNL     1      -7.645  -1.812 127.203  0.00  0.00    +0.000 A 
ATOM     12  N   UNL     1      -7.182  -0.851 126.282  0.00  0.00    +0.000 N 
ATOM     13  C   UNL     1      -9.260  -1.497 123.250  0.00  0.00    +0.000 A 
ATOM     14  C   UNL     1      -9.386  -0.201 122.741  0.00  0.00    +0.000 A 
ENDROOT
BRANCH   1  16
ATOM     15  C   UNL     1      -7.085   2.968 122.554  0.00  0.00    +0.000 C 
ATOM     16  S   UNL     1      -8.842   2.527 122.703  0.00  0.00    +0.000 S 
ENDBRANCH   1  16
BRANCH  12  17
ATOM     17  C   UNL     1      -5.770  -0.396 126.317  0.00  0.00    +0.000 C 
BRANCH  17  18
ATOM     18  C   UNL     1      -5.387   0.504 127.498  0.00  0.00    +0.000 C 
BRANCH  18  19
ATOM     19  C   UNL     1      -5.503   2.021 127.296  0.00  0.00    +0.000 C 
ATOM     20  C   UNL     1      -5.053   2.382 125.870  0.00  0.00    +0.000 C 
ATOM     21  C   UNL     1      -5.142   3.869 125.614  0.00  0.00    +0.000 C 
ATOM     22  C   UNL     1      -6.560   4.333 125.908  0.00  0.00    +0.000 C 
ATOM     23  C   UNL     1      -6.958   3.975 127.337  0.00  0.00    +0.000 C 
ATOM     24  N   UNL     1      -6.876   2.524 127.589  0.00  0.00    +0.000 NA
ATOM     25  C   UNL     1      -7.291   2.295 128.988  0.00  0.00    +0.000 C 
ENDBRANCH  18  19
ENDBRANCH  17  18
ENDBRANCH  12  17
TORSDOF 4
ENDMDL
MODEL 9
REMARK VINA RESULT:      -6.9      4.304      6.572
REMARK  Name = Thioridazine
REMARK  6 active torsions:
REMARK  status: ('A' for Active; 'I' for Inactive)
REMARK    1  A    between atoms: C_1  and  S_2
REMARK    2  A    between atoms: S_2  and  C_3
REMARK    3  A    between atoms: N_14  and  C_15
REMARK    4  A    between atoms: C_15  and  C_16
REMARK    5  A    between atoms: C_16  and  C_17
REMARK    6  A    between atoms: N_22  and  C_23
REMARK                            x       y       z     vdW  Elec       q    Type
REMARK                         _______ _______ _______ _____ _____    ______ ____
ROOT
ATOM      1  C   UNL     1      -4.143   3.505 128.030  0.00  0.00    +0.000 A 
ATOM      2  C   UNL     1      -4.288   2.209 127.518  0.00  0.00    +0.000 A 
ATOM      3  C   UNL     1      -5.446   1.451 127.776  0.00  0.00    +0.000 A 
ATOM      4  C   UNL     1      -6.490   2.038 128.516  0.00  0.00    +0.000 A 
ATOM      5  S   UNL     1      -7.988   1.127 128.884  0.00  0.00    +0.000 S 
ATOM      6  C   UNL     1      -7.297  -0.520 128.973  0.00  0.00    +0.000 A 
ATOM      7  C   UNL     1      -7.891  -1.463 129.826  0.00  0.00    +0.000 A 
ATOM      8  C   UNL     1      -7.360  -2.751 129.933  0.00  0.00    +0.000 A 
ATOM      9  C   UNL     1      -6.225  -3.098 129.225  0.00  0.00    +0.000 A 
ATOM     10  C   UNL     1      -5.597  -2.137 128.437  0.00  0.00    +0.000 A 
ATOM     11  C   UNL     1      -6.154  -0.863 128.239  0.00  0.00    +0.000 A 
ATOM     12  N   UNL     1      -5.482   0.075 127.430  0.00  0.00    +0.000 N 
ATOM     13  C   UNL     1      -6.364   3.347 128.992  0.00  0.00    +0.000 A 
ATOM     14  C   UNL     1      -5.190   4.071 128.757  0.00  0.00    +0.000 A 
ENDROOT
BRANCH   1  16
ATOM     15  C   UNL     1      -1.739   3.235 126.645  0.00  0.00    +0.000 C 
ATOM     16  S   UNL     1      -2.648   4.420 127.681  0.00  0.00    +0.000 S 
ENDBRANCH   1  16
BRANCH  12  17
ATOM     17  C   UNL     1      -5.265  -0.197 125.987  0.00  0.00    +0.000 C 
BRANCH  17  18
ATOM     18  C   UNL     1      -6.474   0.039 125.073  0.00  0.00    +0.000 C 
BRANCH  18  19
ATOM     19  C   UNL     1      -7.364  -1.170 124.755  0.00  0.00    +0.000 C 
ATOM     20  C   UNL     1      -6.508  -2.447 124.746  0.00  0.00    +0.000 C 
ATOM     21  C   UNL     1      -7.333  -3.673 124.432  0.00  0.00    +0.000 C 
ATOM     22  C   UNL     1      -8.484  -3.756 125.423  0.00  0.00    +0.000 C 
ATOM     23  C   UNL     1      -9.320  -2.481 125.385  0.00  0.00    +0.000 C 
ATOM     24  N   UNL     1      -8.518  -1.282 125.694  0.00  0.00    +0.000 NA
ATOM     25  C   UNL     1      -9.426  -0.117 125.638  0.00  0.00    +0.000 C 
ENDBRANCH  18  19
ENDBRANCH  17  18
ENDBRANCH  12  17
TORSDOF 4
ENDMDL
