MODEL 1
REMARK VINA RESULT:      -3.8      0.000      0.000
REMARK  Name = Thiram
REMARK  9 active torsions:
REMARK  status: ('A' for Active; 'I' for Inactive)
REMARK    1  A    between atoms: C_1  and  N_2
REMARK    2  A    between atoms: N_2  and  C_3
REMARK    3  A    between atoms: N_2  and  C_4
REMARK    4  A    between atoms: C_4  and  S_6
REMARK    5  A    between atoms: S_6  and  S_7
REMARK    6  A    between atoms: S_7  and  C_8
REMARK    7  A    between atoms: C_8  and  N_10
REMARK    8  A    between atoms: N_10  and  C_11
REMARK    9  A    between atoms: N_10  and  C_12
REMARK                            x       y       z     vdW  Elec       q    Type
REMARK                         _______ _______ _______ _____ _____    ______ ____
ROOT
ATOM      1  S   UNL     1      -9.727   7.093 130.055  0.00  0.00    +0.000 S 
ENDROOT
BRANCH   1   2
ATOM      2  C   UNL     1     -11.445   7.583 129.908  0.00  0.00    +0.000 C 
ATOM      3  S   UNL     1     -12.601   7.235 131.093  0.00  0.00    +0.000 S 
BRANCH   2   5
ATOM      4  C   UNL     1     -12.994   9.085 128.621  0.00  0.00    +0.000 C 
ATOM      5  N   UNL     1     -11.766   8.290 128.716  0.00  0.00    +0.000 N 
ATOM      6  C   UNL     1     -10.921   8.283 127.519  0.00  0.00    +0.000 C 
ENDBRANCH   2   5
ENDBRANCH   1   2
BRANCH   1   7
ATOM      7  S   UNL     1      -9.502   6.046 131.839  0.00  0.00    +0.000 S 
BRANCH   7   8
ATOM      8  C   UNL     1      -8.966   4.377 131.463  0.00  0.00    +0.000 C 
ATOM      9  S   UNL     1      -8.219   3.992 129.994  0.00  0.00    +0.000 S 
BRANCH   8  10
ATOM     10  N   UNL     1      -9.212   3.412 132.480  0.00  0.00    +0.000 N 
ATOM     11  C   UNL     1      -9.731   2.057 132.255  0.00  0.00    +0.000 C 
ATOM     12  C   UNL     1      -8.963   3.683 133.902  0.00  0.00    +0.000 C 
ENDBRANCH   8  10
ENDBRANCH   7   8
ENDBRANCH   1   7
TORSDOF 5
ENDMDL
MODEL 2
REMARK VINA RESULT:      -3.8      0.608      6.056
REMARK  Name = Thiram
REMARK  9 active torsions:
REMARK  status: ('A' for Active; 'I' for Inactive)
REMARK    1  A    between atoms: C_1  and  N_2
REMARK    2  A    between atoms: N_2  and  C_3
REMARK    3  A    between atoms: N_2  and  C_4
REMARK    4  A    between atoms: C_4  and  S_6
REMARK    5  A    between atoms: S_6  and  S_7
REMARK    6  A    between atoms: S_7  and  C_8
REMARK    7  A    between atoms: C_8  and  N_10
REMARK    8  A    between atoms: N_10  and  C_11
REMARK    9  A    between atoms: N_10  and  C_12
REMARK                            x       y       z     vdW  Elec       q    Type
REMARK                         _______ _______ _______ _____ _____    ______ ____
ROOT
ATOM      1  S   UNL     1      -8.675   5.867 131.893  0.00  0.00    +0.000 S 
ENDROOT
BRANCH   1   2
ATOM      2  C   UNL     1      -8.945   4.168 131.391  0.00  0.00    +0.000 C 
ATOM      3  S   UNL     1      -8.817   3.656 129.784  0.00  0.00    +0.000 S 
BRANCH   2   5
ATOM      4  C   UNL     1      -9.144   3.691 133.850  0.00  0.00    +0.000 C 
ATOM      5  N   UNL     1      -9.278   3.278 132.450  0.00  0.00    +0.000 N 
ATOM      6  C   UNL     1      -9.769   1.915 132.237  0.00  0.00    +0.000 C 
ENDBRANCH   2   5
ENDBRANCH   1   2
BRANCH   1   7
ATOM      7  S   UNL     1      -9.152   7.101 130.286  0.00  0.00    +0.000 S 
BRANCH   7   8
ATOM      8  C   UNL     1     -10.929   7.337 130.249  0.00  0.00    +0.000 C 
ATOM      9  S   UNL     1     -11.952   6.559 131.350  0.00  0.00    +0.000 S 
BRANCH   8  10
ATOM     10  N   UNL     1     -11.408   8.216 129.237  0.00  0.00    +0.000 N 
ATOM     11  C   UNL     1     -12.644   9.004 129.316  0.00  0.00    +0.000 C 
ATOM     12  C   UNL     1     -10.691   8.429 127.973  0.00  0.00    +0.000 C 
ENDBRANCH   8  10
ENDBRANCH   7   8
ENDBRANCH   1   7
TORSDOF 5
ENDMDL
MODEL 3
REMARK VINA RESULT:      -3.8      8.047      9.084
REMARK  Name = Thiram
REMARK  9 active torsions:
REMARK  status: ('A' for Active; 'I' for Inactive)
REMARK    1  A    between atoms: C_1  and  N_2
REMARK    2  A    between atoms: N_2  and  C_3
REMARK    3  A    between atoms: N_2  and  C_4
REMARK    4  A    between atoms: C_4  and  S_6
REMARK    5  A    between atoms: S_6  and  S_7
REMARK    6  A    between atoms: S_7  and  C_8
REMARK    7  A    between atoms: C_8  and  N_10
REMARK    8  A    between atoms: N_10  and  C_11
REMARK    9  A    between atoms: N_10  and  C_12
REMARK                            x       y       z     vdW  Elec       q    Type
REMARK                         _______ _______ _______ _____ _____    ______ ____
ROOT
ATOM      1  S   UNL     1      -9.261   0.952 125.714  0.00  0.00    +0.000 S 
ENDROOT
BRANCH   1   2
ATOM      2  C   UNL     1      -8.825   2.306 124.623  0.00  0.00    +0.000 C 
ATOM      3  S   UNL     1      -8.075   3.719 125.171  0.00  0.00    +0.000 S 
BRANCH   2   5
ATOM      4  C   UNL     1     -10.035   0.998 122.851  0.00  0.00    +0.000 C 
ATOM      5  N   UNL     1      -9.158   2.102 123.254  0.00  0.00    +0.000 N 
ATOM      6  C   UNL     1      -8.668   2.952 122.167  0.00  0.00    +0.000 C 
ENDBRANCH   2   5
ENDBRANCH   1   2
BRANCH   1   7
ATOM      7  S   UNL     1      -7.656  -0.371 125.779  0.00  0.00    +0.000 S 
BRANCH   7   8
ATOM      8  C   UNL     1      -7.810  -1.528 124.417  0.00  0.00    +0.000 C 
ATOM      9  S   UNL     1      -6.791  -1.454 123.068  0.00  0.00    +0.000 S 
BRANCH   8  10
ATOM     10  N   UNL     1      -8.839  -2.502 124.555  0.00  0.00    +0.000 N 
ATOM     11  C   UNL     1      -9.489  -3.210 123.446  0.00  0.00    +0.000 C 
ATOM     12  C   UNL     1      -9.369  -2.909 125.863  0.00  0.00    +0.000 C 
ENDBRANCH   8  10
ENDBRANCH   7   8
ENDBRANCH   1   7
TORSDOF 5
ENDMDL
MODEL 4
REMARK VINA RESULT:      -3.8      8.173     10.579
REMARK  Name = Thiram
REMARK  9 active torsions:
REMARK  status: ('A' for Active; 'I' for Inactive)
REMARK    1  A    between atoms: C_1  and  N_2
REMARK    2  A    between atoms: N_2  and  C_3
REMARK    3  A    between atoms: N_2  and  C_4
REMARK    4  A    between atoms: C_4  and  S_6
REMARK    5  A    between atoms: S_6  and  S_7
REMARK    6  A    between atoms: S_7  and  C_8
REMARK    7  A    between atoms: C_8  and  N_10
REMARK    8  A    between atoms: N_10  and  C_11
REMARK    9  A    between atoms: N_10  and  C_12
REMARK                            x       y       z     vdW  Elec       q    Type
REMARK                         _______ _______ _______ _____ _____    ______ ____
ROOT
ATOM      1  S   UNL     1      -7.790  -0.305 125.783  0.00  0.00    +0.000 S 
ENDROOT
BRANCH   1   2
ATOM      2  C   UNL     1      -7.786  -1.577 124.521  0.00  0.00    +0.000 C 
ATOM      3  S   UNL     1      -6.633  -1.638 123.285  0.00  0.00    +0.000 S 
BRANCH   2   5
ATOM      4  C   UNL     1      -9.398  -3.177 123.444  0.00  0.00    +0.000 C 
ATOM      5  N   UNL     1      -8.831  -2.537 124.636  0.00  0.00    +0.000 N 
ATOM      6  C   UNL     1      -9.410  -2.954 125.915  0.00  0.00    +0.000 C 
ENDBRANCH   2   5
ENDBRANCH   1   2
BRANCH   1   7
ATOM      7  S   UNL     1      -9.406   0.958 125.425  0.00  0.00    +0.000 S 
BRANCH   7   8
ATOM      8  C   UNL     1      -9.399   1.425 123.694  0.00  0.00    +0.000 C 
ATOM      9  S   UNL     1     -10.188   0.497 122.519  0.00  0.00    +0.000 S 
BRANCH   8  10
ATOM     10  N   UNL     1      -8.689   2.619 123.385  0.00  0.00    +0.000 N 
ATOM     11  C   UNL     1      -7.991   3.465 124.360  0.00  0.00    +0.000 C 
ATOM     12  C   UNL     1      -8.580   3.141 122.016  0.00  0.00    +0.000 C 
ENDBRANCH   8  10
ENDBRANCH   7   8
ENDBRANCH   1   7
TORSDOF 5
ENDMDL
MODEL 5
REMARK VINA RESULT:      -3.7      1.597      2.017
REMARK  Name = Thiram
REMARK  9 active torsions:
REMARK  status: ('A' for Active; 'I' for Inactive)
REMARK    1  A    between atoms: C_1  and  N_2
REMARK    2  A    between atoms: N_2  and  C_3
REMARK    3  A    between atoms: N_2  and  C_4
REMARK    4  A    between atoms: C_4  and  S_6
REMARK    5  A    between atoms: S_6  and  S_7
REMARK    6  A    between atoms: S_7  and  C_8
REMARK    7  A    between atoms: C_8  and  N_10
REMARK    8  A    between atoms: N_10  and  C_11
REMARK    9  A    between atoms: N_10  and  C_12
REMARK                            x       y       z     vdW  Elec       q    Type
REMARK                         _______ _______ _______ _____ _____    ______ ____
ROOT
ATOM      1  S   UNL     1     -12.137   6.846 130.676  0.00  0.00    +0.000 S 
ENDROOT
BRANCH   1   2
ATOM      2  C   UNL     1     -12.399   8.143 129.468  0.00  0.00    +0.000 C 
ATOM      3  S   UNL     1     -13.035   9.657 129.873  0.00  0.00    +0.000 S 
BRANCH   2   5
ATOM      4  C   UNL     1     -12.926   7.009 127.288  0.00  0.00    +0.000 C 
ATOM      5  N   UNL     1     -12.031   7.803 128.136  0.00  0.00    +0.000 N 
ATOM      6  C   UNL     1     -10.766   8.207 127.519  0.00  0.00    +0.000 C 
ENDBRANCH   2   5
ENDBRANCH   1   2
BRANCH   1   7
ATOM      7  S   UNL     1     -10.087   6.566 130.893  0.00  0.00    +0.000 S 
BRANCH   7   8
ATOM      8  C   UNL     1      -9.792   4.891 131.461  0.00  0.00    +0.000 C 
ATOM      9  S   UNL     1     -10.388   3.549 130.620  0.00  0.00    +0.000 S 
BRANCH   8  10
ATOM     10  N   UNL     1      -9.028   4.776 132.656  0.00  0.00    +0.000 N 
ATOM     11  C   UNL     1      -7.953   5.687 133.066  0.00  0.00    +0.000 C 
ATOM     12  C   UNL     1      -9.246   3.699 133.632  0.00  0.00    +0.000 C 
ENDBRANCH   8  10
ENDBRANCH   7   8
ENDBRANCH   1   7
TORSDOF 5
ENDMDL
MODEL 6
REMARK VINA RESULT:      -3.6      1.582      6.002
REMARK  Name = Thiram
REMARK  9 active torsions:
REMARK  status: ('A' for Active; 'I' for Inactive)
REMARK    1  A    between atoms: C_1  and  N_2
REMARK    2  A    between atoms: N_2  and  C_3
REMARK    3  A    between atoms: N_2  and  C_4
REMARK    4  A    between atoms: C_4  and  S_6
REMARK    5  A    between atoms: S_6  and  S_7
REMARK    6  A    between atoms: S_7  and  C_8
REMARK    7  A    between atoms: C_8  and  N_10
REMARK    8  A    between atoms: N_10  and  C_11
REMARK    9  A    between atoms: N_10  and  C_12
REMARK                            x       y       z     vdW  Elec       q    Type
REMARK                         _______ _______ _______ _____ _____    ______ ____
ROOT
ATOM      1  S   UNL     1      -9.851   5.162 130.402  0.00  0.00    +0.000 S 
ENDROOT
BRANCH   1   2
ATOM      2  C   UNL     1      -8.578   4.647 131.554  0.00  0.00    +0.000 C 
ATOM      3  S   UNL     1      -7.537   5.739 132.317  0.00  0.00    +0.000 S 
BRANCH   2   5
ATOM      4  C   UNL     1      -9.338   2.605 132.805  0.00  0.00    +0.000 C 
ATOM      5  N   UNL     1      -8.509   3.243 131.779  0.00  0.00    +0.000 N 
ATOM      6  C   UNL     1      -7.629   2.346 131.026  0.00  0.00    +0.000 C 
ENDBRANCH   2   5
ENDBRANCH   1   2
BRANCH   1   7
ATOM      7  S   UNL     1      -9.648   7.209 130.086  0.00  0.00    +0.000 S 
BRANCH   7   8
ATOM      8  C   UNL     1     -11.008   7.770 129.061  0.00  0.00    +0.000 C 
ATOM      9  S   UNL     1     -10.907   7.772 127.372  0.00  0.00    +0.000 S 
BRANCH   8  10
ATOM     10  N   UNL     1     -12.165   8.208 129.766  0.00  0.00    +0.000 N 
ATOM     11  C   UNL     1     -12.791   7.500 130.889  0.00  0.00    +0.000 C 
ATOM     12  C   UNL     1     -12.870   9.452 129.429  0.00  0.00    +0.000 C 
ENDBRANCH   8  10
ENDBRANCH   7   8
ENDBRANCH   1   7
TORSDOF 5
ENDMDL
MODEL 7
REMARK VINA RESULT:      -3.5      8.185     10.728
REMARK  Name = Thiram
REMARK  9 active torsions:
REMARK  status: ('A' for Active; 'I' for Inactive)
REMARK    1  A    between atoms: C_1  and  N_2
REMARK    2  A    between atoms: N_2  and  C_3
REMARK    3  A    between atoms: N_2  and  C_4
REMARK    4  A    between atoms: C_4  and  S_6
REMARK    5  A    between atoms: S_6  and  S_7
REMARK    6  A    between atoms: S_7  and  C_8
REMARK    7  A    between atoms: C_8  and  N_10
REMARK    8  A    between atoms: N_10  and  C_11
REMARK    9  A    between atoms: N_10  and  C_12
REMARK                            x       y       z     vdW  Elec       q    Type
REMARK                         _______ _______ _______ _____ _____    ______ ____
ROOT
ATOM      1  S   UNL     1      -7.144  -0.161 123.491  0.00  0.00    +0.000 S 
ENDROOT
BRANCH   1   2
ATOM      2  C   UNL     1      -7.189  -1.699 124.409  0.00  0.00    +0.000 C 
ATOM      3  S   UNL     1      -5.802  -2.422 125.054  0.00  0.00    +0.000 S 
BRANCH   2   5
ATOM      4  C   UNL     1      -9.182  -2.856 123.408  0.00  0.00    +0.000 C 
ATOM      5  N   UNL     1      -8.484  -2.270 124.556  0.00  0.00    +0.000 N 
ATOM      6  C   UNL     1      -9.206  -2.320 125.829  0.00  0.00    +0.000 C 
ENDBRANCH   2   5
ENDBRANCH   1   2
BRANCH   1   7
ATOM      7  S   UNL     1      -8.577   1.116 124.295  0.00  0.00    +0.000 S 
BRANCH   7   8
ATOM      8  C   UNL     1      -8.050   2.810 124.031  0.00  0.00    +0.000 C 
ATOM      9  S   UNL     1      -7.981   3.928 125.300  0.00  0.00    +0.000 S 
BRANCH   8  10
ATOM     10  N   UNL     1      -7.699   3.140 122.692  0.00  0.00    +0.000 N 
ATOM     11  C   UNL     1      -6.339   3.424 122.219  0.00  0.00    +0.000 C 
ATOM     12  C   UNL     1      -8.694   3.232 121.615  0.00  0.00    +0.000 C 
ENDBRANCH   8  10
ENDBRANCH   7   8
ENDBRANCH   1   7
TORSDOF 5
ENDMDL
MODEL 8
REMARK VINA RESULT:      -3.5      7.945      9.108
REMARK  Name = Thiram
REMARK  9 active torsions:
REMARK  status: ('A' for Active; 'I' for Inactive)
REMARK    1  A    between atoms: C_1  and  N_2
REMARK    2  A    between atoms: N_2  and  C_3
REMARK    3  A    between atoms: N_2  and  C_4
REMARK    4  A    between atoms: C_4  and  S_6
REMARK    5  A    between atoms: S_6  and  S_7
REMARK    6  A    between atoms: S_7  and  C_8
REMARK    7  A    between atoms: C_8  and  N_10
REMARK    8  A    between atoms: N_10  and  C_11
REMARK    9  A    between atoms: N_10  and  C_12
REMARK                            x       y       z     vdW  Elec       q    Type
REMARK                         _______ _______ _______ _____ _____    ______ ____
ROOT
ATOM      1  S   UNL     1      -9.266   1.485 124.359  0.00  0.00    +0.000 S 
ENDROOT
BRANCH   1   2
ATOM      2  C   UNL     1      -8.306   2.979 124.123  0.00  0.00    +0.000 C 
ATOM      3  S   UNL     1      -7.985   4.070 125.375  0.00  0.00    +0.000 S 
BRANCH   2   5
ATOM      4  C   UNL     1      -6.401   3.370 122.531  0.00  0.00    +0.000 C 
ATOM      5  N   UNL     1      -7.831   3.182 122.797  0.00  0.00    +0.000 N 
ATOM      6  C   UNL     1      -8.704   3.217 121.622  0.00  0.00    +0.000 C 
ENDBRANCH   2   5
ENDBRANCH   1   2
BRANCH   1   7
ATOM      7  S   UNL     1      -8.220  -0.100 123.507  0.00  0.00    +0.000 S 
BRANCH   7   8
ATOM      8  C   UNL     1      -7.953  -1.353 124.760  0.00  0.00    +0.000 C 
ATOM      9  S   UNL     1      -6.676  -1.247 125.866  0.00  0.00    +0.000 S 
BRANCH   8  10
ATOM     10  N   UNL     1      -8.883  -2.430 124.757  0.00  0.00    +0.000 N 
ATOM     11  C   UNL     1      -9.511  -3.012 125.949  0.00  0.00    +0.000 C 
ATOM     12  C   UNL     1      -9.323  -3.089 123.519  0.00  0.00    +0.000 C 
ENDBRANCH   8  10
ENDBRANCH   7   8
ENDBRANCH   1   7
TORSDOF 5
ENDMDL
MODEL 9
REMARK VINA RESULT:      -3.5      2.566      3.219
REMARK  Name = Thiram
REMARK  9 active torsions:
REMARK  status: ('A' for Active; 'I' for Inactive)
REMARK    1  A    between atoms: C_1  and  N_2
REMARK    2  A    between atoms: N_2  and  C_3
REMARK    3  A    between atoms: N_2  and  C_4
REMARK    4  A    between atoms: C_4  and  S_6
REMARK    5  A    between atoms: S_6  and  S_7
REMARK    6  A    between atoms: S_7  and  C_8
REMARK    7  A    between atoms: C_8  and  N_10
REMARK    8  A    between atoms: N_10  and  C_11
REMARK    9  A    between atoms: N_10  and  C_12
REMARK                            x       y       z     vdW  Elec       q    Type
REMARK                         _______ _______ _______ _____ _____    ______ ____
ROOT
ATOM      1  S   UNL     1      -9.862   6.232 129.679  0.00  0.00    +0.000 S 
ENDROOT
BRANCH   1   2
ATOM      2  C   UNL     1     -11.321   7.221 130.002  0.00  0.00    +0.000 C 
ATOM      3  S   UNL     1     -12.328   6.959 131.336  0.00  0.00    +0.000 S 
BRANCH   2   5
ATOM      4  C   UNL     1     -10.695   8.423 127.887  0.00  0.00    +0.000 C 
ATOM      5  N   UNL     1     -11.571   8.247 129.049  0.00  0.00    +0.000 N 
ATOM      6  C   UNL     1     -12.691   9.186 129.145  0.00  0.00    +0.000 C 
ENDBRANCH   2   5
ENDBRANCH   1   2
BRANCH   1   7
ATOM      7  S   UNL     1      -8.455   6.650 131.155  0.00  0.00    +0.000 S 
BRANCH   7   8
ATOM      8  C   UNL     1      -6.925   5.811 130.744  0.00  0.00    +0.000 C 
ATOM      9  S   UNL     1      -6.898   4.449 129.740  0.00  0.00    +0.000 S 
BRANCH   8  10
ATOM     10  N   UNL     1      -5.748   6.370 131.319  0.00  0.00    +0.000 N 
ATOM     11  C   UNL     1      -5.252   6.092 132.672  0.00  0.00    +0.000 C 
ATOM     12  C   UNL     1      -4.885   7.310 130.591  0.00  0.00    +0.000 C 
ENDBRANCH   8  10
ENDBRANCH   7   8
ENDBRANCH   1   7
TORSDOF 5
ENDMDL
