MODEL 1
REMARK VINA RESULT:      -7.1      0.000      0.000
REMARK  Name = Thonzonium
REMARK  25 active torsions:
REMARK  status: ('A' for Active; 'I' for Inactive)
REMARK    1  A    between atoms: C_1  and  C_2
REMARK    2  A    between atoms: C_2  and  C_3
REMARK    3  A    between atoms: C_3  and  C_4
REMARK    4  A    between atoms: C_4  and  C_5
REMARK    5  A    between atoms: C_5  and  C_6
REMARK    6  A    between atoms: C_6  and  C_7
REMARK    7  A    between atoms: C_7  and  C_8
REMARK    8  A    between atoms: C_8  and  C_9
REMARK    9  A    between atoms: C_9  and  C_10
REMARK   10  A    between atoms: C_10  and  C_11
REMARK   11  A    between atoms: C_11  and  C_12
REMARK   12  A    between atoms: C_12  and  C_13
REMARK   13  A    between atoms: C_13  and  C_14
REMARK   14  A    between atoms: C_14  and  C_15
REMARK   15  A    between atoms: C_15  and  C_16
REMARK   16  A    between atoms: C_16  and  N_17
REMARK   17  A    between atoms: N_17  and  C_18
REMARK   18  A    between atoms: N_17  and  C_19
REMARK   19  A    between atoms: N_17  and  C_20
REMARK   20  A    between atoms: C_20  and  C_21
REMARK   21  A    between atoms: C_21  and  N_22
REMARK   22  A    between atoms: N_22  and  C_23
REMARK   23  A    between atoms: C_23  and  C_24
REMARK   24  A    between atoms: C_27  and  O_28
REMARK   25  A    between atoms: O_28  and  C_29
REMARK                            x       y       z     vdW  Elec       q    Type
REMARK                         _______ _______ _______ _____ _____    ______ ____
ROOT
ATOM      1  N   UNL     1      -9.019   2.319 131.848  0.00  0.00    +0.000 N 
ATOM      2  C   UNL     1     -10.407   1.921 131.464  0.00  0.00    +0.000 C 
ATOM      3  C   UNL     1      -8.809   2.903 133.246  0.00  0.00    +0.000 C 
ENDROOT
BRANCH   1   4
ATOM      4  C   UNL     1      -8.578   3.370 130.847  0.00  0.00    +0.000 C 
BRANCH   4   5
ATOM      5  C   UNL     1      -9.573   4.290 130.149  0.00  0.00    +0.000 C 
BRANCH   5   6
ATOM      6  N   UNL     1      -9.602   5.676 130.636  0.00  0.00    +0.000 N 
ATOM      7  C   UNL     1     -10.285   6.502 129.748  0.00  0.00    +0.000 A 
ATOM      8  N   UNL     1      -9.725   7.657 129.339  0.00  0.00    +0.000 NA
ATOM      9  C   UNL     1     -10.370   8.355 128.383  0.00  0.00    +0.000 A 
ATOM     10  C   UNL     1     -11.582   7.995 127.840  0.00  0.00    +0.000 A 
ATOM     11  C   UNL     1     -12.096   6.822 128.340  0.00  0.00    +0.000 A 
ATOM     12  N   UNL     1     -11.461   6.060 129.244  0.00  0.00    +0.000 NA
BRANCH   6  13
ATOM     13  C   UNL     1      -9.017   6.342 131.828  0.00  0.00    +0.000 C 
BRANCH  13  14
ATOM     14  C   UNL     1      -7.488   6.443 131.930  0.00  0.00    +0.000 A 
ATOM     15  C   UNL     1      -6.693   7.069 130.965  0.00  0.00    +0.000 A 
ATOM     16  C   UNL     1      -5.313   6.800 130.873  0.00  0.00    +0.000 A 
ATOM     17  C   UNL     1      -4.687   5.959 131.793  0.00  0.00    +0.000 A 
ATOM     18  C   UNL     1      -5.442   5.498 132.860  0.00  0.00    +0.000 A 
ATOM     19  C   UNL     1      -6.806   5.841 132.992  0.00  0.00    +0.000 A 
BRANCH  17  20
ATOM     20  O   UNL     1      -3.352   5.754 131.573  0.00  0.00    +0.000 OA
ATOM     21  C   UNL     1      -2.979   5.211 130.323  0.00  0.00    +0.000 C 
ENDBRANCH  17  20
ENDBRANCH  13  14
ENDBRANCH   6  13
ENDBRANCH   5   6
ENDBRANCH   4   5
ENDBRANCH   1   4
BRANCH   1  22
ATOM     22  C   UNL     1      -8.085   1.105 131.707  0.00  0.00    +0.000 C 
BRANCH  22  23
ATOM     23  C   UNL     1      -8.083   0.529 130.304  0.00  0.00    +0.000 C 
BRANCH  23  24
ATOM     24  C   UNL     1      -7.865  -0.961 130.333  0.00  0.00    +0.000 C 
BRANCH  24  25
ATOM     25  C   UNL     1      -6.642  -1.326 129.569  0.00  0.00    +0.000 C 
BRANCH  25  26
ATOM     26  C   UNL     1      -7.047  -2.347 128.534  0.00  0.00    +0.000 C 
BRANCH  26  27
ATOM     27  C   UNL     1      -8.195  -3.104 129.131  0.00  0.00    +0.000 C 
BRANCH  27  28
ATOM     28  C   UNL     1      -8.962  -3.807 128.046  0.00  0.00    +0.000 C 
BRANCH  28  29
ATOM     29  C   UNL     1      -8.373  -3.385 126.720  0.00  0.00    +0.000 C 
BRANCH  29  30
ATOM     30  C   UNL     1      -9.491  -3.019 125.774  0.00  0.00    +0.000 C 
BRANCH  30  31
ATOM     31  C   UNL     1      -8.905  -2.401 124.522  0.00  0.00    +0.000 C 
BRANCH  31  32
ATOM     32  C   UNL     1      -8.008  -1.241 124.904  0.00  0.00    +0.000 C 
BRANCH  32  33
ATOM     33  C   UNL     1      -7.130  -0.861 123.727  0.00  0.00    +0.000 C 
BRANCH  33  34
ATOM     34  C   UNL     1      -6.820  -2.093 122.893  0.00  0.00    +0.000 C 
BRANCH  34  35
ATOM     35  C   UNL     1      -5.381  -2.524 123.117  0.00  0.00    +0.000 C 
BRANCH  35  37
ATOM     36  C   UNL     1      -4.325  -4.745 123.547  0.00  0.00    +0.000 C 
ATOM     37  C   UNL     1      -5.324  -3.721 124.055  0.00  0.00    +0.000 C 
ENDBRANCH  35  37
ENDBRANCH  34  35
ENDBRANCH  33  34
ENDBRANCH  32  33
ENDBRANCH  31  32
ENDBRANCH  30  31
ENDBRANCH  29  30
ENDBRANCH  28  29
ENDBRANCH  27  28
ENDBRANCH  26  27
ENDBRANCH  25  26
ENDBRANCH  24  25
ENDBRANCH  23  24
ENDBRANCH  22  23
ENDBRANCH   1  22
TORSDOF 21
ENDMDL
MODEL 2
REMARK VINA RESULT:      -7.1      2.472      5.068
REMARK  Name = Thonzonium
REMARK  25 active torsions:
REMARK  status: ('A' for Active; 'I' for Inactive)
REMARK    1  A    between atoms: C_1  and  C_2
REMARK    2  A    between atoms: C_2  and  C_3
REMARK    3  A    between atoms: C_3  and  C_4
REMARK    4  A    between atoms: C_4  and  C_5
REMARK    5  A    between atoms: C_5  and  C_6
REMARK    6  A    between atoms: C_6  and  C_7
REMARK    7  A    between atoms: C_7  and  C_8
REMARK    8  A    between atoms: C_8  and  C_9
REMARK    9  A    between atoms: C_9  and  C_10
REMARK   10  A    between atoms: C_10  and  C_11
REMARK   11  A    between atoms: C_11  and  C_12
REMARK   12  A    between atoms: C_12  and  C_13
REMARK   13  A    between atoms: C_13  and  C_14
REMARK   14  A    between atoms: C_14  and  C_15
REMARK   15  A    between atoms: C_15  and  C_16
REMARK   16  A    between atoms: C_16  and  N_17
REMARK   17  A    between atoms: N_17  and  C_18
REMARK   18  A    between atoms: N_17  and  C_19
REMARK   19  A    between atoms: N_17  and  C_20
REMARK   20  A    between atoms: C_20  and  C_21
REMARK   21  A    between atoms: C_21  and  N_22
REMARK   22  A    between atoms: N_22  and  C_23
REMARK   23  A    between atoms: C_23  and  C_24
REMARK   24  A    between atoms: C_27  and  O_28
REMARK   25  A    between atoms: O_28  and  C_29
REMARK                            x       y       z     vdW  Elec       q    Type
REMARK                         _______ _______ _______ _____ _____    ______ ____
ROOT
ATOM      1  N   UNL     1      -8.805   2.193 130.942  0.00  0.00    +0.000 N 
ATOM      2  C   UNL     1      -9.308   2.908 129.730  0.00  0.00    +0.000 C 
ATOM      3  C   UNL     1      -9.760   2.042 132.126  0.00  0.00    +0.000 C 
ENDROOT
BRANCH   1   4
ATOM      4  C   UNL     1      -7.596   2.968 131.431  0.00  0.00    +0.000 C 
BRANCH   4   5
ATOM      5  C   UNL     1      -6.915   4.029 130.573  0.00  0.00    +0.000 C 
BRANCH   5   6
ATOM      6  N   UNL     1      -6.948   5.395 131.113  0.00  0.00    +0.000 N 
ATOM      7  C   UNL     1      -5.744   6.053 130.877  0.00  0.00    +0.000 A 
ATOM      8  N   UNL     1      -5.113   6.683 131.886  0.00  0.00    +0.000 NA
ATOM      9  C   UNL     1      -3.891   7.193 131.633  0.00  0.00    +0.000 A 
ATOM     10  C   UNL     1      -3.274   7.160 130.403  0.00  0.00    +0.000 A 
ATOM     11  C   UNL     1      -4.003   6.529 129.424  0.00  0.00    +0.000 A 
ATOM     12  N   UNL     1      -5.194   5.950 129.644  0.00  0.00    +0.000 NA
BRANCH   6  13
ATOM     13  C   UNL     1      -7.967   6.157 131.879  0.00  0.00    +0.000 C 
BRANCH  13  14
ATOM     14  C   UNL     1      -9.333   6.407 131.225  0.00  0.00    +0.000 A 
ATOM     15  C   UNL     1      -9.493   7.090 130.016  0.00  0.00    +0.000 A 
ATOM     16  C   UNL     1     -10.735   7.648 129.653  0.00  0.00    +0.000 A 
ATOM     17  C   UNL     1     -11.861   7.467 130.458  0.00  0.00    +0.000 A 
ATOM     18  C   UNL     1     -11.740   6.626 131.552  0.00  0.00    +0.000 A 
ATOM     19  C   UNL     1     -10.511   6.001 131.862  0.00  0.00    +0.000 A 
BRANCH  17  20
ATOM     20  O   UNL     1     -12.995   8.088 130.011  0.00  0.00    +0.000 OA
ATOM     21  C   UNL     1     -12.829   9.227 129.193  0.00  0.00    +0.000 C 
ENDBRANCH  17  20
ENDBRANCH  13  14
ENDBRANCH   6  13
ENDBRANCH   5   6
ENDBRANCH   4   5
ENDBRANCH   1   4
BRANCH   1  22
ATOM     22  C   UNL     1      -8.336   0.784 130.541  0.00  0.00    +0.000 C 
BRANCH  22  23
ATOM     23  C   UNL     1      -7.790   0.730 129.127  0.00  0.00    +0.000 C 
BRANCH  23  24
ATOM     24  C   UNL     1      -6.362   0.250 129.119  0.00  0.00    +0.000 C 
BRANCH  24  25
ATOM     25  C   UNL     1      -6.012  -0.330 127.794  0.00  0.00    +0.000 C 
BRANCH  25  26
ATOM     26  C   UNL     1      -7.180  -0.080 126.872  0.00  0.00    +0.000 C 
BRANCH  26  27
ATOM     27  C   UNL     1      -6.704  -0.449 125.498  0.00  0.00    +0.000 C 
BRANCH  27  28
ATOM     28  C   UNL     1      -5.438  -1.253 125.594  0.00  0.00    +0.000 C 
BRANCH  28  29
ATOM     29  C   UNL     1      -5.624  -2.503 124.765  0.00  0.00    +0.000 C 
BRANCH  29  30
ATOM     30  C   UNL     1      -6.954  -2.433 124.053  0.00  0.00    +0.000 C 
BRANCH  30  31
ATOM     31  C   UNL     1      -7.782  -3.646 124.419  0.00  0.00    +0.000 C 
BRANCH  31  32
ATOM     32  C   UNL     1      -9.226  -3.233 124.613  0.00  0.00    +0.000 C 
BRANCH  32  33
ATOM     33  C   UNL     1      -9.469  -2.879 126.068  0.00  0.00    +0.000 C 
BRANCH  33  34
ATOM     34  C   UNL     1      -8.647  -3.786 126.966  0.00  0.00    +0.000 C 
BRANCH  34  35
ATOM     35  C   UNL     1      -8.650  -3.253 128.388  0.00  0.00    +0.000 C 
BRANCH  35  37
ATOM     36  C   UNL     1      -7.341  -3.100 130.508  0.00  0.00    +0.000 C 
ATOM     37  C   UNL     1      -7.283  -3.439 129.030  0.00  0.00    +0.000 C 
ENDBRANCH  35  37
ENDBRANCH  34  35
ENDBRANCH  33  34
ENDBRANCH  32  33
ENDBRANCH  31  32
ENDBRANCH  30  31
ENDBRANCH  29  30
ENDBRANCH  28  29
ENDBRANCH  27  28
ENDBRANCH  26  27
ENDBRANCH  25  26
ENDBRANCH  24  25
ENDBRANCH  23  24
ENDBRANCH  22  23
ENDBRANCH   1  22
TORSDOF 21
ENDMDL
MODEL 3
REMARK VINA RESULT:      -7.1      3.801      6.493
REMARK  Name = Thonzonium
REMARK  25 active torsions:
REMARK  status: ('A' for Active; 'I' for Inactive)
REMARK    1  A    between atoms: C_1  and  C_2
REMARK    2  A    between atoms: C_2  and  C_3
REMARK    3  A    between atoms: C_3  and  C_4
REMARK    4  A    between atoms: C_4  and  C_5
REMARK    5  A    between atoms: C_5  and  C_6
REMARK    6  A    between atoms: C_6  and  C_7
REMARK    7  A    between atoms: C_7  and  C_8
REMARK    8  A    between atoms: C_8  and  C_9
REMARK    9  A    between atoms: C_9  and  C_10
REMARK   10  A    between atoms: C_10  and  C_11
REMARK   11  A    between atoms: C_11  and  C_12
REMARK   12  A    between atoms: C_12  and  C_13
REMARK   13  A    between atoms: C_13  and  C_14
REMARK   14  A    between atoms: C_14  and  C_15
REMARK   15  A    between atoms: C_15  and  C_16
REMARK   16  A    between atoms: C_16  and  N_17
REMARK   17  A    between atoms: N_17  and  C_18
REMARK   18  A    between atoms: N_17  and  C_19
REMARK   19  A    between atoms: N_17  and  C_20
REMARK   20  A    between atoms: C_20  and  C_21
REMARK   21  A    between atoms: C_21  and  N_22
REMARK   22  A    between atoms: N_22  and  C_23
REMARK   23  A    between atoms: C_23  and  C_24
REMARK   24  A    between atoms: C_27  and  O_28
REMARK   25  A    between atoms: O_28  and  C_29
REMARK                            x       y       z     vdW  Elec       q    Type
REMARK                         _______ _______ _______ _____ _____    ______ ____
ROOT
ATOM      1  N   UNL     1      -8.294   2.448 130.118  0.00  0.00    +0.000 N 
ATOM      2  C   UNL     1      -8.249   1.491 128.971  0.00  0.00    +0.000 C 
ATOM      3  C   UNL     1      -8.930   1.964 131.421  0.00  0.00    +0.000 C 
ENDROOT
BRANCH   1   4
ATOM      4  C   UNL     1      -9.089   3.652 129.646  0.00  0.00    +0.000 C 
BRANCH   4   5
ATOM      5  C   UNL     1     -10.295   4.177 130.417  0.00  0.00    +0.000 C 
BRANCH   5   6
ATOM      6  N   UNL     1     -10.202   5.574 130.860  0.00  0.00    +0.000 N 
ATOM      7  C   UNL     1     -10.654   6.442 129.870  0.00  0.00    +0.000 A 
ATOM      8  N   UNL     1      -9.902   7.498 129.507  0.00  0.00    +0.000 NA
ATOM      9  C   UNL     1     -10.325   8.231 128.458  0.00  0.00    +0.000 A 
ATOM     10  C   UNL     1     -11.497   8.005 127.773  0.00  0.00    +0.000 A 
ATOM     11  C   UNL     1     -12.219   6.929 128.232  0.00  0.00    +0.000 A 
ATOM     12  N   UNL     1     -11.806   6.132 129.230  0.00  0.00    +0.000 NA
BRANCH   6  13
ATOM     13  C   UNL     1      -9.688   6.211 132.100  0.00  0.00    +0.000 C 
BRANCH  13  14
ATOM     14  C   UNL     1      -8.394   5.663 132.717  0.00  0.00    +0.000 A 
ATOM     15  C   UNL     1      -8.372   4.793 133.811  0.00  0.00    +0.000 A 
ATOM     16  C   UNL     1      -7.210   4.634 134.592  0.00  0.00    +0.000 A 
ATOM     17  C   UNL     1      -6.024   5.284 134.248  0.00  0.00    +0.000 A 
ATOM     18  C   UNL     1      -6.000   5.988 133.054  0.00  0.00    +0.000 A 
ATOM     19  C   UNL     1      -7.146   6.072 132.233  0.00  0.00    +0.000 A 
BRANCH  17  20
ATOM     20  O   UNL     1      -4.980   5.073 135.107  0.00  0.00    +0.000 OA
ATOM     21  C   UNL     1      -4.253   6.207 135.530  0.00  0.00    +0.000 C 
ENDBRANCH  17  20
ENDBRANCH  13  14
ENDBRANCH   6  13
ENDBRANCH   5   6
ENDBRANCH   4   5
ENDBRANCH   1   4
BRANCH   1  22
ATOM     22  C   UNL     1      -6.866   2.918 130.444  0.00  0.00    +0.000 C 
BRANCH  22  23
ATOM     23  C   UNL     1      -6.332   2.316 131.729  0.00  0.00    +0.000 C 
BRANCH  23  24
ATOM     24  C   UNL     1      -4.865   2.616 131.896  0.00  0.00    +0.000 C 
BRANCH  24  25
ATOM     25  C   UNL     1      -4.355   2.043 133.170  0.00  0.00    +0.000 C 
BRANCH  25  26
ATOM     26  C   UNL     1      -3.016   2.681 133.446  0.00  0.00    +0.000 C 
BRANCH  26  27
ATOM     27  C   UNL     1      -2.815   3.699 132.363  0.00  0.00    +0.000 C 
BRANCH  27  28
ATOM     28  C   UNL     1      -1.989   4.843 132.883  0.00  0.00    +0.000 C 
BRANCH  28  29
ATOM     29  C   UNL     1      -1.883   5.871 131.782  0.00  0.00    +0.000 C 
BRANCH  29  30
ATOM     30  C   UNL     1      -2.595   7.132 132.210  0.00  0.00    +0.000 C 
BRANCH  30  31
ATOM     31  C   UNL     1      -3.352   7.705 131.030  0.00  0.00    +0.000 C 
BRANCH  31  32
ATOM     32  C   UNL     1      -3.801   6.578 130.123  0.00  0.00    +0.000 C 
BRANCH  32  33
ATOM     33  C   UNL     1      -3.555   6.955 128.674  0.00  0.00    +0.000 C 
BRANCH  33  34
ATOM     34  C   UNL     1      -2.417   6.124 128.108  0.00  0.00    +0.000 C 
BRANCH  34  35
ATOM     35  C   UNL     1      -2.733   4.645 128.249  0.00  0.00    +0.000 C 
BRANCH  35  37
ATOM     36  C   UNL     1      -1.612   3.016 126.726  0.00  0.00    +0.000 C 
ATOM     37  C   UNL     1      -2.775   3.976 126.883  0.00  0.00    +0.000 C 
ENDBRANCH  35  37
ENDBRANCH  34  35
ENDBRANCH  33  34
ENDBRANCH  32  33
ENDBRANCH  31  32
ENDBRANCH  30  31
ENDBRANCH  29  30
ENDBRANCH  28  29
ENDBRANCH  27  28
ENDBRANCH  26  27
ENDBRANCH  25  26
ENDBRANCH  24  25
ENDBRANCH  23  24
ENDBRANCH  22  23
ENDBRANCH   1  22
TORSDOF 21
ENDMDL
MODEL 4
REMARK VINA RESULT:      -7.0      1.622      2.713
REMARK  Name = Thonzonium
REMARK  25 active torsions:
REMARK  status: ('A' for Active; 'I' for Inactive)
REMARK    1  A    between atoms: C_1  and  C_2
REMARK    2  A    between atoms: C_2  and  C_3
REMARK    3  A    between atoms: C_3  and  C_4
REMARK    4  A    between atoms: C_4  and  C_5
REMARK    5  A    between atoms: C_5  and  C_6
REMARK    6  A    between atoms: C_6  and  C_7
REMARK    7  A    between atoms: C_7  and  C_8
REMARK    8  A    between atoms: C_8  and  C_9
REMARK    9  A    between atoms: C_9  and  C_10
REMARK   10  A    between atoms: C_10  and  C_11
REMARK   11  A    between atoms: C_11  and  C_12
REMARK   12  A    between atoms: C_12  and  C_13
REMARK   13  A    between atoms: C_13  and  C_14
REMARK   14  A    between atoms: C_14  and  C_15
REMARK   15  A    between atoms: C_15  and  C_16
REMARK   16  A    between atoms: C_16  and  N_17
REMARK   17  A    between atoms: N_17  and  C_18
REMARK   18  A    between atoms: N_17  and  C_19
REMARK   19  A    between atoms: N_17  and  C_20
REMARK   20  A    between atoms: C_20  and  C_21
REMARK   21  A    between atoms: C_21  and  N_22
REMARK   22  A    between atoms: N_22  and  C_23
REMARK   23  A    between atoms: C_23  and  C_24
REMARK   24  A    between atoms: C_27  and  O_28
REMARK   25  A    between atoms: O_28  and  C_29
REMARK                            x       y       z     vdW  Elec       q    Type
REMARK                         _______ _______ _______ _____ _____    ______ ____
ROOT
ATOM      1  N   UNL     1      -7.104   3.320 128.669  0.00  0.00    +0.000 N 
ATOM      2  C   UNL     1      -7.303   2.528 129.921  0.00  0.00    +0.000 C 
ATOM      3  C   UNL     1      -5.781   4.071 128.507  0.00  0.00    +0.000 C 
ENDROOT
BRANCH   1   4
ATOM      4  C   UNL     1      -8.218   4.350 128.627  0.00  0.00    +0.000 C 
BRANCH   4   5
ATOM      5  C   UNL     1      -9.203   4.522 129.778  0.00  0.00    +0.000 C 
BRANCH   5   6
ATOM      6  N   UNL     1      -9.297   5.880 130.331  0.00  0.00    +0.000 N 
ATOM      7  C   UNL     1     -10.128   6.679 129.551  0.00  0.00    +0.000 A 
ATOM      8  N   UNL     1      -9.706   7.893 129.147  0.00  0.00    +0.000 NA
ATOM      9  C   UNL     1     -10.495   8.571 128.290  0.00  0.00    +0.000 A 
ATOM     10  C   UNL     1     -11.720   8.130 127.845  0.00  0.00    +0.000 A 
ATOM     11  C   UNL     1     -12.087   6.898 128.333  0.00  0.00    +0.000 A 
ATOM     12  N   UNL     1     -11.307   6.159 129.137  0.00  0.00    +0.000 NA
BRANCH   6  13
ATOM     13  C   UNL     1      -8.656   6.546 131.494  0.00  0.00    +0.000 C 
BRANCH  13  14
ATOM     14  C   UNL     1      -7.147   6.358 131.700  0.00  0.00    +0.000 A 
ATOM     15  C   UNL     1      -6.594   5.756 132.834  0.00  0.00    +0.000 A 
ATOM     16  C   UNL     1      -5.244   5.956 133.180  0.00  0.00    +0.000 A 
ATOM     17  C   UNL     1      -4.399   6.701 132.357  0.00  0.00    +0.000 A 
ATOM     18  C   UNL     1      -4.902   7.129 131.139  0.00  0.00    +0.000 A 
ATOM     19  C   UNL     1      -6.234   6.851 130.761  0.00  0.00    +0.000 A 
BRANCH  17  20
ATOM     20  O   UNL     1      -3.121   6.848 132.824  0.00  0.00    +0.000 OA
ATOM     21  C   UNL     1      -2.464   8.065 132.534  0.00  0.00    +0.000 C 
ENDBRANCH  17  20
ENDBRANCH  13  14
ENDBRANCH   6  13
ENDBRANCH   5   6
ENDBRANCH   4   5
ENDBRANCH   1   4
BRANCH   1  22
ATOM     22  C   UNL     1      -7.264   2.394 127.452  0.00  0.00    +0.000 C 
BRANCH  22  23
ATOM     23  C   UNL     1      -8.284   1.296 127.683  0.00  0.00    +0.000 C 
BRANCH  23  24
ATOM     24  C   UNL     1      -7.841   0.006 127.044  0.00  0.00    +0.000 C 
BRANCH  24  25
ATOM     25  C   UNL     1      -6.373   0.018 126.801  0.00  0.00    +0.000 C 
BRANCH  25  26
ATOM     26  C   UNL     1      -5.808  -1.244 127.405  0.00  0.00    +0.000 C 
BRANCH  26  27
ATOM     27  C   UNL     1      -5.664  -0.970 128.872  0.00  0.00    +0.000 C 
BRANCH  27  28
ATOM     28  C   UNL     1      -6.025  -2.199 129.659  0.00  0.00    +0.000 C 
BRANCH  28  29
ATOM     29  C   UNL     1      -6.841  -3.097 128.758  0.00  0.00    +0.000 C 
BRANCH  29  30
ATOM     30  C   UNL     1      -8.281  -3.079 129.211  0.00  0.00    +0.000 C 
BRANCH  30  31
ATOM     31  C   UNL     1      -9.126  -3.859 128.227  0.00  0.00    +0.000 C 
BRANCH  31  32
ATOM     32  C   UNL     1      -8.518  -3.752 126.843  0.00  0.00    +0.000 C 
BRANCH  32  33
ATOM     33  C   UNL     1      -9.459  -2.994 125.926  0.00  0.00    +0.000 C 
BRANCH  33  34
ATOM     34  C   UNL     1      -9.058  -3.213 124.478  0.00  0.00    +0.000 C 
BRANCH  34  35
ATOM     35  C   UNL     1      -7.582  -3.563 124.393  0.00  0.00    +0.000 C 
BRANCH  35  37
ATOM     36  C   UNL     1      -5.379  -2.791 123.510  0.00  0.00    +0.000 C 
ATOM     37  C   UNL     1      -6.777  -2.363 123.915  0.00  0.00    +0.000 C 
ENDBRANCH  35  37
ENDBRANCH  34  35
ENDBRANCH  33  34
ENDBRANCH  32  33
ENDBRANCH  31  32
ENDBRANCH  30  31
ENDBRANCH  29  30
ENDBRANCH  28  29
ENDBRANCH  27  28
ENDBRANCH  26  27
ENDBRANCH  25  26
ENDBRANCH  24  25
ENDBRANCH  23  24
ENDBRANCH  22  23
ENDBRANCH   1  22
TORSDOF 21
ENDMDL
MODEL 5
REMARK VINA RESULT:      -7.0      3.307      6.396
REMARK  Name = Thonzonium
REMARK  25 active torsions:
REMARK  status: ('A' for Active; 'I' for Inactive)
REMARK    1  A    between atoms: C_1  and  C_2
REMARK    2  A    between atoms: C_2  and  C_3
REMARK    3  A    between atoms: C_3  and  C_4
REMARK    4  A    between atoms: C_4  and  C_5
REMARK    5  A    between atoms: C_5  and  C_6
REMARK    6  A    between atoms: C_6  and  C_7
REMARK    7  A    between atoms: C_7  and  C_8
REMARK    8  A    between atoms: C_8  and  C_9
REMARK    9  A    between atoms: C_9  and  C_10
REMARK   10  A    between atoms: C_10  and  C_11
REMARK   11  A    between atoms: C_11  and  C_12
REMARK   12  A    between atoms: C_12  and  C_13
REMARK   13  A    between atoms: C_13  and  C_14
REMARK   14  A    between atoms: C_14  and  C_15
REMARK   15  A    between atoms: C_15  and  C_16
REMARK   16  A    between atoms: C_16  and  N_17
REMARK   17  A    between atoms: N_17  and  C_18
REMARK   18  A    between atoms: N_17  and  C_19
REMARK   19  A    between atoms: N_17  and  C_20
REMARK   20  A    between atoms: C_20  and  C_21
REMARK   21  A    between atoms: C_21  and  N_22
REMARK   22  A    between atoms: N_22  and  C_23
REMARK   23  A    between atoms: C_23  and  C_24
REMARK   24  A    between atoms: C_27  and  O_28
REMARK   25  A    between atoms: O_28  and  C_29
REMARK                            x       y       z     vdW  Elec       q    Type
REMARK                         _______ _______ _______ _____ _____    ______ ____
ROOT
ATOM      1  N   UNL     1      -4.274   4.110 127.252  0.00  0.00    +0.000 N 
ATOM      2  C   UNL     1      -2.871   4.416 127.667  0.00  0.00    +0.000 C 
ATOM      3  C   UNL     1      -5.105   5.252 126.667  0.00  0.00    +0.000 C 
ENDROOT
BRANCH   1   4
ATOM      4  C   UNL     1      -4.993   3.615 128.493  0.00  0.00    +0.000 C 
BRANCH   4   5
ATOM      5  C   UNL     1      -6.253   4.292 129.021  0.00  0.00    +0.000 C 
BRANCH   5   6
ATOM      6  N   UNL     1      -7.496   3.523 128.868  0.00  0.00    +0.000 N 
ATOM      7  C   UNL     1      -8.589   4.244 129.339  0.00  0.00    +0.000 A 
ATOM      8  N   UNL     1      -9.454   3.670 130.197  0.00  0.00    +0.000 NA
ATOM      9  C   UNL     1     -10.420   4.450 130.720  0.00  0.00    +0.000 A 
ATOM     10  C   UNL     1     -10.613   5.774 130.395  0.00  0.00    +0.000 A 
ATOM     11  C   UNL     1      -9.707   6.268 129.487  0.00  0.00    +0.000 A 
ATOM     12  N   UNL     1      -8.690   5.548 128.989  0.00  0.00    +0.000 NA
BRANCH   6  13
ATOM     13  C   UNL     1      -7.783   2.153 128.372  0.00  0.00    +0.000 C 
BRANCH  13  14
ATOM     14  C   UNL     1      -8.325   1.993 126.945  0.00  0.00    +0.000 A 
ATOM     15  C   UNL     1      -9.140   0.930 126.547  0.00  0.00    +0.000 A 
ATOM     16  C   UNL     1      -9.284   0.593 125.187  0.00  0.00    +0.000 A 
ATOM     17  C   UNL     1      -8.676   1.360 124.193  0.00  0.00    +0.000 A 
ATOM     18  C   UNL     1      -8.033   2.524 124.583  0.00  0.00    +0.000 A 
ATOM     19  C   UNL     1      -7.966   2.901 125.942  0.00  0.00    +0.000 A 
BRANCH  17  20
ATOM     20  O   UNL     1      -8.865   0.906 122.916  0.00  0.00    +0.000 OA
ATOM     21  C   UNL     1     -10.170   0.500 122.561  0.00  0.00    +0.000 C 
ENDBRANCH  17  20
ENDBRANCH  13  14
ENDBRANCH   6  13
ENDBRANCH   5   6
ENDBRANCH   4   5
ENDBRANCH   1   4
BRANCH   1  22
ATOM     22  C   UNL     1      -4.261   2.968 126.222  0.00  0.00    +0.000 C 
BRANCH  22  23
ATOM     23  C   UNL     1      -4.582   1.621 126.839  0.00  0.00    +0.000 C 
BRANCH  23  24
ATOM     24  C   UNL     1      -5.078   0.655 125.795  0.00  0.00    +0.000 C 
BRANCH  24  25
ATOM     25  C   UNL     1      -5.678  -0.547 126.436  0.00  0.00    +0.000 C 
BRANCH  25  26
ATOM     26  C   UNL     1      -5.340  -1.735 125.569  0.00  0.00    +0.000 C 
BRANCH  26  27
ATOM     27  C   UNL     1      -6.212  -1.617 124.354  0.00  0.00    +0.000 C 
BRANCH  27  28
ATOM     28  C   UNL     1      -6.921  -2.919 124.107  0.00  0.00    +0.000 C 
BRANCH  28  29
ATOM     29  C   UNL     1      -8.406  -2.640 124.107  0.00  0.00    +0.000 C 
BRANCH  29  30
ATOM     30  C   UNL     1      -9.073  -3.495 125.158  0.00  0.00    +0.000 C 
BRANCH  30  31
ATOM     31  C   UNL     1      -8.924  -2.832 126.511  0.00  0.00    +0.000 C 
BRANCH  31  32
ATOM     32  C   UNL     1      -8.906  -3.891 127.594  0.00  0.00    +0.000 C 
BRANCH  32  33
ATOM     33  C   UNL     1      -8.129  -3.386 128.795  0.00  0.00    +0.000 C 
BRANCH  33  34
ATOM     34  C   UNL     1      -8.044  -1.870 128.756  0.00  0.00    +0.000 C 
BRANCH  34  35
ATOM     35  C   UNL     1      -7.031  -1.379 129.776  0.00  0.00    +0.000 C 
BRANCH  35  37
ATOM     36  C   UNL     1      -8.656  -0.111 131.184  0.00  0.00    +0.000 C 
ATOM     37  C   UNL     1      -7.672  -1.266 131.152  0.00  0.00    +0.000 C 
ENDBRANCH  35  37
ENDBRANCH  34  35
ENDBRANCH  33  34
ENDBRANCH  32  33
ENDBRANCH  31  32
ENDBRANCH  30  31
ENDBRANCH  29  30
ENDBRANCH  28  29
ENDBRANCH  27  28
ENDBRANCH  26  27
ENDBRANCH  25  26
ENDBRANCH  24  25
ENDBRANCH  23  24
ENDBRANCH  22  23
ENDBRANCH   1  22
TORSDOF 21
ENDMDL
MODEL 6
REMARK VINA RESULT:      -7.0      1.480      2.254
REMARK  Name = Thonzonium
REMARK  25 active torsions:
REMARK  status: ('A' for Active; 'I' for Inactive)
REMARK    1  A    between atoms: C_1  and  C_2
REMARK    2  A    between atoms: C_2  and  C_3
REMARK    3  A    between atoms: C_3  and  C_4
REMARK    4  A    between atoms: C_4  and  C_5
REMARK    5  A    between atoms: C_5  and  C_6
REMARK    6  A    between atoms: C_6  and  C_7
REMARK    7  A    between atoms: C_7  and  C_8
REMARK    8  A    between atoms: C_8  and  C_9
REMARK    9  A    between atoms: C_9  and  C_10
REMARK   10  A    between atoms: C_10  and  C_11
REMARK   11  A    between atoms: C_11  and  C_12
REMARK   12  A    between atoms: C_12  and  C_13
REMARK   13  A    between atoms: C_13  and  C_14
REMARK   14  A    between atoms: C_14  and  C_15
REMARK   15  A    between atoms: C_15  and  C_16
REMARK   16  A    between atoms: C_16  and  N_17
REMARK   17  A    between atoms: N_17  and  C_18
REMARK   18  A    between atoms: N_17  and  C_19
REMARK   19  A    between atoms: N_17  and  C_20
REMARK   20  A    between atoms: C_20  and  C_21
REMARK   21  A    between atoms: C_21  and  N_22
REMARK   22  A    between atoms: N_22  and  C_23
REMARK   23  A    between atoms: C_23  and  C_24
REMARK   24  A    between atoms: C_27  and  O_28
REMARK   25  A    between atoms: O_28  and  C_29
REMARK                            x       y       z     vdW  Elec       q    Type
REMARK                         _______ _______ _______ _____ _____    ______ ____
ROOT
ATOM      1  N   UNL     1      -8.277   2.433 131.163  0.00  0.00    +0.000 N 
ATOM      2  C   UNL     1      -8.287   2.371 132.656  0.00  0.00    +0.000 C 
ATOM      3  C   UNL     1      -6.961   2.798 130.476  0.00  0.00    +0.000 C 
ENDROOT
BRANCH   1   4
ATOM      4  C   UNL     1      -9.301   3.480 130.767  0.00  0.00    +0.000 C 
BRANCH   4   5
ATOM      5  C   UNL     1      -9.028   4.503 129.670  0.00  0.00    +0.000 C 
BRANCH   5   6
ATOM      6  N   UNL     1      -9.067   5.909 130.094  0.00  0.00    +0.000 N 
ATOM      7  C   UNL     1     -10.119   6.585 129.483  0.00  0.00    +0.000 A 
ATOM      8  N   UNL     1      -9.895   7.761 128.867  0.00  0.00    +0.000 NA
ATOM      9  C   UNL     1     -10.918   8.309 128.182  0.00  0.00    +0.000 A 
ATOM     10  C   UNL     1     -12.185   7.776 128.117  0.00  0.00    +0.000 A 
ATOM     11  C   UNL     1     -12.334   6.593 128.801  0.00  0.00    +0.000 A 
ATOM     12  N   UNL     1     -11.328   5.977 129.442  0.00  0.00    +0.000 NA
BRANCH   6  13
ATOM     13  C   UNL     1      -8.196   6.724 130.979  0.00  0.00    +0.000 C 
BRANCH  13  14
ATOM     14  C   UNL     1      -7.693   6.095 132.286  0.00  0.00    +0.000 A 
ATOM     15  C   UNL     1      -8.518   5.842 133.385  0.00  0.00    +0.000 A 
ATOM     16  C   UNL     1      -7.979   5.653 134.673  0.00  0.00    +0.000 A 
ATOM     17  C   UNL     1      -6.598   5.636 134.873  0.00  0.00    +0.000 A 
ATOM     18  C   UNL     1      -5.785   5.691 133.751  0.00  0.00    +0.000 A 
ATOM     19  C   UNL     1      -6.336   5.795 132.455  0.00  0.00    +0.000 A 
BRANCH  17  20
ATOM     20  O   UNL     1      -6.205   5.478 136.174  0.00  0.00    +0.000 OA
ATOM     21  C   UNL     1      -6.983   6.113 137.166  0.00  0.00    +0.000 C 
ENDBRANCH  17  20
ENDBRANCH  13  14
ENDBRANCH   6  13
ENDBRANCH   5   6
ENDBRANCH   4   5
ENDBRANCH   1   4
BRANCH   1  22
ATOM     22  C   UNL     1      -8.736   1.078 130.597  0.00  0.00    +0.000 C 
BRANCH  22  23
ATOM     23  C   UNL     1      -7.777   0.522 129.563  0.00  0.00    +0.000 C 
BRANCH  23  24
ATOM     24  C   UNL     1      -7.135  -0.750 130.054  0.00  0.00    +0.000 C 
BRANCH  24  25
ATOM     25  C   UNL     1      -8.129  -1.856 130.098  0.00  0.00    +0.000 C 
BRANCH  25  26
ATOM     26  C   UNL     1      -7.453  -3.090 129.554  0.00  0.00    +0.000 C 
BRANCH  26  27
ATOM     27  C   UNL     1      -7.579  -3.005 128.062  0.00  0.00    +0.000 C 
BRANCH  27  28
ATOM     28  C   UNL     1      -8.780  -3.785 127.605  0.00  0.00    +0.000 C 
BRANCH  28  29
ATOM     29  C   UNL     1      -9.319  -3.112 126.365  0.00  0.00    +0.000 C 
BRANCH  29  30
ATOM     30  C   UNL     1      -8.733  -1.725 126.257  0.00  0.00    +0.000 C 
BRANCH  30  31
ATOM     31  C   UNL     1      -8.837  -1.248 124.824  0.00  0.00    +0.000 C 
BRANCH  31  32
ATOM     32  C   UNL     1      -9.102  -2.431 123.915  0.00  0.00    +0.000 C 
BRANCH  32  33
ATOM     33  C   UNL     1      -8.109  -2.431 122.769  0.00  0.00    +0.000 C 
BRANCH  33  34
ATOM     34  C   UNL     1      -6.842  -1.702 123.181  0.00  0.00    +0.000 C 
BRANCH  34  35
ATOM     35  C   UNL     1      -5.621  -2.494 122.748  0.00  0.00    +0.000 C 
BRANCH  35  37
ATOM     36  C   UNL     1      -4.464  -4.510 123.659  0.00  0.00    +0.000 C 
ATOM     37  C   UNL     1      -4.918  -3.093 123.958  0.00  0.00    +0.000 C 
ENDBRANCH  35  37
ENDBRANCH  34  35
ENDBRANCH  33  34
ENDBRANCH  32  33
ENDBRANCH  31  32
ENDBRANCH  30  31
ENDBRANCH  29  30
ENDBRANCH  28  29
ENDBRANCH  27  28
ENDBRANCH  26  27
ENDBRANCH  25  26
ENDBRANCH  24  25
ENDBRANCH  23  24
ENDBRANCH  22  23
ENDBRANCH   1  22
TORSDOF 21
ENDMDL
MODEL 7
REMARK VINA RESULT:      -6.9      1.492      3.272
REMARK  Name = Thonzonium
REMARK  25 active torsions:
REMARK  status: ('A' for Active; 'I' for Inactive)
REMARK    1  A    between atoms: C_1  and  C_2
REMARK    2  A    between atoms: C_2  and  C_3
REMARK    3  A    between atoms: C_3  and  C_4
REMARK    4  A    between atoms: C_4  and  C_5
REMARK    5  A    between atoms: C_5  and  C_6
REMARK    6  A    between atoms: C_6  and  C_7
REMARK    7  A    between atoms: C_7  and  C_8
REMARK    8  A    between atoms: C_8  and  C_9
REMARK    9  A    between atoms: C_9  and  C_10
REMARK   10  A    between atoms: C_10  and  C_11
REMARK   11  A    between atoms: C_11  and  C_12
REMARK   12  A    between atoms: C_12  and  C_13
REMARK   13  A    between atoms: C_13  and  C_14
REMARK   14  A    between atoms: C_14  and  C_15
REMARK   15  A    between atoms: C_15  and  C_16
REMARK   16  A    between atoms: C_16  and  N_17
REMARK   17  A    between atoms: N_17  and  C_18
REMARK   18  A    between atoms: N_17  and  C_19
REMARK   19  A    between atoms: N_17  and  C_20
REMARK   20  A    between atoms: C_20  and  C_21
REMARK   21  A    between atoms: C_21  and  N_22
REMARK   22  A    between atoms: N_22  and  C_23
REMARK   23  A    between atoms: C_23  and  C_24
REMARK   24  A    between atoms: C_27  and  O_28
REMARK   25  A    between atoms: O_28  and  C_29
REMARK                            x       y       z     vdW  Elec       q    Type
REMARK                         _______ _______ _______ _____ _____    ______ ____
ROOT
ATOM      1  N   UNL     1      -7.438   2.805 129.335  0.00  0.00    +0.000 N 
ATOM      2  C   UNL     1      -6.736   1.747 130.124  0.00  0.00    +0.000 C 
ATOM      3  C   UNL     1      -6.579   3.878 128.666  0.00  0.00    +0.000 C 
ENDROOT
BRANCH   1   4
ATOM      4  C   UNL     1      -8.378   3.509 130.295  0.00  0.00    +0.000 C 
BRANCH   4   5
ATOM      5  C   UNL     1      -9.536   4.372 129.806  0.00  0.00    +0.000 C 
BRANCH   5   6
ATOM      6  N   UNL     1      -9.630   5.706 130.414  0.00  0.00    +0.000 N 
ATOM      7  C   UNL     1     -10.302   6.589 129.573  0.00  0.00    +0.000 A 
ATOM      8  N   UNL     1      -9.764   7.792 129.295  0.00  0.00    +0.000 NA
ATOM      9  C   UNL     1     -10.389   8.556 128.377  0.00  0.00    +0.000 A 
ATOM     10  C   UNL     1     -11.565   8.211 127.750  0.00  0.00    +0.000 A 
ATOM     11  C   UNL     1     -12.061   6.984 128.118  0.00  0.00    +0.000 A 
ATOM     12  N   UNL     1     -11.440   6.162 128.978  0.00  0.00    +0.000 NA
BRANCH   6  13
ATOM     13  C   UNL     1      -9.119   6.277 131.686  0.00  0.00    +0.000 C 
BRANCH  13  14
ATOM     14  C   UNL     1      -7.600   6.406 131.868  0.00  0.00    +0.000 A 
ATOM     15  C   UNL     1      -6.772   7.086 130.970  0.00  0.00    +0.000 A 
ATOM     16  C   UNL     1      -5.384   6.850 130.937  0.00  0.00    +0.000 A 
ATOM     17  C   UNL     1      -4.785   5.986 131.854  0.00  0.00    +0.000 A 
ATOM     18  C   UNL     1      -5.581   5.468 132.864  0.00  0.00    +0.000 A 
ATOM     19  C   UNL     1      -6.957   5.777 132.940  0.00  0.00    +0.000 A 
BRANCH  17  20
ATOM     20  O   UNL     1      -3.437   5.818 131.694  0.00  0.00    +0.000 OA
ATOM     21  C   UNL     1      -2.914   5.990 130.393  0.00  0.00    +0.000 C 
ENDBRANCH  17  20
ENDBRANCH  13  14
ENDBRANCH   6  13
ENDBRANCH   5   6
ENDBRANCH   4   5
ENDBRANCH   1   4
BRANCH   1  22
ATOM     22  C   UNL     1      -8.287   2.139 128.239  0.00  0.00    +0.000 C 
BRANCH  22  23
ATOM     23  C   UNL     1      -7.985   0.662 128.081  0.00  0.00    +0.000 C 
BRANCH  23  24
ATOM     24  C   UNL     1      -7.275   0.392 126.780  0.00  0.00    +0.000 C 
BRANCH  24  25
ATOM     25  C   UNL     1      -8.220   0.500 125.636  0.00  0.00    +0.000 C 
BRANCH  25  26
ATOM     26  C   UNL     1      -7.393   0.651 124.383  0.00  0.00    +0.000 C 
BRANCH  26  27
ATOM     27  C   UNL     1      -7.461  -0.673 123.683  0.00  0.00    +0.000 C 
BRANCH  27  28
ATOM     28  C   UNL     1      -8.893  -1.020 123.383  0.00  0.00    +0.000 C 
BRANCH  28  29
ATOM     29  C   UNL     1      -9.001  -2.526 123.341  0.00  0.00    +0.000 C 
BRANCH  29  30
ATOM     30  C   UNL     1      -7.837  -3.129 124.090  0.00  0.00    +0.000 C 
BRANCH  30  31
ATOM     31  C   UNL     1      -8.360  -3.942 125.256  0.00  0.00    +0.000 C 
BRANCH  31  32
ATOM     32  C   UNL     1      -8.420  -3.069 126.493  0.00  0.00    +0.000 C 
BRANCH  32  33
ATOM     33  C   UNL     1      -8.895  -3.889 127.678  0.00  0.00    +0.000 C 
BRANCH  33  34
ATOM     34  C   UNL     1      -8.492  -3.207 128.974  0.00  0.00    +0.000 C 
BRANCH  34  35
ATOM     35  C   UNL     1      -7.055  -3.556 129.321  0.00  0.00    +0.000 C 
BRANCH  35  37
ATOM     36  C   UNL     1      -5.066  -2.460 128.286  0.00  0.00    +0.000 C 
ATOM     37  C   UNL     1      -6.184  -2.308 129.300  0.00  0.00    +0.000 C 
ENDBRANCH  35  37
ENDBRANCH  34  35
ENDBRANCH  33  34
ENDBRANCH  32  33
ENDBRANCH  31  32
ENDBRANCH  30  31
ENDBRANCH  29  30
ENDBRANCH  28  29
ENDBRANCH  27  28
ENDBRANCH  26  27
ENDBRANCH  25  26
ENDBRANCH  24  25
ENDBRANCH  23  24
ENDBRANCH  22  23
ENDBRANCH   1  22
TORSDOF 21
ENDMDL
MODEL 8
REMARK VINA RESULT:      -6.8      4.802      8.320
REMARK  Name = Thonzonium
REMARK  25 active torsions:
REMARK  status: ('A' for Active; 'I' for Inactive)
REMARK    1  A    between atoms: C_1  and  C_2
REMARK    2  A    between atoms: C_2  and  C_3
REMARK    3  A    between atoms: C_3  and  C_4
REMARK    4  A    between atoms: C_4  and  C_5
REMARK    5  A    between atoms: C_5  and  C_6
REMARK    6  A    between atoms: C_6  and  C_7
REMARK    7  A    between atoms: C_7  and  C_8
REMARK    8  A    between atoms: C_8  and  C_9
REMARK    9  A    between atoms: C_9  and  C_10
REMARK   10  A    between atoms: C_10  and  C_11
REMARK   11  A    between atoms: C_11  and  C_12
REMARK   12  A    between atoms: C_12  and  C_13
REMARK   13  A    between atoms: C_13  and  C_14
REMARK   14  A    between atoms: C_14  and  C_15
REMARK   15  A    between atoms: C_15  and  C_16
REMARK   16  A    between atoms: C_16  and  N_17
REMARK   17  A    between atoms: N_17  and  C_18
REMARK   18  A    between atoms: N_17  and  C_19
REMARK   19  A    between atoms: N_17  and  C_20
REMARK   20  A    between atoms: C_20  and  C_21
REMARK   21  A    between atoms: C_21  and  N_22
REMARK   22  A    between atoms: N_22  and  C_23
REMARK   23  A    between atoms: C_23  and  C_24
REMARK   24  A    between atoms: C_27  and  O_28
REMARK   25  A    between atoms: O_28  and  C_29
REMARK                            x       y       z     vdW  Elec       q    Type
REMARK                         _______ _______ _______ _____ _____    ______ ____
ROOT
ATOM      1  N   UNL     1      -8.241   0.438 125.117  0.00  0.00    +0.000 N 
ATOM      2  C   UNL     1      -7.349  -0.158 124.076  0.00  0.00    +0.000 C 
ATOM      3  C   UNL     1      -9.230   1.516 124.672  0.00  0.00    +0.000 C 
ENDROOT
BRANCH   1   4
ATOM      4  C   UNL     1      -7.332   1.059 126.161  0.00  0.00    +0.000 C 
BRANCH   4   5
ATOM      5  C   UNL     1      -5.892   1.450 125.849  0.00  0.00    +0.000 C 
BRANCH   5   6
ATOM      6  N   UNL     1      -5.680   2.863 125.506  0.00  0.00    +0.000 N 
ATOM      7  C   UNL     1      -4.625   3.400 126.237  0.00  0.00    +0.000 A 
ATOM      8  N   UNL     1      -4.786   4.564 126.895  0.00  0.00    +0.000 NA
ATOM      9  C   UNL     1      -3.779   4.974 127.690  0.00  0.00    +0.000 A 
ATOM     10  C   UNL     1      -2.580   4.312 127.830  0.00  0.00    +0.000 A 
ATOM     11  C   UNL     1      -2.488   3.153 127.097  0.00  0.00    +0.000 A 
ATOM     12  N   UNL     1      -3.488   2.672 126.344  0.00  0.00    +0.000 NA
BRANCH   6  13
ATOM     13  C   UNL     1      -6.388   3.801 124.597  0.00  0.00    +0.000 C 
BRANCH  13  14
ATOM     14  C   UNL     1      -5.907   3.909 123.144  0.00  0.00    +0.000 A 
ATOM     15  C   UNL     1      -4.741   4.583 122.768  0.00  0.00    +0.000 A 
ATOM     16  C   UNL     1      -4.541   5.008 121.440  0.00  0.00    +0.000 A 
ATOM     17  C   UNL     1      -5.470   4.701 120.445  0.00  0.00    +0.000 A 
ATOM     18  C   UNL     1      -6.523   3.866 120.784  0.00  0.00    +0.000 A 
ATOM     19  C   UNL     1      -6.670   3.374 122.100  0.00  0.00    +0.000 A 
BRANCH  17  20
ATOM     20  O   UNL     1      -5.175   5.201 119.206  0.00  0.00    +0.000 OA
ATOM     21  C   UNL     1      -6.262   5.528 118.366  0.00  0.00    +0.000 C 
ENDBRANCH  17  20
ENDBRANCH  13  14
ENDBRANCH   6  13
ENDBRANCH   5   6
ENDBRANCH   4   5
ENDBRANCH   1   4
BRANCH   1  22
ATOM     22  C   UNL     1      -9.049  -0.682 125.795  0.00  0.00    +0.000 C 
BRANCH  22  23
ATOM     23  C   UNL     1      -8.165  -1.721 126.456  0.00  0.00    +0.000 C 
BRANCH  23  24
ATOM     24  C   UNL     1      -8.865  -3.053 126.535  0.00  0.00    +0.000 C 
BRANCH  24  25
ATOM     25  C   UNL     1      -8.514  -3.756 127.799  0.00  0.00    +0.000 C 
BRANCH  25  26
ATOM     26  C   UNL     1      -8.231  -2.698 128.837  0.00  0.00    +0.000 C 
BRANCH  26  27
ATOM     27  C   UNL     1      -7.479  -3.391 129.935  0.00  0.00    +0.000 C 
BRANCH  27  28
ATOM     28  C   UNL     1      -6.002  -3.312 129.671  0.00  0.00    +0.000 C 
BRANCH  28  29
ATOM     29  C   UNL     1      -5.344  -4.464 130.395  0.00  0.00    +0.000 C 
BRANCH  29  30
ATOM     30  C   UNL     1      -5.735  -4.422 131.853  0.00  0.00    +0.000 C 
BRANCH  30  31
ATOM     31  C   UNL     1      -4.844  -3.439 132.581  0.00  0.00    +0.000 C 
BRANCH  31  32
ATOM     32  C   UNL     1      -5.685  -2.302 133.124  0.00  0.00    +0.000 C 
BRANCH  32  33
ATOM     33  C   UNL     1      -5.184  -0.981 132.570  0.00  0.00    +0.000 C 
BRANCH  33  34
ATOM     34  C   UNL     1      -6.324  -0.238 131.895  0.00  0.00    +0.000 C 
BRANCH  34  35
ATOM     35  C   UNL     1      -7.657  -0.728 132.433  0.00  0.00    +0.000 C 
BRANCH  35  37
ATOM     36  C   UNL     1      -8.298   0.628 130.438  0.00  0.00    +0.000 C 
ATOM     37  C   UNL     1      -8.807  -0.072 131.684  0.00  0.00    +0.000 C 
ENDBRANCH  35  37
ENDBRANCH  34  35
ENDBRANCH  33  34
ENDBRANCH  32  33
ENDBRANCH  31  32
ENDBRANCH  30  31
ENDBRANCH  29  30
ENDBRANCH  28  29
ENDBRANCH  27  28
ENDBRANCH  26  27
ENDBRANCH  25  26
ENDBRANCH  24  25
ENDBRANCH  23  24
ENDBRANCH  22  23
ENDBRANCH   1  22
TORSDOF 21
ENDMDL
MODEL 9
REMARK VINA RESULT:      -6.8      2.718      3.536
REMARK  Name = Thonzonium
REMARK  25 active torsions:
REMARK  status: ('A' for Active; 'I' for Inactive)
REMARK    1  A    between atoms: C_1  and  C_2
REMARK    2  A    between atoms: C_2  and  C_3
REMARK    3  A    between atoms: C_3  and  C_4
REMARK    4  A    between atoms: C_4  and  C_5
REMARK    5  A    between atoms: C_5  and  C_6
REMARK    6  A    between atoms: C_6  and  C_7
REMARK    7  A    between atoms: C_7  and  C_8
REMARK    8  A    between atoms: C_8  and  C_9
REMARK    9  A    between atoms: C_9  and  C_10
REMARK   10  A    between atoms: C_10  and  C_11
REMARK   11  A    between atoms: C_11  and  C_12
REMARK   12  A    between atoms: C_12  and  C_13
REMARK   13  A    between atoms: C_13  and  C_14
REMARK   14  A    between atoms: C_14  and  C_15
REMARK   15  A    between atoms: C_15  and  C_16
REMARK   16  A    between atoms: C_16  and  N_17
REMARK   17  A    between atoms: N_17  and  C_18
REMARK   18  A    between atoms: N_17  and  C_19
REMARK   19  A    between atoms: N_17  and  C_20
REMARK   20  A    between atoms: C_20  and  C_21
REMARK   21  A    between atoms: C_21  and  N_22
REMARK   22  A    between atoms: N_22  and  C_23
REMARK   23  A    between atoms: C_23  and  C_24
REMARK   24  A    between atoms: C_27  and  O_28
REMARK   25  A    between atoms: O_28  and  C_29
REMARK                            x       y       z     vdW  Elec       q    Type
REMARK                         _______ _______ _______ _____ _____    ______ ____
ROOT
ATOM      1  N   UNL     1      -8.425   2.310 131.899  0.00  0.00    +0.000 N 
ATOM      2  C   UNL     1      -9.659   2.582 131.101  0.00  0.00    +0.000 C 
ATOM      3  C   UNL     1      -8.337   2.917 133.299  0.00  0.00    +0.000 C 
ENDROOT
BRANCH   1   4
ATOM      4  C   UNL     1      -7.260   2.856 131.094  0.00  0.00    +0.000 C 
BRANCH   4   5
ATOM      5  C   UNL     1      -7.461   3.847 129.953  0.00  0.00    +0.000 C 
BRANCH   5   6
ATOM      6  N   UNL     1      -6.607   3.638 128.776  0.00  0.00    +0.000 N 
ATOM      7  C   UNL     1      -7.031   2.533 128.043  0.00  0.00    +0.000 A 
ATOM      8  N   UNL     1      -6.143   1.588 127.679  0.00  0.00    +0.000 NA
ATOM      9  C   UNL     1      -6.625   0.479 127.084  0.00  0.00    +0.000 A 
ATOM     10  C   UNL     1      -7.951   0.275 126.777  0.00  0.00    +0.000 A 
ATOM     11  C   UNL     1      -8.781   1.304 127.153  0.00  0.00    +0.000 A 
ATOM     12  N   UNL     1      -8.356   2.397 127.806  0.00  0.00    +0.000 NA
BRANCH   6  13
ATOM     13  C   UNL     1      -5.392   4.328 128.271  0.00  0.00    +0.000 C 
BRANCH  13  14
ATOM     14  C   UNL     1      -4.465   5.009 129.288  0.00  0.00    +0.000 A 
ATOM     15  C   UNL     1      -4.086   6.351 129.204  0.00  0.00    +0.000 A 
ATOM     16  C   UNL     1      -2.951   6.831 129.887  0.00  0.00    +0.000 A 
ATOM     17  C   UNL     1      -2.217   5.994 130.728  0.00  0.00    +0.000 A 
ATOM     18  C   UNL     1      -2.712   4.720 130.959  0.00  0.00    +0.000 A 
ATOM     19  C   UNL     1      -3.899   4.274 130.336  0.00  0.00    +0.000 A 
BRANCH  17  20
ATOM     20  O   UNL     1      -1.119   6.573 131.304  0.00  0.00    +0.000 OA
ATOM     21  C   UNL     1      -1.325   7.317 132.486  0.00  0.00    +0.000 C 
ENDBRANCH  17  20
ENDBRANCH  13  14
ENDBRANCH   6  13
ENDBRANCH   5   6
ENDBRANCH   4   5
ENDBRANCH   1   4
BRANCH   1  22
ATOM     22  C   UNL     1      -8.236   0.790 132.039  0.00  0.00    +0.000 C 
BRANCH  22  23
ATOM     23  C   UNL     1      -7.471   0.187 130.877  0.00  0.00    +0.000 C 
BRANCH  23  24
ATOM     24  C   UNL     1      -8.146  -1.065 130.379  0.00  0.00    +0.000 C 
BRANCH  24  25
ATOM     25  C   UNL     1      -7.445  -2.275 130.886  0.00  0.00    +0.000 C 
BRANCH  25  26
ATOM     26  C   UNL     1      -7.372  -3.262 129.747  0.00  0.00    +0.000 C 
BRANCH  26  27
ATOM     27  C   UNL     1      -8.264  -2.716 128.672  0.00  0.00    +0.000 C 
BRANCH  27  28
ATOM     28  C   UNL     1      -8.768  -3.838 127.808  0.00  0.00    +0.000 C 
BRANCH  28  29
ATOM     29  C   UNL     1      -9.247  -3.236 126.507  0.00  0.00    +0.000 C 
BRANCH  29  30
ATOM     30  C   UNL     1      -8.491  -3.865 125.361  0.00  0.00    +0.000 C 
BRANCH  30  31
ATOM     31  C   UNL     1      -9.099  -3.409 124.051  0.00  0.00    +0.000 C 
BRANCH  31  32
ATOM     32  C   UNL     1      -8.733  -1.960 123.801  0.00  0.00    +0.000 C 
BRANCH  32  33
ATOM     33  C   UNL     1      -7.689  -1.876 122.704  0.00  0.00    +0.000 C 
BRANCH  33  34
ATOM     34  C   UNL     1      -6.325  -1.590 123.308  0.00  0.00    +0.000 C 
BRANCH  34  35
ATOM     35  C   UNL     1      -5.328  -2.648 122.866  0.00  0.00    +0.000 C 
BRANCH  35  37
ATOM     36  C   UNL     1      -4.144  -4.745 123.520  0.00  0.00    +0.000 C 
ATOM     37  C   UNL     1      -5.058  -3.631 123.995  0.00  0.00    +0.000 C 
ENDBRANCH  35  37
ENDBRANCH  34  35
ENDBRANCH  33  34
ENDBRANCH  32  33
ENDBRANCH  31  32
ENDBRANCH  30  31
ENDBRANCH  29  30
ENDBRANCH  28  29
ENDBRANCH  27  28
ENDBRANCH  26  27
ENDBRANCH  25  26
ENDBRANCH  24  25
ENDBRANCH  23  24
ENDBRANCH  22  23
ENDBRANCH   1  22
TORSDOF 21
ENDMDL
