MODEL 1
REMARK VINA RESULT:      -6.1      0.000      0.000
REMARK  Name = Thonzylamine
REMARK  9 active torsions:
REMARK  status: ('A' for Active; 'I' for Inactive)
REMARK    1  A    between atoms: C_1  and  O_2
REMARK    2  A    between atoms: O_2  and  C_3
REMARK    3  A    between atoms: C_6  and  C_7
REMARK    4  A    between atoms: C_7  and  N_8
REMARK    5  A    between atoms: N_8  and  C_9
REMARK    6  A    between atoms: C_9  and  C_10
REMARK    7  A    between atoms: C_10  and  N_11
REMARK    8  A    between atoms: N_11  and  C_12
REMARK    9  A    between atoms: N_11  and  C_13
REMARK                            x       y       z     vdW  Elec       q    Type
REMARK                         _______ _______ _______ _____ _____    ______ ____
ROOT
ATOM      1  N   UNL     1      -8.139   2.709 123.411  0.00  0.00    +0.000 N 
ATOM      2  C   UNL     1      -7.954   3.237 122.107  0.00  0.00    +0.000 A 
ATOM      3  N   UNL     1      -6.708   3.555 121.694  0.00  0.00    +0.000 NA
ATOM      4  C   UNL     1      -6.545   4.030 120.437  0.00  0.00    +0.000 A 
ATOM      5  C   UNL     1      -7.580   4.268 119.574  0.00  0.00    +0.000 A 
ATOM      6  C   UNL     1      -8.815   3.961 120.081  0.00  0.00    +0.000 A 
ATOM      7  N   UNL     1      -9.023   3.422 121.308  0.00  0.00    +0.000 NA
ENDROOT
BRANCH   1   8
ATOM      8  C   UNL     1      -9.074   1.511 123.437  0.00  0.00    +0.000 C 
BRANCH   8  12
ATOM      9  C   UNL     1      -7.259  -2.425 123.870  0.00  0.00    +0.000 A 
ATOM     10  C   UNL     1      -8.471  -2.407 123.187  0.00  0.00    +0.000 A 
ATOM     11  C   UNL     1      -9.124  -1.134 122.938  0.00  0.00    +0.000 A 
ATOM     12  C   UNL     1      -8.543   0.078 123.284  0.00  0.00    +0.000 A 
ATOM     13  C   UNL     1      -7.189  -0.070 123.246  0.00  0.00    +0.000 A 
ATOM     14  C   UNL     1      -6.679  -1.229 123.854  0.00  0.00    +0.000 A 
BRANCH   9  16
ATOM     15  C   UNL     1      -5.201  -3.754 123.952  0.00  0.00    +0.000 C 
ATOM     16  O   UNL     1      -6.610  -3.581 124.230  0.00  0.00    +0.000 OA
ENDBRANCH   9  16
ENDBRANCH   8  12
ENDBRANCH   1   8
BRANCH   1  17
ATOM     17  C   UNL     1      -7.325   3.483 124.425  0.00  0.00    +0.000 C 
BRANCH  17  18
ATOM     18  C   UNL     1      -6.104   2.821 125.125  0.00  0.00    +0.000 C 
BRANCH  18  19
ATOM     19  N   UNL     1      -6.010   2.189 126.472  0.00  0.00    +0.000 NA
ATOM     20  C   UNL     1      -7.289   1.568 126.736  0.00  0.00    +0.000 C 
ATOM     21  C   UNL     1      -4.983   1.115 126.508  0.00  0.00    +0.000 C 
ENDBRANCH  18  19
ENDBRANCH  17  18
ENDBRANCH   1  17
TORSDOF 6
ENDMDL
MODEL 2
REMARK VINA RESULT:      -6.0      6.673      9.174
REMARK  Name = Thonzylamine
REMARK  9 active torsions:
REMARK  status: ('A' for Active; 'I' for Inactive)
REMARK    1  A    between atoms: C_1  and  O_2
REMARK    2  A    between atoms: O_2  and  C_3
REMARK    3  A    between atoms: C_6  and  C_7
REMARK    4  A    between atoms: C_7  and  N_8
REMARK    5  A    between atoms: N_8  and  C_9
REMARK    6  A    between atoms: C_9  and  C_10
REMARK    7  A    between atoms: C_10  and  N_11
REMARK    8  A    between atoms: N_11  and  C_12
REMARK    9  A    between atoms: N_11  and  C_13
REMARK                            x       y       z     vdW  Elec       q    Type
REMARK                         _______ _______ _______ _____ _____    ______ ____
ROOT
ATOM      1  N   UNL     1     -10.262   5.721 130.485  0.00  0.00    +0.000 N 
ATOM      2  C   UNL     1     -10.844   6.415 129.393  0.00  0.00    +0.000 A 
ATOM      3  N   UNL     1     -12.137   6.186 129.079  0.00  0.00    +0.000 NA
ATOM      4  C   UNL     1     -12.686   6.877 128.052  0.00  0.00    +0.000 A 
ATOM      5  C   UNL     1     -11.988   7.754 127.266  0.00  0.00    +0.000 A 
ATOM      6  C   UNL     1     -10.672   7.900 127.621  0.00  0.00    +0.000 A 
ATOM      7  N   UNL     1     -10.095   7.280 128.681  0.00  0.00    +0.000 NA
ENDROOT
BRANCH   1   8
ATOM      8  C   UNL     1      -9.437   6.625 131.387  0.00  0.00    +0.000 C 
BRANCH   8  12
ATOM      9  C   UNL     1      -5.314   5.225 131.535  0.00  0.00    +0.000 A 
ATOM     10  C   UNL     1      -5.481   6.516 131.042  0.00  0.00    +0.000 A 
ATOM     11  C   UNL     1      -6.813   7.095 131.011  0.00  0.00    +0.000 A 
ATOM     12  C   UNL     1      -7.919   6.439 131.533  0.00  0.00    +0.000 A 
ATOM     13  C   UNL     1      -7.498   5.625 132.541  0.00  0.00    +0.000 A 
ATOM     14  C   UNL     1      -6.356   4.853 132.273  0.00  0.00    +0.000 A 
BRANCH   9  16
ATOM     15  C   UNL     1      -3.257   4.601 130.359  0.00  0.00    +0.000 C 
ATOM     16  O   UNL     1      -4.112   4.560 131.524  0.00  0.00    +0.000 OA
ENDBRANCH   9  16
ENDBRANCH   8  12
ENDBRANCH   1   8
BRANCH   1  17
ATOM     17  C   UNL     1     -10.649   4.259 130.461  0.00  0.00    +0.000 C 
BRANCH  17  18
ATOM     18  C   UNL     1      -9.599   3.173 130.091  0.00  0.00    +0.000 C 
BRANCH  18  19
ATOM     19  N   UNL     1      -8.866   2.959 128.811  0.00  0.00    +0.000 NA
ATOM     20  C   UNL     1      -7.711   3.827 128.836  0.00  0.00    +0.000 C 
ATOM     21  C   UNL     1      -8.366   1.564 128.687  0.00  0.00    +0.000 C 
ENDBRANCH  18  19
ENDBRANCH  17  18
ENDBRANCH   1  17
TORSDOF 6
ENDMDL
MODEL 3
REMARK VINA RESULT:      -6.0      7.514      8.463
REMARK  Name = Thonzylamine
REMARK  9 active torsions:
REMARK  status: ('A' for Active; 'I' for Inactive)
REMARK    1  A    between atoms: C_1  and  O_2
REMARK    2  A    between atoms: O_2  and  C_3
REMARK    3  A    between atoms: C_6  and  C_7
REMARK    4  A    between atoms: C_7  and  N_8
REMARK    5  A    between atoms: N_8  and  C_9
REMARK    6  A    between atoms: C_9  and  C_10
REMARK    7  A    between atoms: C_10  and  N_11
REMARK    8  A    between atoms: N_11  and  C_12
REMARK    9  A    between atoms: N_11  and  C_13
REMARK                            x       y       z     vdW  Elec       q    Type
REMARK                         _______ _______ _______ _____ _____    ______ ____
ROOT
ATOM      1  N   UNL     1     -10.849   5.400 130.808  0.00  0.00    +0.000 N 
ATOM      2  C   UNL     1     -11.112   6.312 129.754  0.00  0.00    +0.000 A 
ATOM      3  N   UNL     1     -10.250   7.326 129.526  0.00  0.00    +0.000 NA
ATOM      4  C   UNL     1     -10.501   8.170 128.497  0.00  0.00    +0.000 A 
ATOM      5  C   UNL     1     -11.615   8.095 127.706  0.00  0.00    +0.000 A 
ATOM      6  C   UNL     1     -12.462   7.066 128.027  0.00  0.00    +0.000 A 
ATOM      7  N   UNL     1     -12.222   6.157 129.004  0.00  0.00    +0.000 NA
ENDROOT
BRANCH   1   8
ATOM      8  C   UNL     1     -11.055   3.950 130.402  0.00  0.00    +0.000 C 
BRANCH   8  12
ATOM      9  C   UNL     1      -8.615   0.395 131.024  0.00  0.00    +0.000 A 
ATOM     10  C   UNL     1      -8.146   1.268 130.048  0.00  0.00    +0.000 A 
ATOM     11  C   UNL     1      -8.858   2.512 129.810  0.00  0.00    +0.000 A 
ATOM     12  C   UNL     1      -9.945   2.904 130.579  0.00  0.00    +0.000 A 
ATOM     13  C   UNL     1      -9.805   2.366 131.823  0.00  0.00    +0.000 A 
ATOM     14  C   UNL     1      -9.431   1.014 131.872  0.00  0.00    +0.000 A 
BRANCH   9  16
ATOM     15  C   UNL     1      -7.867  -1.313 132.614  0.00  0.00    +0.000 C 
ATOM     16  O   UNL     1      -8.065  -0.842 131.262  0.00  0.00    +0.000 OA
ENDBRANCH   9  16
ENDBRANCH   8  12
ENDBRANCH   1   8
BRANCH   1  17
ATOM     17  C   UNL     1     -10.407   6.134 132.055  0.00  0.00    +0.000 C 
BRANCH  17  18
ATOM     18  C   UNL     1      -8.959   5.967 132.596  0.00  0.00    +0.000 C 
BRANCH  18  19
ATOM     19  N   UNL     1      -7.729   5.508 131.890  0.00  0.00    +0.000 NA
ATOM     20  C   UNL     1      -7.107   6.683 131.322  0.00  0.00    +0.000 C 
ATOM     21  C   UNL     1      -6.748   4.900 132.827  0.00  0.00    +0.000 C 
ENDBRANCH  18  19
ENDBRANCH  17  18
ENDBRANCH   1  17
TORSDOF 6
ENDMDL
MODEL 4
REMARK VINA RESULT:      -5.9      7.291     10.307
REMARK  Name = Thonzylamine
REMARK  9 active torsions:
REMARK  status: ('A' for Active; 'I' for Inactive)
REMARK    1  A    between atoms: C_1  and  O_2
REMARK    2  A    between atoms: O_2  and  C_3
REMARK    3  A    between atoms: C_6  and  C_7
REMARK    4  A    between atoms: C_7  and  N_8
REMARK    5  A    between atoms: N_8  and  C_9
REMARK    6  A    between atoms: C_9  and  C_10
REMARK    7  A    between atoms: C_10  and  N_11
REMARK    8  A    between atoms: N_11  and  C_12
REMARK    9  A    between atoms: N_11  and  C_13
REMARK                            x       y       z     vdW  Elec       q    Type
REMARK                         _______ _______ _______ _____ _____    ______ ____
ROOT
ATOM      1  N   UNL     1      -9.279   4.955 130.876  0.00  0.00    +0.000 N 
ATOM      2  C   UNL     1      -8.422   4.410 129.885  0.00  0.00    +0.000 A 
ATOM      3  N   UNL     1      -8.836   3.343 129.168  0.00  0.00    +0.000 NA
ATOM      4  C   UNL     1      -8.019   2.854 128.206  0.00  0.00    +0.000 A 
ATOM      5  C   UNL     1      -6.763   3.339 127.956  0.00  0.00    +0.000 A 
ATOM      6  C   UNL     1      -6.400   4.393 128.752  0.00  0.00    +0.000 A 
ATOM      7  N   UNL     1      -7.208   4.959 129.683  0.00  0.00    +0.000 NA
ENDROOT
BRANCH   1   8
ATOM      8  C   UNL     1      -9.349   6.473 130.829  0.00  0.00    +0.000 C 
BRANCH   8  12
ATOM      9  C   UNL     1     -12.478   9.058 129.247  0.00  0.00    +0.000 A 
ATOM     10  C   UNL     1     -11.485   8.710 128.337  0.00  0.00    +0.000 A 
ATOM     11  C   UNL     1     -10.430   7.802 128.753  0.00  0.00    +0.000 A 
ATOM     12  C   UNL     1     -10.421   7.199 130.003  0.00  0.00    +0.000 A 
ATOM     13  C   UNL     1     -11.710   7.067 130.424  0.00  0.00    +0.000 A 
ATOM     14  C   UNL     1     -12.532   8.193 130.255  0.00  0.00    +0.000 A 
BRANCH   9  16
ATOM     15  C   UNL     1     -13.603  11.168 129.783  0.00  0.00    +0.000 C 
ATOM     16  O   UNL     1     -13.464   9.975 128.977  0.00  0.00    +0.000 OA
ENDBRANCH   9  16
ENDBRANCH   8  12
ENDBRANCH   1   8
BRANCH   1  17
ATOM     17  C   UNL     1      -9.912   3.856 131.702  0.00  0.00    +0.000 C 
BRANCH  17  18
ATOM     18  C   UNL     1      -9.094   3.134 132.810  0.00  0.00    +0.000 C 
BRANCH  18  19
ATOM     19  N   UNL     1      -8.530   1.754 132.827  0.00  0.00    +0.000 NA
ATOM     20  C   UNL     1      -9.300   0.973 131.885  0.00  0.00    +0.000 C 
ATOM     21  C   UNL     1      -7.116   1.729 132.368  0.00  0.00    +0.000 C 
ENDBRANCH  18  19
ENDBRANCH  17  18
ENDBRANCH   1  17
TORSDOF 6
ENDMDL
MODEL 5
REMARK VINA RESULT:      -5.9      3.014      5.593
REMARK  Name = Thonzylamine
REMARK  9 active torsions:
REMARK  status: ('A' for Active; 'I' for Inactive)
REMARK    1  A    between atoms: C_1  and  O_2
REMARK    2  A    between atoms: O_2  and  C_3
REMARK    3  A    between atoms: C_6  and  C_7
REMARK    4  A    between atoms: C_7  and  N_8
REMARK    5  A    between atoms: N_8  and  C_9
REMARK    6  A    between atoms: C_9  and  C_10
REMARK    7  A    between atoms: C_10  and  N_11
REMARK    8  A    between atoms: N_11  and  C_12
REMARK    9  A    between atoms: N_11  and  C_13
REMARK                            x       y       z     vdW  Elec       q    Type
REMARK                         _______ _______ _______ _____ _____    ______ ____
ROOT
ATOM      1  N   UNL     1      -9.016   0.633 125.266  0.00  0.00    +0.000 N 
ATOM      2  C   UNL     1      -9.040  -0.685 124.744  0.00  0.00    +0.000 A 
ATOM      3  N   UNL     1      -9.432  -1.704 125.540  0.00  0.00    +0.000 NA
ATOM      4  C   UNL     1      -9.479  -2.952 125.018  0.00  0.00    +0.000 A 
ATOM      5  C   UNL     1      -9.089  -3.257 123.741  0.00  0.00    +0.000 A 
ATOM      6  C   UNL     1      -8.664  -2.178 123.011  0.00  0.00    +0.000 A 
ATOM      7  N   UNL     1      -8.662  -0.901 123.469  0.00  0.00    +0.000 NA
ENDROOT
BRANCH   1   8
ATOM      8  C   UNL     1      -9.623   1.656 124.319  0.00  0.00    +0.000 C 
BRANCH   8  12
ATOM      9  C   UNL     1      -6.436   3.621 122.092  0.00  0.00    +0.000 A 
ATOM     10  C   UNL     1      -7.646   3.512 121.415  0.00  0.00    +0.000 A 
ATOM     11  C   UNL     1      -8.788   2.926 122.097  0.00  0.00    +0.000 A 
ATOM     12  C   UNL     1      -8.740   2.546 123.431  0.00  0.00    +0.000 A 
ATOM     13  C   UNL     1      -7.832   3.336 124.069  0.00  0.00    +0.000 A 
ATOM     14  C   UNL     1      -6.609   3.528 123.407  0.00  0.00    +0.000 A 
BRANCH   9  16
ATOM     15  C   UNL     1      -5.319   4.772 120.239  0.00  0.00    +0.000 C 
ATOM     16  O   UNL     1      -5.280   4.078 121.507  0.00  0.00    +0.000 OA
ENDBRANCH   9  16
ENDBRANCH   8  12
ENDBRANCH   1   8
BRANCH   1  17
ATOM     17  C   UNL     1      -8.404   0.653 126.650  0.00  0.00    +0.000 C 
BRANCH  17  18
ATOM     18  C   UNL     1      -6.920   0.238 126.860  0.00  0.00    +0.000 C 
BRANCH  18  19
ATOM     19  N   UNL     1      -6.341  -0.782 127.779  0.00  0.00    +0.000 NA
ATOM     20  C   UNL     1      -7.433  -1.309 128.567  0.00  0.00    +0.000 C 
ATOM     21  C   UNL     1      -5.747  -1.923 127.033  0.00  0.00    +0.000 C 
ENDBRANCH  18  19
ENDBRANCH  17  18
ENDBRANCH   1  17
TORSDOF 6
ENDMDL
MODEL 6
REMARK VINA RESULT:      -5.9      8.403      9.710
REMARK  Name = Thonzylamine
REMARK  9 active torsions:
REMARK  status: ('A' for Active; 'I' for Inactive)
REMARK    1  A    between atoms: C_1  and  O_2
REMARK    2  A    between atoms: O_2  and  C_3
REMARK    3  A    between atoms: C_6  and  C_7
REMARK    4  A    between atoms: C_7  and  N_8
REMARK    5  A    between atoms: N_8  and  C_9
REMARK    6  A    between atoms: C_9  and  C_10
REMARK    7  A    between atoms: C_10  and  N_11
REMARK    8  A    between atoms: N_11  and  C_12
REMARK    9  A    between atoms: N_11  and  C_13
REMARK                            x       y       z     vdW  Elec       q    Type
REMARK                         _______ _______ _______ _____ _____    ______ ____
ROOT
ATOM      1  N   UNL     1      -9.500   5.729 130.344  0.00  0.00    +0.000 N 
ATOM      2  C   UNL     1     -10.290   6.545 129.494  0.00  0.00    +0.000 A 
ATOM      3  N   UNL     1     -11.537   6.143 129.165  0.00  0.00    +0.000 NA
ATOM      4  C   UNL     1     -12.289   6.947 128.377  0.00  0.00    +0.000 A 
ATOM      5  C   UNL     1     -11.838   8.122 127.838  0.00  0.00    +0.000 A 
ATOM      6  C   UNL     1     -10.550   8.439 128.183  0.00  0.00    +0.000 A 
ATOM      7  N   UNL     1      -9.781   7.700 129.021  0.00  0.00    +0.000 NA
ENDROOT
BRANCH   1   8
ATOM      8  C   UNL     1      -8.794   6.520 131.434  0.00  0.00    +0.000 C 
BRANCH   8  12
ATOM      9  C   UNL     1      -4.566   5.514 131.744  0.00  0.00    +0.000 A 
ATOM     10  C   UNL     1      -4.844   6.681 131.039  0.00  0.00    +0.000 A 
ATOM     11  C   UNL     1      -6.221   7.133 130.933  0.00  0.00    +0.000 A 
ATOM     12  C   UNL     1      -7.265   6.489 131.581  0.00  0.00    +0.000 A 
ATOM     13  C   UNL     1      -6.772   5.899 132.706  0.00  0.00    +0.000 A 
ATOM     14  C   UNL     1      -5.569   5.191 132.554  0.00  0.00    +0.000 A 
BRANCH   9  16
ATOM     15  C   UNL     1      -2.139   5.734 131.487  0.00  0.00    +0.000 C 
ATOM     16  O   UNL     1      -3.312   4.959 131.825  0.00  0.00    +0.000 OA
ENDBRANCH   9  16
ENDBRANCH   8  12
ENDBRANCH   1   8
BRANCH   1  17
ATOM     17  C   UNL     1      -9.599   4.275 129.938  0.00  0.00    +0.000 C 
BRANCH  17  18
ATOM     18  C   UNL     1     -10.054   3.200 130.965  0.00  0.00    +0.000 C 
BRANCH  18  19
ATOM     19  N   UNL     1      -9.252   2.454 131.976  0.00  0.00    +0.000 NA
ATOM     20  C   UNL     1      -7.889   2.428 131.495  0.00  0.00    +0.000 C 
ATOM     21  C   UNL     1      -9.241   3.144 133.292  0.00  0.00    +0.000 C 
ENDBRANCH  18  19
ENDBRANCH  17  18
ENDBRANCH   1  17
TORSDOF 6
ENDMDL
MODEL 7
REMARK VINA RESULT:      -5.8      3.053      5.643
REMARK  Name = Thonzylamine
REMARK  9 active torsions:
REMARK  status: ('A' for Active; 'I' for Inactive)
REMARK    1  A    between atoms: C_1  and  O_2
REMARK    2  A    between atoms: O_2  and  C_3
REMARK    3  A    between atoms: C_6  and  C_7
REMARK    4  A    between atoms: C_7  and  N_8
REMARK    5  A    between atoms: N_8  and  C_9
REMARK    6  A    between atoms: C_9  and  C_10
REMARK    7  A    between atoms: C_10  and  N_11
REMARK    8  A    between atoms: N_11  and  C_12
REMARK    9  A    between atoms: N_11  and  C_13
REMARK                            x       y       z     vdW  Elec       q    Type
REMARK                         _______ _______ _______ _____ _____    ______ ____
ROOT
ATOM      1  N   UNL     1      -8.402   0.557 125.471  0.00  0.00    +0.000 N 
ATOM      2  C   UNL     1      -8.704  -0.719 124.927  0.00  0.00    +0.000 A 
ATOM      3  N   UNL     1      -9.006  -1.737 125.761  0.00  0.00    +0.000 NA
ATOM      4  C   UNL     1      -9.321  -2.940 125.226  0.00  0.00    +0.000 A 
ATOM      5  C   UNL     1      -9.291  -3.206 123.884  0.00  0.00    +0.000 A 
ATOM      6  C   UNL     1      -8.934  -2.135 123.107  0.00  0.00    +0.000 A 
ATOM      7  N   UNL     1      -8.675  -0.895 123.592  0.00  0.00    +0.000 NA
ENDROOT
BRANCH   1   8
ATOM      8  C   UNL     1      -9.099   1.692 124.738  0.00  0.00    +0.000 C 
BRANCH   8  12
ATOM      9  C   UNL     1      -6.280   3.559 121.990  0.00  0.00    +0.000 A 
ATOM     10  C   UNL     1      -7.583   3.450 121.514  0.00  0.00    +0.000 A 
ATOM     11  C   UNL     1      -8.609   2.897 122.381  0.00  0.00    +0.000 A 
ATOM     12  C   UNL     1      -8.357   2.548 123.700  0.00  0.00    +0.000 A 
ATOM     13  C   UNL     1      -7.352   3.340 124.168  0.00  0.00    +0.000 A 
ATOM     14  C   UNL     1      -6.246   3.499 123.318  0.00  0.00    +0.000 A 
BRANCH   9  16
ATOM     15  C   UNL     1      -5.437   4.903 120.123  0.00  0.00    +0.000 C 
ATOM     16  O   UNL     1      -5.226   3.985 121.220  0.00  0.00    +0.000 OA
ENDBRANCH   9  16
ENDBRANCH   8  12
ENDBRANCH   1   8
BRANCH   1  17
ATOM     17  C   UNL     1      -7.475   0.428 126.659  0.00  0.00    +0.000 C 
BRANCH  17  18
ATOM     18  C   UNL     1      -7.598   1.406 127.863  0.00  0.00    +0.000 C 
BRANCH  18  19
ATOM     19  N   UNL     1      -8.484   2.592 128.035  0.00  0.00    +0.000 NA
ATOM     20  C   UNL     1      -8.934   2.586 129.409  0.00  0.00    +0.000 C 
ATOM     21  C   UNL     1      -7.750   3.866 127.818  0.00  0.00    +0.000 C 
ENDBRANCH  18  19
ENDBRANCH  17  18
ENDBRANCH   1  17
TORSDOF 6
ENDMDL
MODEL 8
REMARK VINA RESULT:      -5.8      2.903      5.648
REMARK  Name = Thonzylamine
REMARK  9 active torsions:
REMARK  status: ('A' for Active; 'I' for Inactive)
REMARK    1  A    between atoms: C_1  and  O_2
REMARK    2  A    between atoms: O_2  and  C_3
REMARK    3  A    between atoms: C_6  and  C_7
REMARK    4  A    between atoms: C_7  and  N_8
REMARK    5  A    between atoms: N_8  and  C_9
REMARK    6  A    between atoms: C_9  and  C_10
REMARK    7  A    between atoms: C_10  and  N_11
REMARK    8  A    between atoms: N_11  and  C_12
REMARK    9  A    between atoms: N_11  and  C_13
REMARK                            x       y       z     vdW  Elec       q    Type
REMARK                         _______ _______ _______ _____ _____    ______ ____
ROOT
ATOM      1  N   UNL     1      -6.726   1.035 124.876  0.00  0.00    +0.000 N 
ATOM      2  C   UNL     1      -6.457  -0.316 124.538  0.00  0.00    +0.000 A 
ATOM      3  N   UNL     1      -6.114  -1.185 125.513  0.00  0.00    +0.000 NA
ATOM      4  C   UNL     1      -5.889  -2.478 125.178  0.00  0.00    +0.000 A 
ATOM      5  C   UNL     1      -5.927  -2.947 123.893  0.00  0.00    +0.000 A 
ATOM      6  C   UNL     1      -6.239  -1.997 122.956  0.00  0.00    +0.000 A 
ATOM      7  N   UNL     1      -6.537  -0.706 123.250  0.00  0.00    +0.000 NA
ENDROOT
BRANCH   1   8
ATOM      8  C   UNL     1      -7.976   1.576 124.201  0.00  0.00    +0.000 C 
BRANCH   8  12
ATOM      9  C   UNL     1      -7.019   3.850 120.610  0.00  0.00    +0.000 A 
ATOM     10  C   UNL     1      -8.378   3.721 120.881  0.00  0.00    +0.000 A 
ATOM     11  C   UNL     1      -8.796   3.032 122.090  0.00  0.00    +0.000 A 
ATOM     12  C   UNL     1      -7.888   2.568 123.031  0.00  0.00    +0.000 A 
ATOM     13  C   UNL     1      -6.781   3.361 122.986  0.00  0.00    +0.000 A 
ATOM     14  C   UNL     1      -6.289   3.660 121.705  0.00  0.00    +0.000 A 
BRANCH   9  16
ATOM     15  C   UNL     1      -5.464   5.383 119.499  0.00  0.00    +0.000 C 
ATOM     16  O   UNL     1      -6.527   4.404 119.453  0.00  0.00    +0.000 OA
ENDBRANCH   9  16
ENDBRANCH   8  12
ENDBRANCH   1   8
BRANCH   1  17
ATOM     17  C   UNL     1      -5.692   1.563 125.847  0.00  0.00    +0.000 C 
BRANCH  17  18
ATOM     18  C   UNL     1      -5.934   2.899 126.605  0.00  0.00    +0.000 C 
BRANCH  18  19
ATOM     19  N   UNL     1      -4.983   4.007 126.903  0.00  0.00    +0.000 NA
ATOM     20  C   UNL     1      -4.959   4.167 128.340  0.00  0.00    +0.000 C 
ATOM     21  C   UNL     1      -3.599   3.677 126.473  0.00  0.00    +0.000 C 
ENDBRANCH  18  19
ENDBRANCH  17  18
ENDBRANCH   1  17
TORSDOF 6
ENDMDL
MODEL 9
REMARK VINA RESULT:      -5.7      7.280      8.306
REMARK  Name = Thonzylamine
REMARK  9 active torsions:
REMARK  status: ('A' for Active; 'I' for Inactive)
REMARK    1  A    between atoms: C_1  and  O_2
REMARK    2  A    between atoms: O_2  and  C_3
REMARK    3  A    between atoms: C_6  and  C_7
REMARK    4  A    between atoms: C_7  and  N_8
REMARK    5  A    between atoms: N_8  and  C_9
REMARK    6  A    between atoms: C_9  and  C_10
REMARK    7  A    between atoms: C_10  and  N_11
REMARK    8  A    between atoms: N_11  and  C_12
REMARK    9  A    between atoms: N_11  and  C_13
REMARK                            x       y       z     vdW  Elec       q    Type
REMARK                         _______ _______ _______ _____ _____    ______ ____
ROOT
ATOM      1  N   UNL     1     -10.412   5.879 130.115  0.00  0.00    +0.000 N 
ATOM      2  C   UNL     1     -10.963   6.377 128.907  0.00  0.00    +0.000 A 
ATOM      3  N   UNL     1     -10.137   6.856 127.952  0.00  0.00    +0.000 NA
ATOM      4  C   UNL     1     -10.677   7.299 126.792  0.00  0.00    +0.000 A 
ATOM      5  C   UNL     1     -12.024   7.351 126.551  0.00  0.00    +0.000 A 
ATOM      6  C   UNL     1     -12.797   6.888 127.584  0.00  0.00    +0.000 A 
ATOM      7  N   UNL     1     -12.300   6.373 128.736  0.00  0.00    +0.000 NA
ENDROOT
BRANCH   1   8
ATOM      8  C   UNL     1     -11.030   4.560 130.549  0.00  0.00    +0.000 C 
BRANCH   8  12
ATOM      9  C   UNL     1      -7.878   1.646 131.290  0.00  0.00    +0.000 A 
ATOM     10  C   UNL     1      -9.068   1.411 131.970  0.00  0.00    +0.000 A 
ATOM     11  C   UNL     1     -10.200   2.294 131.741  0.00  0.00    +0.000 A 
ATOM     12  C   UNL     1     -10.165   3.316 130.804  0.00  0.00    +0.000 A 
ATOM     13  C   UNL     1      -9.303   2.959 129.812  0.00  0.00    +0.000 A 
ATOM     14  C   UNL     1      -8.075   2.420 130.227  0.00  0.00    +0.000 A 
BRANCH   9  16
ATOM     15  C   UNL     1      -6.189   0.773 132.836  0.00  0.00    +0.000 C 
ATOM     16  O   UNL     1      -6.729   0.924 131.503  0.00  0.00    +0.000 OA
ENDBRANCH   9  16
ENDBRANCH   8  12
ENDBRANCH   1   8
BRANCH   1  17
ATOM     17  C   UNL     1      -9.330   6.802 130.633  0.00  0.00    +0.000 C 
BRANCH  17  18
ATOM     18  C   UNL     1      -7.950   6.232 131.066  0.00  0.00    +0.000 C 
BRANCH  18  19
ATOM     19  N   UNL     1      -7.592   5.417 132.262  0.00  0.00    +0.000 NA
ATOM     20  C   UNL     1      -6.310   5.895 132.729  0.00  0.00    +0.000 C 
ATOM     21  C   UNL     1      -8.563   5.608 133.371  0.00  0.00    +0.000 C 
ENDBRANCH  18  19
ENDBRANCH  17  18
ENDBRANCH   1  17
TORSDOF 6
ENDMDL
