MODEL 1
REMARK VINA RESULT:      -4.3      0.000      0.000
REMARK  Name = Threonine
REMARK  6 active torsions:
REMARK  status: ('A' for Active; 'I' for Inactive)
REMARK    1  A    between atoms: CG2_1  and  CB_2
REMARK    2  A    between atoms: CB_2  and  OG1_3
REMARK    3  A    between atoms: CB_2  and  CA_4
REMARK    4  A    between atoms: CA_4  and  N_5
REMARK    5  A    between atoms: CA_4  and  C_6
REMARK    6  A    between atoms: C_6  and  O_7
REMARK                            x       y       z     vdW  Elec       q    Type
REMARK                         _______ _______ _______ _____ _____    ______ ____
ROOT
ATOM      1  CA  THR A   1     -10.688   8.072 127.744  0.00  0.00    +0.000 C 
ENDROOT
BRANCH   1   2
ATOM      2  N   THR A   1     -11.763   8.872 128.383  0.00  0.00    +0.000 NA
ATOM      3  H1  THR A   1     -11.734   9.842 128.068  0.00  0.00    +0.000 HD
ATOM      4  H2  THR A   1     -11.843   8.739 129.384  0.00  0.00    +0.000 HD
ENDBRANCH   1   2
BRANCH   1   6
ATOM      5  CG2 THR A   1      -9.654   7.339 130.047  0.00  0.00    +0.000 C 
ATOM      6  CB  THR A   1     -10.296   6.934 128.721  0.00  0.00    +0.000 C 
BRANCH   6   7
ATOM      7  OG1 THR A   1      -9.537   5.918 128.049  0.00  0.00    +0.000 OA
ATOM      8  HG1 THR A   1      -9.994   5.065 128.142  0.00  0.00    +0.000 HD
ENDBRANCH   6   7
ENDBRANCH   1   6
BRANCH   1   9
ATOM      9  C   THR A   1     -11.110   7.597 126.341  0.00  0.00    +0.000 C 
ATOM     10  OXT THR A   1     -10.765   8.146 125.298  0.00  0.00    +0.000 OA
BRANCH   9  11
ATOM     11  O   THR A   1     -11.963   6.541 126.323  0.00  0.00    +0.000 OA
ATOM     12  H   THR A   1     -12.866   6.804 126.066  0.00  0.00    +0.000 HD
ENDBRANCH   9  11
ENDBRANCH   1   9
TORSDOF 5
ENDMDL
MODEL 2
REMARK VINA RESULT:      -4.2      1.817      2.448
REMARK  Name = Threonine
REMARK  6 active torsions:
REMARK  status: ('A' for Active; 'I' for Inactive)
REMARK    1  A    between atoms: CG2_1  and  CB_2
REMARK    2  A    between atoms: CB_2  and  OG1_3
REMARK    3  A    between atoms: CB_2  and  CA_4
REMARK    4  A    between atoms: CA_4  and  N_5
REMARK    5  A    between atoms: CA_4  and  C_6
REMARK    6  A    between atoms: C_6  and  O_7
REMARK                            x       y       z     vdW  Elec       q    Type
REMARK                         _______ _______ _______ _____ _____    ______ ____
ROOT
ATOM      1  CA  THR A   1     -11.411   7.805 127.927  0.00  0.00    +0.000 C 
ENDROOT
BRANCH   1   2
ATOM      2  N   THR A   1     -10.156   8.502 128.303  0.00  0.00    +0.000 NA
ATOM      3  H1  THR A   1      -9.956   9.269 127.661  0.00  0.00    +0.000 HD
ATOM      4  H2  THR A   1      -9.378   7.884 128.502  0.00  0.00    +0.000 HD
ENDBRANCH   1   2
BRANCH   1   6
ATOM      5  CG2 THR A   1     -12.719   8.937 129.907  0.00  0.00    +0.000 C 
ATOM      6  CB  THR A   1     -12.602   8.674 128.406  0.00  0.00    +0.000 C 
BRANCH   6   7
ATOM      7  OG1 THR A   1     -13.838   8.206 127.849  0.00  0.00    +0.000 OA
ATOM      8  HG1 THR A   1     -14.347   7.750 128.540  0.00  0.00    +0.000 HD
ENDBRANCH   6   7
ENDBRANCH   1   6
BRANCH   1   9
ATOM      9  C   THR A   1     -11.428   7.464 126.425  0.00  0.00    +0.000 C 
ATOM     10  OXT THR A   1     -10.743   8.037 125.583  0.00  0.00    +0.000 OA
BRANCH   9  11
ATOM     11  O   THR A   1     -12.320   6.507 126.062  0.00  0.00    +0.000 OA
ATOM     12  H   THR A   1     -12.817   6.755 125.260  0.00  0.00    +0.000 HD
ENDBRANCH   9  11
ENDBRANCH   1   9
TORSDOF 5
ENDMDL
MODEL 3
REMARK VINA RESULT:      -4.1      2.257      3.007
REMARK  Name = Threonine
REMARK  6 active torsions:
REMARK  status: ('A' for Active; 'I' for Inactive)
REMARK    1  A    between atoms: CG2_1  and  CB_2
REMARK    2  A    between atoms: CB_2  and  OG1_3
REMARK    3  A    between atoms: CB_2  and  CA_4
REMARK    4  A    between atoms: CA_4  and  N_5
REMARK    5  A    between atoms: CA_4  and  C_6
REMARK    6  A    between atoms: C_6  and  O_7
REMARK                            x       y       z     vdW  Elec       q    Type
REMARK                         _______ _______ _______ _____ _____    ______ ____
ROOT
ATOM      1  CA  THR A   1     -11.763   7.716 127.184  0.00  0.00    +0.000 C 
ENDROOT
BRANCH   1   2
ATOM      2  N   THR A   1     -12.187   6.705 126.183  0.00  0.00    +0.000 NA
ATOM      3  H1  THR A   1     -11.784   5.792 126.392  0.00  0.00    +0.000 HD
ATOM      4  H2  THR A   1     -12.105   7.010 125.221  0.00  0.00    +0.000 HD
ENDBRANCH   1   2
BRANCH   1   6
ATOM      5  CG2 THR A   1     -13.198   9.312 128.702  0.00  0.00    +0.000 C 
ATOM      6  CB  THR A   1     -12.920   7.896 128.200  0.00  0.00    +0.000 C 
BRANCH   6   7
ATOM      7  OG1 THR A   1     -12.805   6.959 129.281  0.00  0.00    +0.000 OA
ATOM      8  HG1 THR A   1     -12.174   6.262 129.034  0.00  0.00    +0.000 HD
ENDBRANCH   6   7
ENDBRANCH   1   6
BRANCH   1   9
ATOM      9  C   THR A   1     -10.408   7.341 127.813  0.00  0.00    +0.000 C 
ATOM     10  OXT THR A   1      -9.924   7.908 128.788  0.00  0.00    +0.000 OA
BRANCH   9  11
ATOM     11  O   THR A   1      -9.727   6.359 127.169  0.00  0.00    +0.000 OA
ATOM     12  H   THR A   1      -9.661   6.528 126.210  0.00  0.00    +0.000 HD
ENDBRANCH   9  11
ENDBRANCH   1   9
TORSDOF 5
ENDMDL
MODEL 4
REMARK VINA RESULT:      -4.1      2.264      2.621
REMARK  Name = Threonine
REMARK  6 active torsions:
REMARK  status: ('A' for Active; 'I' for Inactive)
REMARK    1  A    between atoms: CG2_1  and  CB_2
REMARK    2  A    between atoms: CB_2  and  OG1_3
REMARK    3  A    between atoms: CB_2  and  CA_4
REMARK    4  A    between atoms: CA_4  and  N_5
REMARK    5  A    between atoms: CA_4  and  C_6
REMARK    6  A    between atoms: C_6  and  O_7
REMARK                            x       y       z     vdW  Elec       q    Type
REMARK                         _______ _______ _______ _____ _____    ______ ____
ROOT
ATOM      1  CA  THR A   1     -12.047   8.667 129.160  0.00  0.00    +0.000 C 
ENDROOT
BRANCH   1   2
ATOM      2  N   THR A   1     -13.054   9.529 128.491  0.00  0.00    +0.000 NA
ATOM      3  H1  THR A   1     -12.612  10.151 127.814  0.00  0.00    +0.000 HD
ATOM      4  H2  THR A   1     -13.714   9.966 129.122  0.00  0.00    +0.000 HD
ENDBRANCH   1   2
BRANCH   1   6
ATOM      5  CG2 THR A   1     -12.834   7.164 131.169  0.00  0.00    +0.000 C 
ATOM      6  CB  THR A   1     -12.769   7.388 129.659  0.00  0.00    +0.000 C 
BRANCH   6   7
ATOM      7  OG1 THR A   1     -12.291   6.226 128.967  0.00  0.00    +0.000 OA
ATOM      8  HG1 THR A   1     -12.202   6.432 128.021  0.00  0.00    +0.000 HD
ENDBRANCH   6   7
ENDBRANCH   1   6
BRANCH   1   9
ATOM      9  C   THR A   1     -10.840   8.406 128.240  0.00  0.00    +0.000 C 
ATOM     10  OXT THR A   1     -10.898   8.409 127.014  0.00  0.00    +0.000 OA
BRANCH   9  11
ATOM     11  O   THR A   1      -9.683   8.099 128.881  0.00  0.00    +0.000 OA
ATOM     12  H   THR A   1      -9.426   7.168 128.746  0.00  0.00    +0.000 HD
ENDBRANCH   9  11
ENDBRANCH   1   9
TORSDOF 5
ENDMDL
MODEL 5
REMARK VINA RESULT:      -4.0      3.571      4.614
REMARK  Name = Threonine
REMARK  6 active torsions:
REMARK  status: ('A' for Active; 'I' for Inactive)
REMARK    1  A    between atoms: CG2_1  and  CB_2
REMARK    2  A    between atoms: CB_2  and  OG1_3
REMARK    3  A    between atoms: CB_2  and  CA_4
REMARK    4  A    between atoms: CA_4  and  N_5
REMARK    5  A    between atoms: CA_4  and  C_6
REMARK    6  A    between atoms: C_6  and  O_7
REMARK                            x       y       z     vdW  Elec       q    Type
REMARK                         _______ _______ _______ _____ _____    ______ ____
ROOT
ATOM      1  CA  THR A   1     -11.962   7.115 129.830  0.00  0.00    +0.000 C 
ENDROOT
BRANCH   1   2
ATOM      2  N   THR A   1     -11.846   5.802 129.146  0.00  0.00    +0.000 NA
ATOM      3  H1  THR A   1     -12.665   5.619 128.566  0.00  0.00    +0.000 HD
ATOM      4  H2  THR A   1     -11.557   5.042 129.749  0.00  0.00    +0.000 HD
ENDBRANCH   1   2
BRANCH   1   6
ATOM      5  CG2 THR A   1     -13.734   7.365 127.903  0.00  0.00    +0.000 C 
ATOM      6  CB  THR A   1     -12.844   8.037 128.947  0.00  0.00    +0.000 C 
BRANCH   6   7
ATOM      7  OG1 THR A   1     -12.068   9.102 128.381  0.00  0.00    +0.000 OA
ATOM      8  HG1 THR A   1     -12.144   9.889 128.948  0.00  0.00    +0.000 HD
ENDBRANCH   6   7
ENDBRANCH   1   6
BRANCH   1   9
ATOM      9  C   THR A   1     -12.459   6.946 131.277  0.00  0.00    +0.000 C 
ATOM     10  OXT THR A   1     -13.251   7.707 131.825  0.00  0.00    +0.000 OA
BRANCH   9  11
ATOM     11  O   THR A   1     -11.905   5.910 131.958  0.00  0.00    +0.000 OA
ATOM     12  H   THR A   1     -12.145   5.048 131.570  0.00  0.00    +0.000 HD
ENDBRANCH   9  11
ENDBRANCH   1   9
TORSDOF 5
ENDMDL
MODEL 6
REMARK VINA RESULT:      -3.9      3.016      4.115
REMARK  Name = Threonine
REMARK  6 active torsions:
REMARK  status: ('A' for Active; 'I' for Inactive)
REMARK    1  A    between atoms: CG2_1  and  CB_2
REMARK    2  A    between atoms: CB_2  and  OG1_3
REMARK    3  A    between atoms: CB_2  and  CA_4
REMARK    4  A    between atoms: CA_4  and  N_5
REMARK    5  A    between atoms: CA_4  and  C_6
REMARK    6  A    between atoms: C_6  and  O_7
REMARK                            x       y       z     vdW  Elec       q    Type
REMARK                         _______ _______ _______ _____ _____    ______ ____
ROOT
ATOM      1  CA  THR A   1     -11.367   6.485 129.889  0.00  0.00    +0.000 C 
ENDROOT
BRANCH   1   2
ATOM      2  N   THR A   1     -12.356   6.231 128.811  0.00  0.00    +0.000 NA
ATOM      3  H1  THR A   1     -13.215   5.831 129.190  0.00  0.00    +0.000 HD
ATOM      4  H2  THR A   1     -11.975   5.763 127.998  0.00  0.00    +0.000 HD
ENDBRANCH   1   2
BRANCH   1   6
ATOM      5  CG2 THR A   1     -10.799   8.345 128.120  0.00  0.00    +0.000 C 
ATOM      6  CB  THR A   1     -10.565   7.757 129.510  0.00  0.00    +0.000 C 
BRANCH   6   7
ATOM      7  OG1 THR A   1      -9.168   7.586 129.789  0.00  0.00    +0.000 OA
ATOM      8  HG1 THR A   1      -8.648   8.007 129.083  0.00  0.00    +0.000 HD
ENDBRANCH   6   7
ENDBRANCH   1   6
BRANCH   1   9
ATOM      9  C   THR A   1     -12.051   6.544 131.268  0.00  0.00    +0.000 C 
ATOM     10  OXT THR A   1     -13.080   7.172 131.497  0.00  0.00    +0.000 OA
BRANCH   9  11
ATOM     11  O   THR A   1     -11.395   5.894 132.263  0.00  0.00    +0.000 OA
ATOM     12  H   THR A   1     -10.439   5.822 132.085  0.00  0.00    +0.000 HD
ENDBRANCH   9  11
ENDBRANCH   1   9
TORSDOF 5
ENDMDL
MODEL 7
REMARK VINA RESULT:      -3.8      2.665      3.919
REMARK  Name = Threonine
REMARK  6 active torsions:
REMARK  status: ('A' for Active; 'I' for Inactive)
REMARK    1  A    between atoms: CG2_1  and  CB_2
REMARK    2  A    between atoms: CB_2  and  OG1_3
REMARK    3  A    between atoms: CB_2  and  CA_4
REMARK    4  A    between atoms: CA_4  and  N_5
REMARK    5  A    between atoms: CA_4  and  C_6
REMARK    6  A    between atoms: C_6  and  O_7
REMARK                            x       y       z     vdW  Elec       q    Type
REMARK                         _______ _______ _______ _____ _____    ______ ____
ROOT
ATOM      1  CA  THR A   1     -10.952   7.263 130.000  0.00  0.00    +0.000 C 
ENDROOT
BRANCH   1   2
ATOM      2  N   THR A   1      -9.500   7.169 129.704  0.00  0.00    +0.000 NA
ATOM      3  H1  THR A   1      -9.274   6.282 129.254  0.00  0.00    +0.000 HD
ATOM      4  H2  THR A   1      -8.899   7.435 130.475  0.00  0.00    +0.000 HD
ENDBRANCH   1   2
BRANCH   1   6
ATOM      5  CG2 THR A   1     -12.736   8.826 128.866  0.00  0.00    +0.000 C 
ATOM      6  CB  THR A   1     -11.671   7.741 128.712  0.00  0.00    +0.000 C 
BRANCH   6   7
ATOM      7  OG1 THR A   1     -12.152   6.626 127.947  0.00  0.00    +0.000 OA
ATOM      8  HG1 THR A   1     -13.024   6.845 127.578  0.00  0.00    +0.000 HD
ENDBRANCH   6   7
ENDBRANCH   1   6
BRANCH   1   9
ATOM      9  C   THR A   1     -11.487   5.940 130.581  0.00  0.00    +0.000 C 
ATOM     10  OXT THR A   1     -11.446   4.865 129.990  0.00  0.00    +0.000 OA
BRANCH   9  11
ATOM     11  O   THR A   1     -12.082   6.045 131.796  0.00  0.00    +0.000 OA
ATOM     12  H   THR A   1     -12.864   6.628 131.771  0.00  0.00    +0.000 HD
ENDBRANCH   9  11
ENDBRANCH   1   9
TORSDOF 5
ENDMDL
MODEL 8
REMARK VINA RESULT:      -3.7      3.062      4.217
REMARK  Name = Threonine
REMARK  6 active torsions:
REMARK  status: ('A' for Active; 'I' for Inactive)
REMARK    1  A    between atoms: CG2_1  and  CB_2
REMARK    2  A    between atoms: CB_2  and  OG1_3
REMARK    3  A    between atoms: CB_2  and  CA_4
REMARK    4  A    between atoms: CA_4  and  N_5
REMARK    5  A    between atoms: CA_4  and  C_6
REMARK    6  A    between atoms: C_6  and  O_7
REMARK                            x       y       z     vdW  Elec       q    Type
REMARK                         _______ _______ _______ _____ _____    ______ ____
ROOT
ATOM      1  CA  THR A   1     -11.575   6.372 130.477  0.00  0.00    +0.000 C 
ENDROOT
BRANCH   1   2
ATOM      2  N   THR A   1     -11.939   6.107 131.892  0.00  0.00    +0.000 NA
ATOM      3  H1  THR A   1     -11.240   5.520 132.346  0.00  0.00    +0.000 HD
ATOM      4  H2  THR A   1     -12.903   5.828 132.029  0.00  0.00    +0.000 HD
ENDBRANCH   1   2
BRANCH   1   6
ATOM      5  CG2 THR A   1     -13.281   6.844 128.534  0.00  0.00    +0.000 C 
ATOM      6  CB  THR A   1     -12.671   7.282 129.864  0.00  0.00    +0.000 C 
BRANCH   6   7
ATOM      7  OG1 THR A   1     -12.244   8.651 129.831  0.00  0.00    +0.000 OA
ATOM      8  HG1 THR A   1     -12.205   8.995 130.740  0.00  0.00    +0.000 HD
ENDBRANCH   6   7
ENDBRANCH   1   6
BRANCH   1   9
ATOM      9  C   THR A   1     -10.143   6.928 130.367  0.00  0.00    +0.000 C 
ATOM     10  OXT THR A   1      -9.354   6.983 131.305  0.00  0.00    +0.000 OA
BRANCH   9  11
ATOM     11  O   THR A   1      -9.813   7.430 129.149  0.00  0.00    +0.000 OA
ATOM     12  H   THR A   1     -10.133   8.343 129.031  0.00  0.00    +0.000 HD
ENDBRANCH   9  11
ENDBRANCH   1   9
TORSDOF 5
ENDMDL
MODEL 9
REMARK VINA RESULT:      -3.7      2.156      2.703
REMARK  Name = Threonine
REMARK  6 active torsions:
REMARK  status: ('A' for Active; 'I' for Inactive)
REMARK    1  A    between atoms: CG2_1  and  CB_2
REMARK    2  A    between atoms: CB_2  and  OG1_3
REMARK    3  A    between atoms: CB_2  and  CA_4
REMARK    4  A    between atoms: CA_4  and  N_5
REMARK    5  A    between atoms: CA_4  and  C_6
REMARK    6  A    between atoms: C_6  and  O_7
REMARK                            x       y       z     vdW  Elec       q    Type
REMARK                         _______ _______ _______ _____ _____    ______ ____
ROOT
ATOM      1  CA  THR A   1     -11.858   7.043 128.979  0.00  0.00    +0.000 C 
ENDROOT
BRANCH   1   2
ATOM      2  N   THR A   1     -12.654   6.583 127.813  0.00  0.00    +0.000 NA
ATOM      3  H1  THR A   1     -12.845   7.354 127.174  0.00  0.00    +0.000 HD
ATOM      4  H2  THR A   1     -13.450   6.005 128.054  0.00  0.00    +0.000 HD
ENDBRANCH   1   2
BRANCH   1   6
ATOM      5  CG2 THR A   1     -11.791   6.518 131.554  0.00  0.00    +0.000 C 
ATOM      6  CB  THR A   1     -12.076   6.032 130.134  0.00  0.00    +0.000 C 
BRANCH   6   7
ATOM      7  OG1 THR A   1     -11.423   4.785 129.856  0.00  0.00    +0.000 OA
ATOM      8  HG1 THR A   1     -10.608   4.727 130.383  0.00  0.00    +0.000 HD
ENDBRANCH   6   7
ENDBRANCH   1   6
BRANCH   1   9
ATOM      9  C   THR A   1     -10.384   7.268 128.592  0.00  0.00    +0.000 C 
ATOM     10  OXT THR A   1      -9.735   8.259 128.912  0.00  0.00    +0.000 OA
BRANCH   9  11
ATOM     11  O   THR A   1      -9.845   6.309 127.797  0.00  0.00    +0.000 OA
ATOM     12  H   THR A   1      -9.090   5.863 128.223  0.00  0.00    +0.000 HD
ENDBRANCH   9  11
ENDBRANCH   1   9
TORSDOF 5
ENDMDL
