MODEL 1
REMARK VINA RESULT:      -6.0      0.000      0.000
REMARK  Name = Thymol
REMARK  5 active torsions:
REMARK  status: ('A' for Active; 'I' for Inactive)
REMARK    1  A    between atoms: C_1  and  C_2
REMARK    2  A    between atoms: C_2  and  C_3
REMARK    3  A    between atoms: C_2  and  C_4
REMARK    4  A    between atoms: C_7  and  C_8
REMARK    5  A    between atoms: C_10  and  O_11
REMARK                            x       y       z     vdW  Elec       q    Type
REMARK                         _______ _______ _______ _____ _____    ______ ____
ROOT
ATOM      1  C   UNL     1     -11.973   7.929 129.577  0.00  0.00    +0.000 A 
ATOM      2  C   UNL     1     -12.646   7.368 130.679  0.00  0.00    +0.000 A 
ATOM      3  C   UNL     1     -11.939   6.652 131.658  0.00  0.00    +0.000 A 
ATOM      4  C   UNL     1     -10.556   6.488 131.550  0.00  0.00    +0.000 A 
ATOM      5  C   UNL     1      -9.749   5.738 132.564  0.00  0.00    +0.000 C 
ATOM      6  C   UNL     1      -9.887   7.029 130.450  0.00  0.00    +0.000 A 
ATOM      7  C   UNL     1     -10.595   7.720 129.474  0.00  0.00    +0.000 A 
ENDROOT
BRANCH   1   9
ATOM      8  C   UNL     1     -13.806   7.897 127.835  0.00  0.00    +0.000 C 
ATOM      9  C   UNL     1     -12.737   8.742 128.544  0.00  0.00    +0.000 C 
ATOM     10  C   UNL     1     -13.348   9.993 129.180  0.00  0.00    +0.000 C 
ENDBRANCH   1   9
BRANCH   7  11
ATOM     11  O   UNL     1      -9.912   8.189 128.387  0.00  0.00    +0.000 OA
ATOM     12  H   UNL     1      -9.003   8.396 128.647  0.00  0.00    +0.000 HD
ENDBRANCH   7  11
TORSDOF 2
ENDMDL
MODEL 2
REMARK VINA RESULT:      -5.8      1.802      2.612
REMARK  Name = Thymol
REMARK  5 active torsions:
REMARK  status: ('A' for Active; 'I' for Inactive)
REMARK    1  A    between atoms: C_1  and  C_2
REMARK    2  A    between atoms: C_2  and  C_3
REMARK    3  A    between atoms: C_2  and  C_4
REMARK    4  A    between atoms: C_7  and  C_8
REMARK    5  A    between atoms: C_10  and  O_11
REMARK                            x       y       z     vdW  Elec       q    Type
REMARK                         _______ _______ _______ _____ _____    ______ ____
ROOT
ATOM      1  C   UNL     1     -11.499   7.413 130.028  0.00  0.00    +0.000 A 
ATOM      2  C   UNL     1     -10.333   7.846 129.368  0.00  0.00    +0.000 A 
ATOM      3  C   UNL     1      -9.065   7.516 129.869  0.00  0.00    +0.000 A 
ATOM      4  C   UNL     1      -8.943   6.751 131.032  0.00  0.00    +0.000 A 
ATOM      5  C   UNL     1      -7.617   6.365 131.611  0.00  0.00    +0.000 C 
ATOM      6  C   UNL     1     -10.097   6.334 131.699  0.00  0.00    +0.000 A 
ATOM      7  C   UNL     1     -11.351   6.680 131.209  0.00  0.00    +0.000 A 
ENDROOT
BRANCH   1   9
ATOM      8  C   UNL     1     -12.941   9.176 128.930  0.00  0.00    +0.000 C 
ATOM      9  C   UNL     1     -12.870   7.735 129.455  0.00  0.00    +0.000 C 
ATOM     10  C   UNL     1     -13.257   6.727 128.371  0.00  0.00    +0.000 C 
ENDBRANCH   1   9
BRANCH   7  11
ATOM     11  O   UNL     1     -12.453   6.296 131.919  0.00  0.00    +0.000 OA
ATOM     12  H   UNL     1     -12.385   5.353 132.129  0.00  0.00    +0.000 HD
ENDBRANCH   7  11
TORSDOF 2
ENDMDL
MODEL 3
REMARK VINA RESULT:      -5.8      1.843      4.488
REMARK  Name = Thymol
REMARK  5 active torsions:
REMARK  status: ('A' for Active; 'I' for Inactive)
REMARK    1  A    between atoms: C_1  and  C_2
REMARK    2  A    between atoms: C_2  and  C_3
REMARK    3  A    between atoms: C_2  and  C_4
REMARK    4  A    between atoms: C_7  and  C_8
REMARK    5  A    between atoms: C_10  and  O_11
REMARK                            x       y       z     vdW  Elec       q    Type
REMARK                         _______ _______ _______ _____ _____    ______ ____
ROOT
ATOM      1  C   UNL     1     -10.422   6.907 130.439  0.00  0.00    +0.000 A 
ATOM      2  C   UNL     1     -10.096   7.675 129.305  0.00  0.00    +0.000 A 
ATOM      3  C   UNL     1     -11.063   8.487 128.693  0.00  0.00    +0.000 A 
ATOM      4  C   UNL     1     -12.362   8.544 129.201  0.00  0.00    +0.000 A 
ATOM      5  C   UNL     1     -13.434   9.394 128.592  0.00  0.00    +0.000 C 
ATOM      6  C   UNL     1     -12.694   7.770 130.315  0.00  0.00    +0.000 A 
ATOM      7  C   UNL     1     -11.738   6.952 130.907  0.00  0.00    +0.000 A 
ENDROOT
BRANCH   1   9
ATOM      8  C   UNL     1      -9.259   4.663 130.506  0.00  0.00    +0.000 C 
ATOM      9  C   UNL     1      -9.359   6.064 131.126  0.00  0.00    +0.000 C 
ATOM     10  C   UNL     1      -8.006   6.778 131.112  0.00  0.00    +0.000 C 
ENDBRANCH   1   9
BRANCH   7  11
ATOM     11  O   UNL     1     -12.116   6.172 131.963  0.00  0.00    +0.000 OA
ATOM     12  H   UNL     1     -12.648   6.700 132.575  0.00  0.00    +0.000 HD
ENDBRANCH   7  11
TORSDOF 2
ENDMDL
MODEL 4
REMARK VINA RESULT:      -5.2      1.379      4.125
REMARK  Name = Thymol
REMARK  5 active torsions:
REMARK  status: ('A' for Active; 'I' for Inactive)
REMARK    1  A    between atoms: C_1  and  C_2
REMARK    2  A    between atoms: C_2  and  C_3
REMARK    3  A    between atoms: C_2  and  C_4
REMARK    4  A    between atoms: C_7  and  C_8
REMARK    5  A    between atoms: C_10  and  O_11
REMARK                            x       y       z     vdW  Elec       q    Type
REMARK                         _______ _______ _______ _____ _____    ______ ____
ROOT
ATOM      1  C   UNL     1     -10.987   6.317 130.208  0.00  0.00    +0.000 A 
ATOM      2  C   UNL     1     -11.965   6.887 131.045  0.00  0.00    +0.000 A 
ATOM      3  C   UNL     1     -12.742   7.968 130.600  0.00  0.00    +0.000 A 
ATOM      4  C   UNL     1     -12.554   8.492 129.319  0.00  0.00    +0.000 A 
ATOM      5  C   UNL     1     -13.356   9.640 128.789  0.00  0.00    +0.000 C 
ATOM      6  C   UNL     1     -11.573   7.940 128.492  0.00  0.00    +0.000 A 
ATOM      7  C   UNL     1     -10.794   6.882 128.944  0.00  0.00    +0.000 A 
ENDROOT
BRANCH   1   9
ATOM      8  C   UNL     1      -9.764   5.255 132.150  0.00  0.00    +0.000 C 
ATOM      9  C   UNL     1     -10.180   5.117 130.678  0.00  0.00    +0.000 C 
ATOM     10  C   UNL     1     -10.948   3.816 130.435  0.00  0.00    +0.000 C 
ENDBRANCH   1   9
BRANCH   7  11
ATOM     11  O   UNL     1      -9.810   6.404 128.125  0.00  0.00    +0.000 OA
ATOM     12  H   UNL     1     -10.104   6.465 127.205  0.00  0.00    +0.000 HD
ENDBRANCH   7  11
TORSDOF 2
ENDMDL
MODEL 5
REMARK VINA RESULT:      -5.1     11.236     11.908
REMARK  Name = Thymol
REMARK  5 active torsions:
REMARK  status: ('A' for Active; 'I' for Inactive)
REMARK    1  A    between atoms: C_1  and  C_2
REMARK    2  A    between atoms: C_2  and  C_3
REMARK    3  A    between atoms: C_2  and  C_4
REMARK    4  A    between atoms: C_7  and  C_8
REMARK    5  A    between atoms: C_10  and  O_11
REMARK                            x       y       z     vdW  Elec       q    Type
REMARK                         _______ _______ _______ _____ _____    ______ ____
ROOT
ATOM      1  C   UNL     1      -7.749  -2.045 124.679  0.00  0.00    +0.000 A 
ATOM      2  C   UNL     1      -6.873  -1.883 125.769  0.00  0.00    +0.000 A 
ATOM      3  C   UNL     1      -7.195  -2.416 127.027  0.00  0.00    +0.000 A 
ATOM      4  C   UNL     1      -8.389  -3.116 127.212  0.00  0.00    +0.000 A 
ATOM      5  C   UNL     1      -8.783  -3.711 128.529  0.00  0.00    +0.000 C 
ATOM      6  C   UNL     1      -9.268  -3.265 126.137  0.00  0.00    +0.000 A 
ATOM      7  C   UNL     1      -8.954  -2.718 124.898  0.00  0.00    +0.000 A 
ENDROOT
BRANCH   1   9
ATOM      8  C   UNL     1      -7.251   0.026 123.316  0.00  0.00    +0.000 C 
ATOM      9  C   UNL     1      -7.375  -1.504 123.308  0.00  0.00    +0.000 C 
ATOM     10  C   UNL     1      -6.093  -2.164 122.794  0.00  0.00    +0.000 C 
ENDBRANCH   1   9
BRANCH   7  11
ATOM     11  O   UNL     1      -9.863  -2.840 123.886  0.00  0.00    +0.000 OA
ATOM     12  H   UNL     1     -10.210  -3.744 123.877  0.00  0.00    +0.000 HD
ENDBRANCH   7  11
TORSDOF 2
ENDMDL
MODEL 6
REMARK VINA RESULT:      -4.9     11.260     12.227
REMARK  Name = Thymol
REMARK  5 active torsions:
REMARK  status: ('A' for Active; 'I' for Inactive)
REMARK    1  A    between atoms: C_1  and  C_2
REMARK    2  A    between atoms: C_2  and  C_3
REMARK    3  A    between atoms: C_2  and  C_4
REMARK    4  A    between atoms: C_7  and  C_8
REMARK    5  A    between atoms: C_10  and  O_11
REMARK                            x       y       z     vdW  Elec       q    Type
REMARK                         _______ _______ _______ _____ _____    ______ ____
ROOT
ATOM      1  C   UNL     1      -7.208  -3.094 128.919  0.00  0.00    +0.000 A 
ATOM      2  C   UNL     1      -8.433  -3.766 128.752  0.00  0.00    +0.000 A 
ATOM      3  C   UNL     1      -9.096  -3.743 127.515  0.00  0.00    +0.000 A 
ATOM      4  C   UNL     1      -8.548  -3.052 126.433  0.00  0.00    +0.000 A 
ATOM      5  C   UNL     1      -9.208  -2.996 125.090  0.00  0.00    +0.000 C 
ATOM      6  C   UNL     1      -7.341  -2.369 126.599  0.00  0.00    +0.000 A 
ATOM      7  C   UNL     1      -6.697  -2.379 127.831  0.00  0.00    +0.000 A 
ENDROOT
BRANCH   1   9
ATOM      8  C   UNL     1      -7.394  -2.816 131.425  0.00  0.00    +0.000 C 
ATOM      9  C   UNL     1      -6.471  -3.160 130.247  0.00  0.00    +0.000 C 
ATOM     10  C   UNL     1      -5.812  -4.528 130.436  0.00  0.00    +0.000 C 
ENDBRANCH   1   9
BRANCH   7  11
ATOM     11  O   UNL     1      -5.545  -1.657 127.967  0.00  0.00    +0.000 OA
ATOM     12  H   UNL     1      -5.607  -0.854 127.430  0.00  0.00    +0.000 HD
ENDBRANCH   7  11
TORSDOF 2
ENDMDL
MODEL 7
REMARK VINA RESULT:      -4.8     10.786     11.458
REMARK  Name = Thymol
REMARK  5 active torsions:
REMARK  status: ('A' for Active; 'I' for Inactive)
REMARK    1  A    between atoms: C_1  and  C_2
REMARK    2  A    between atoms: C_2  and  C_3
REMARK    3  A    between atoms: C_2  and  C_4
REMARK    4  A    between atoms: C_7  and  C_8
REMARK    5  A    between atoms: C_10  and  O_11
REMARK                            x       y       z     vdW  Elec       q    Type
REMARK                         _______ _______ _______ _____ _____    ______ ____
ROOT
ATOM      1  C   UNL     1      -8.005  -2.665 126.118  0.00  0.00    +0.000 A 
ATOM      2  C   UNL     1      -8.939  -3.394 126.878  0.00  0.00    +0.000 A 
ATOM      3  C   UNL     1      -8.712  -3.639 128.241  0.00  0.00    +0.000 A 
ATOM      4  C   UNL     1      -7.555  -3.163 128.861  0.00  0.00    +0.000 A 
ATOM      5  C   UNL     1      -7.262  -3.391 130.312  0.00  0.00    +0.000 C 
ATOM      6  C   UNL     1      -6.618  -2.454 128.106  0.00  0.00    +0.000 A 
ATOM      7  C   UNL     1      -6.838  -2.229 126.752  0.00  0.00    +0.000 A 
ENDROOT
BRANCH   1   9
ATOM      8  C   UNL     1      -9.188  -3.421 124.015  0.00  0.00    +0.000 C 
ATOM      9  C   UNL     1      -8.277  -2.362 124.652  0.00  0.00    +0.000 C 
ATOM     10  C   UNL     1      -8.856  -0.955 124.486  0.00  0.00    +0.000 C 
ENDBRANCH   1   9
BRANCH   7  11
ATOM     11  O   UNL     1      -5.873  -1.577 126.037  0.00  0.00    +0.000 OA
ATOM     12  H   UNL     1      -5.400  -0.968 126.623  0.00  0.00    +0.000 HD
ENDBRANCH   7  11
TORSDOF 2
ENDMDL
MODEL 8
REMARK VINA RESULT:      -4.7     10.790     11.574
REMARK  Name = Thymol
REMARK  5 active torsions:
REMARK  status: ('A' for Active; 'I' for Inactive)
REMARK    1  A    between atoms: C_1  and  C_2
REMARK    2  A    between atoms: C_2  and  C_3
REMARK    3  A    between atoms: C_2  and  C_4
REMARK    4  A    between atoms: C_7  and  C_8
REMARK    5  A    between atoms: C_10  and  O_11
REMARK                            x       y       z     vdW  Elec       q    Type
REMARK                         _______ _______ _______ _____ _____    ______ ____
ROOT
ATOM      1  C   UNL     1      -8.145  -1.094 125.019  0.00  0.00    +0.000 A 
ATOM      2  C   UNL     1      -6.788  -0.721 125.051  0.00  0.00    +0.000 A 
ATOM      3  C   UNL     1      -5.788  -1.636 124.684  0.00  0.00    +0.000 A 
ATOM      4  C   UNL     1      -6.129  -2.929 124.282  0.00  0.00    +0.000 A 
ATOM      5  C   UNL     1      -5.107  -3.945 123.876  0.00  0.00    +0.000 C 
ATOM      6  C   UNL     1      -7.473  -3.308 124.265  0.00  0.00    +0.000 A 
ATOM      7  C   UNL     1      -8.458  -2.404 124.647  0.00  0.00    +0.000 A 
ENDROOT
BRANCH   1   9
ATOM      8  C   UNL     1      -8.812   0.797 126.560  0.00  0.00    +0.000 C 
ATOM      9  C   UNL     1      -9.226  -0.085 125.374  0.00  0.00    +0.000 C 
ATOM     10  C   UNL     1      -9.602   0.761 124.155  0.00  0.00    +0.000 C 
ENDBRANCH   1   9
BRANCH   7  11
ATOM     11  O   UNL     1      -9.756  -2.829 124.666  0.00  0.00    +0.000 OA
ATOM     12  H   UNL     1     -10.332  -2.109 124.372  0.00  0.00    +0.000 HD
ENDBRANCH   7  11
TORSDOF 2
ENDMDL
MODEL 9
REMARK VINA RESULT:      -4.7      9.086      9.778
REMARK  Name = Thymol
REMARK  5 active torsions:
REMARK  status: ('A' for Active; 'I' for Inactive)
REMARK    1  A    between atoms: C_1  and  C_2
REMARK    2  A    between atoms: C_2  and  C_3
REMARK    3  A    between atoms: C_2  and  C_4
REMARK    4  A    between atoms: C_7  and  C_8
REMARK    5  A    between atoms: C_10  and  O_11
REMARK                            x       y       z     vdW  Elec       q    Type
REMARK                         _______ _______ _______ _____ _____    ______ ____
ROOT
ATOM      1  C   UNL     1      -2.914   4.310 128.267  0.00  0.00    +0.000 A 
ATOM      2  C   UNL     1      -2.373   5.592 128.051  0.00  0.00    +0.000 A 
ATOM      3  C   UNL     1      -2.223   6.491 129.118  0.00  0.00    +0.000 A 
ATOM      4  C   UNL     1      -2.609   6.126 130.409  0.00  0.00    +0.000 A 
ATOM      5  C   UNL     1      -2.469   7.042 131.585  0.00  0.00    +0.000 C 
ATOM      6  C   UNL     1      -3.162   4.862 130.625  0.00  0.00    +0.000 A 
ATOM      7  C   UNL     1      -3.326   3.981 129.562  0.00  0.00    +0.000 A 
ENDROOT
BRANCH   1   9
ATOM      8  C   UNL     1      -4.003   3.824 126.038  0.00  0.00    +0.000 C 
ATOM      9  C   UNL     1      -3.033   3.323 127.117  0.00  0.00    +0.000 C 
ATOM     10  C   UNL     1      -1.656   3.009 126.526  0.00  0.00    +0.000 C 
ENDBRANCH   1   9
BRANCH   7  11
ATOM     11  O   UNL     1      -3.918   2.774 129.805  0.00  0.00    +0.000 OA
ATOM     12  H   UNL     1      -4.525   2.862 130.554  0.00  0.00    +0.000 HD
ENDBRANCH   7  11
TORSDOF 2
ENDMDL
