MODEL 1
REMARK VINA RESULT:      -6.9      0.000      0.000
REMARK  Name = Tiagabine
REMARK  9 active torsions:
REMARK  status: ('A' for Active; 'I' for Inactive)
REMARK    1  A    between atoms: C_1  and  C_2
REMARK    2  A    between atoms: C_3  and  C_7
REMARK    3  A    between atoms: C_7  and  C_20
REMARK    4  A    between atoms: C_8  and  C_9
REMARK    5  A    between atoms: C_9  and  C_10
REMARK    6  A    between atoms: C_10  and  N_11
REMARK    7  A    between atoms: C_15  and  C_17
REMARK    8  A    between atoms: C_17  and  O_18
REMARK    9  A    between atoms: C_21  and  C_22
REMARK                            x       y       z     vdW  Elec       q    Type
REMARK                         _______ _______ _______ _____ _____    ______ ____
ROOT
ATOM      1  C   UNL     1      -7.375  -1.458 127.479  0.00  0.00    +0.000 C 
ATOM      2  C   UNL     1      -7.581  -0.256 128.074  0.00  0.00    +0.000 C 
ENDROOT
BRANCH   1   5
ATOM      3  C   UNL     1      -5.380  -1.071 124.918  0.00  0.00    +0.000 C 
ATOM      4  C   UNL     1      -6.787  -1.552 124.925  0.00  0.00    +0.000 A 
ATOM      5  C   UNL     1      -7.632  -1.731 126.034  0.00  0.00    +0.000 A 
ATOM      6  S   UNL     1      -9.138  -2.351 125.390  0.00  0.00    +0.000 S 
ATOM      7  C   UNL     1      -8.679  -2.330 123.782  0.00  0.00    +0.000 A 
ATOM      8  C   UNL     1      -7.408  -1.853 123.661  0.00  0.00    +0.000 A 
ENDBRANCH   1   5
BRANCH   1   9
ATOM      9  C   UNL     1      -6.761  -2.432 128.364  0.00  0.00    +0.000 A 
ATOM     10  C   UNL     1      -7.386  -3.467 129.064  0.00  0.00    +0.000 A 
ATOM     11  C   UNL     1      -8.850  -3.773 129.003  0.00  0.00    +0.000 C 
ATOM     12  C   UNL     1      -6.503  -4.073 130.018  0.00  0.00    +0.000 A 
ATOM     13  C   UNL     1      -5.227  -3.564 129.964  0.00  0.00    +0.000 A 
ATOM     14  S   UNL     1      -5.084  -2.333 128.789  0.00  0.00    +0.000 S 
ENDBRANCH   1   9
BRANCH   2  15
ATOM     15  C   UNL     1      -8.087   0.946 127.379  0.00  0.00    +0.000 C 
BRANCH  15  16
ATOM     16  C   UNL     1      -7.120   1.885 126.700  0.00  0.00    +0.000 C 
BRANCH  16  17
ATOM     17  N   UNL     1      -7.662   2.401 125.418  0.00  0.00    +0.000 NA
ATOM     18  C   UNL     1      -6.692   2.416 124.303  0.00  0.00    +0.000 C 
ATOM     19  C   UNL     1      -7.293   2.981 123.029  0.00  0.00    +0.000 C 
ATOM     20  C   UNL     1      -8.524   2.187 122.627  0.00  0.00    +0.000 C 
ATOM     21  C   UNL     1      -9.517   2.064 123.793  0.00  0.00    +0.000 C 
ATOM     22  C   UNL     1      -8.815   1.582 125.055  0.00  0.00    +0.000 C 
BRANCH  21  23
ATOM     23  C   UNL     1     -10.667   1.169 123.378  0.00  0.00    +0.000 C 
ATOM     24  O   UNL     1     -10.549   0.337 122.476  0.00  0.00    +0.000 OA
BRANCH  23  25
ATOM     25  O   UNL     1     -11.838   1.289 124.032  0.00  0.00    +0.000 OA
ATOM     26  H   UNL     1     -11.981   0.789 124.855  0.00  0.00    +0.000 HD
ENDBRANCH  23  25
ENDBRANCH  21  23
ENDBRANCH  16  17
ENDBRANCH  15  16
ENDBRANCH   2  15
TORSDOF 7
ENDMDL
MODEL 2
REMARK VINA RESULT:      -6.8      2.223      2.872
REMARK  Name = Tiagabine
REMARK  9 active torsions:
REMARK  status: ('A' for Active; 'I' for Inactive)
REMARK    1  A    between atoms: C_1  and  C_2
REMARK    2  A    between atoms: C_3  and  C_7
REMARK    3  A    between atoms: C_7  and  C_20
REMARK    4  A    between atoms: C_8  and  C_9
REMARK    5  A    between atoms: C_9  and  C_10
REMARK    6  A    between atoms: C_10  and  N_11
REMARK    7  A    between atoms: C_15  and  C_17
REMARK    8  A    between atoms: C_17  and  O_18
REMARK    9  A    between atoms: C_21  and  C_22
REMARK                            x       y       z     vdW  Elec       q    Type
REMARK                         _______ _______ _______ _____ _____    ______ ____
ROOT
ATOM      1  C   UNL     1      -7.241  -1.471 127.254  0.00  0.00    +0.000 C 
ATOM      2  C   UNL     1      -7.725  -0.299 127.737  0.00  0.00    +0.000 C 
ENDROOT
BRANCH   1   5
ATOM      3  C   UNL     1      -9.509  -2.949 125.423  0.00  0.00    +0.000 C 
ATOM      4  C   UNL     1      -8.162  -2.476 125.014  0.00  0.00    +0.000 A 
ATOM      5  C   UNL     1      -7.198  -1.825 125.805  0.00  0.00    +0.000 A 
ATOM      6  S   UNL     1      -5.848  -1.497 124.739  0.00  0.00    +0.000 S 
ATOM      7  C   UNL     1      -6.509  -2.206 123.375  0.00  0.00    +0.000 A 
ATOM      8  C   UNL     1      -7.738  -2.720 123.659  0.00  0.00    +0.000 A 
ENDBRANCH   1   5
BRANCH   1   9
ATOM      9  C   UNL     1      -6.652  -2.308 128.285  0.00  0.00    +0.000 A 
ATOM     10  C   UNL     1      -7.283  -3.281 129.062  0.00  0.00    +0.000 A 
ATOM     11  C   UNL     1      -8.728  -3.656 128.948  0.00  0.00    +0.000 C 
ATOM     12  C   UNL     1      -6.443  -3.734 130.133  0.00  0.00    +0.000 A 
ATOM     13  C   UNL     1      -5.186  -3.179 130.097  0.00  0.00    +0.000 A 
ATOM     14  S   UNL     1      -5.010  -2.087 128.796  0.00  0.00    +0.000 S 
ENDBRANCH   1   9
BRANCH   2  15
ATOM     15  C   UNL     1      -8.278   0.787 126.899  0.00  0.00    +0.000 C 
BRANCH  15  16
ATOM     16  C   UNL     1      -7.345   1.747 126.201  0.00  0.00    +0.000 C 
BRANCH  16  17
ATOM     17  N   UNL     1      -7.600   1.798 124.740  0.00  0.00    +0.000 NA
ATOM     18  C   UNL     1      -8.984   2.162 124.369  0.00  0.00    +0.000 C 
ATOM     19  C   UNL     1      -9.191   2.169 122.866  0.00  0.00    +0.000 C 
ATOM     20  C   UNL     1      -8.215   3.125 122.202  0.00  0.00    +0.000 C 
ATOM     21  C   UNL     1      -6.770   2.842 122.639  0.00  0.00    +0.000 C 
ATOM     22  C   UNL     1      -6.668   2.758 124.155  0.00  0.00    +0.000 C 
BRANCH  21  23
ATOM     23  C   UNL     1      -5.854   3.892 122.042  0.00  0.00    +0.000 C 
ATOM     24  O   UNL     1      -5.285   4.731 122.744  0.00  0.00    +0.000 OA
BRANCH  23  25
ATOM     25  O   UNL     1      -5.657   3.886 120.711  0.00  0.00    +0.000 OA
ATOM     26  H   UNL     1      -6.232   3.342 120.144  0.00  0.00    +0.000 HD
ENDBRANCH  23  25
ENDBRANCH  21  23
ENDBRANCH  16  17
ENDBRANCH  15  16
ENDBRANCH   2  15
TORSDOF 7
ENDMDL
MODEL 3
REMARK VINA RESULT:      -6.6      2.835      3.591
REMARK  Name = Tiagabine
REMARK  9 active torsions:
REMARK  status: ('A' for Active; 'I' for Inactive)
REMARK    1  A    between atoms: C_1  and  C_2
REMARK    2  A    between atoms: C_3  and  C_7
REMARK    3  A    between atoms: C_7  and  C_20
REMARK    4  A    between atoms: C_8  and  C_9
REMARK    5  A    between atoms: C_9  and  C_10
REMARK    6  A    between atoms: C_10  and  N_11
REMARK    7  A    between atoms: C_15  and  C_17
REMARK    8  A    between atoms: C_17  and  O_18
REMARK    9  A    between atoms: C_21  and  C_22
REMARK                            x       y       z     vdW  Elec       q    Type
REMARK                         _______ _______ _______ _____ _____    ______ ____
ROOT
ATOM      1  C   UNL     1      -7.882  -1.386 126.616  0.00  0.00    +0.000 C 
ATOM      2  C   UNL     1      -8.821  -0.424 126.430  0.00  0.00    +0.000 C 
ENDROOT
BRANCH   1   5
ATOM      3  C   UNL     1      -8.570  -3.752 124.468  0.00  0.00    +0.000 C 
ATOM      4  C   UNL     1      -7.312  -2.974 124.609  0.00  0.00    +0.000 A 
ATOM      5  C   UNL     1      -7.031  -1.946 125.526  0.00  0.00    +0.000 A 
ATOM      6  S   UNL     1      -5.402  -1.413 125.160  0.00  0.00    +0.000 S 
ATOM      7  C   UNL     1      -5.123  -2.500 123.920  0.00  0.00    +0.000 A 
ATOM      8  C   UNL     1      -6.209  -3.302 123.742  0.00  0.00    +0.000 A 
ENDBRANCH   1   5
BRANCH   1   9
ATOM      9  C   UNL     1      -7.700  -1.737 128.014  0.00  0.00    +0.000 A 
ATOM     10  C   UNL     1      -8.145  -2.885 128.673  0.00  0.00    +0.000 A 
ATOM     11  C   UNL     1      -8.900  -4.002 128.022  0.00  0.00    +0.000 C 
ATOM     12  C   UNL     1      -7.987  -2.777 130.095  0.00  0.00    +0.000 A 
ATOM     13  C   UNL     1      -7.354  -1.617 130.475  0.00  0.00    +0.000 A 
ATOM     14  S   UNL     1      -6.971  -0.633 129.133  0.00  0.00    +0.000 S 
ENDBRANCH   1   9
BRANCH   2  15
ATOM     15  C   UNL     1      -9.133   0.201 125.127  0.00  0.00    +0.000 C 
BRANCH  15  16
ATOM     16  C   UNL     1      -9.071   1.702 124.980  0.00  0.00    +0.000 C 
BRANCH  16  17
ATOM     17  N   UNL     1      -7.808   2.141 124.337  0.00  0.00    +0.000 NA
ATOM     18  C   UNL     1      -7.989   2.920 123.094  0.00  0.00    +0.000 C 
ATOM     19  C   UNL     1      -6.664   3.314 122.467  0.00  0.00    +0.000 C 
ATOM     20  C   UNL     1      -5.828   4.111 123.454  0.00  0.00    +0.000 C 
ATOM     21  C   UNL     1      -5.698   3.378 124.798  0.00  0.00    +0.000 C 
ATOM     22  C   UNL     1      -7.062   2.934 125.309  0.00  0.00    +0.000 C 
BRANCH  21  23
ATOM     23  C   UNL     1      -4.958   4.263 125.780  0.00  0.00    +0.000 C 
ATOM     24  O   UNL     1      -5.486   5.256 126.285  0.00  0.00    +0.000 OA
BRANCH  23  25
ATOM     25  O   UNL     1      -3.694   3.934 126.109  0.00  0.00    +0.000 OA
ATOM     26  H   UNL     1      -3.223   3.261 125.588  0.00  0.00    +0.000 HD
ENDBRANCH  23  25
ENDBRANCH  21  23
ENDBRANCH  16  17
ENDBRANCH  15  16
ENDBRANCH   2  15
TORSDOF 7
ENDMDL
MODEL 4
REMARK VINA RESULT:      -6.5      3.532      5.712
REMARK  Name = Tiagabine
REMARK  9 active torsions:
REMARK  status: ('A' for Active; 'I' for Inactive)
REMARK    1  A    between atoms: C_1  and  C_2
REMARK    2  A    between atoms: C_3  and  C_7
REMARK    3  A    between atoms: C_7  and  C_20
REMARK    4  A    between atoms: C_8  and  C_9
REMARK    5  A    between atoms: C_9  and  C_10
REMARK    6  A    between atoms: C_10  and  N_11
REMARK    7  A    between atoms: C_15  and  C_17
REMARK    8  A    between atoms: C_17  and  O_18
REMARK    9  A    between atoms: C_21  and  C_22
REMARK                            x       y       z     vdW  Elec       q    Type
REMARK                         _______ _______ _______ _____ _____    ______ ____
ROOT
ATOM      1  C   UNL     1      -7.220  -1.661 127.048  0.00  0.00    +0.000 C 
ATOM      2  C   UNL     1      -7.520  -0.341 127.140  0.00  0.00    +0.000 C 
ENDROOT
BRANCH   1   5
ATOM      3  C   UNL     1      -8.704  -3.586 129.234  0.00  0.00    +0.000 C 
ATOM      4  C   UNL     1      -7.255  -3.279 129.112  0.00  0.00    +0.000 A 
ATOM      5  C   UNL     1      -6.623  -2.462 128.157  0.00  0.00    +0.000 A 
ATOM      6  S   UNL     1      -4.912  -2.535 128.524  0.00  0.00    +0.000 S 
ATOM      7  C   UNL     1      -5.048  -3.536 129.857  0.00  0.00    +0.000 A 
ATOM      8  C   UNL     1      -6.356  -3.840 130.087  0.00  0.00    +0.000 A 
ENDBRANCH   1   5
BRANCH   1   9
ATOM      9  C   UNL     1      -7.651  -2.254 125.795  0.00  0.00    +0.000 A 
ATOM     10  C   UNL     1      -6.910  -2.407 124.621  0.00  0.00    +0.000 A 
ATOM     11  C   UNL     1      -5.484  -1.985 124.453  0.00  0.00    +0.000 C 
ATOM     12  C   UNL     1      -7.735  -2.818 123.521  0.00  0.00    +0.000 A 
ATOM     13  C   UNL     1      -9.038  -3.056 123.890  0.00  0.00    +0.000 A 
ATOM     14  S   UNL     1      -9.291  -2.758 125.553  0.00  0.00    +0.000 S 
ENDBRANCH   1   9
BRANCH   2  15
ATOM     15  C   UNL     1      -7.297   0.487 128.344  0.00  0.00    +0.000 C 
BRANCH  15  16
ATOM     16  C   UNL     1      -7.024   1.964 128.201  0.00  0.00    +0.000 C 
BRANCH  16  17
ATOM     17  N   UNL     1      -6.100   2.248 127.075  0.00  0.00    +0.000 NA
ATOM     18  C   UNL     1      -6.539   3.338 126.179  0.00  0.00    +0.000 C 
ATOM     19  C   UNL     1      -5.572   3.560 125.031  0.00  0.00    +0.000 C 
ATOM     20  C   UNL     1      -4.181   3.863 125.562  0.00  0.00    +0.000 C 
ATOM     21  C   UNL     1      -3.726   2.801 126.575  0.00  0.00    +0.000 C 
ATOM     22  C   UNL     1      -4.792   2.571 127.637  0.00  0.00    +0.000 C 
BRANCH  21  23
ATOM     23  C   UNL     1      -2.389   3.210 127.159  0.00  0.00    +0.000 C 
ATOM     24  O   UNL     1      -2.286   4.149 127.951  0.00  0.00    +0.000 OA
BRANCH  23  25
ATOM     25  O   UNL     1      -1.296   2.510 126.803  0.00  0.00    +0.000 OA
ATOM     26  H   UNL     1      -1.319   1.960 126.000  0.00  0.00    +0.000 HD
ENDBRANCH  23  25
ENDBRANCH  21  23
ENDBRANCH  16  17
ENDBRANCH  15  16
ENDBRANCH   2  15
TORSDOF 7
ENDMDL
MODEL 5
REMARK VINA RESULT:      -6.4      1.903      2.478
REMARK  Name = Tiagabine
REMARK  9 active torsions:
REMARK  status: ('A' for Active; 'I' for Inactive)
REMARK    1  A    between atoms: C_1  and  C_2
REMARK    2  A    between atoms: C_3  and  C_7
REMARK    3  A    between atoms: C_7  and  C_20
REMARK    4  A    between atoms: C_8  and  C_9
REMARK    5  A    between atoms: C_9  and  C_10
REMARK    6  A    between atoms: C_10  and  N_11
REMARK    7  A    between atoms: C_15  and  C_17
REMARK    8  A    between atoms: C_17  and  O_18
REMARK    9  A    between atoms: C_21  and  C_22
REMARK                            x       y       z     vdW  Elec       q    Type
REMARK                         _______ _______ _______ _____ _____    ______ ____
ROOT
ATOM      1  C   UNL     1      -7.024  -1.589 127.309  0.00  0.00    +0.000 C 
ATOM      2  C   UNL     1      -7.399  -0.383 127.806  0.00  0.00    +0.000 C 
ENDROOT
BRANCH   1   5
ATOM      3  C   UNL     1      -9.400  -2.938 125.515  0.00  0.00    +0.000 C 
ATOM      4  C   UNL     1      -8.039  -2.529 125.081  0.00  0.00    +0.000 A 
ATOM      5  C   UNL     1      -7.029  -1.934 125.856  0.00  0.00    +0.000 A 
ATOM      6  S   UNL     1      -5.685  -1.665 124.765  0.00  0.00    +0.000 S 
ATOM      7  C   UNL     1      -6.408  -2.329 123.410  0.00  0.00    +0.000 A 
ATOM      8  C   UNL     1      -7.656  -2.784 123.716  0.00  0.00    +0.000 A 
ENDBRANCH   1   5
BRANCH   1   9
ATOM      9  C   UNL     1      -6.498  -2.483 128.326  0.00  0.00    +0.000 A 
ATOM     10  C   UNL     1      -7.207  -3.385 129.122  0.00  0.00    +0.000 A 
ATOM     11  C   UNL     1      -8.685  -3.608 129.048  0.00  0.00    +0.000 C 
ATOM     12  C   UNL     1      -6.391  -3.922 130.172  0.00  0.00    +0.000 A 
ATOM     13  C   UNL     1      -5.084  -3.502 130.102  0.00  0.00    +0.000 A 
ATOM     14  S   UNL     1      -4.830  -2.434 128.793  0.00  0.00    +0.000 S 
ENDBRANCH   1   9
BRANCH   2  15
ATOM     15  C   UNL     1      -7.865   0.753 126.983  0.00  0.00    +0.000 C 
BRANCH  15  16
ATOM     16  C   UNL     1      -7.860   2.149 127.558  0.00  0.00    +0.000 C 
BRANCH  16  17
ATOM     17  N   UNL     1      -7.211   3.120 126.642  0.00  0.00    +0.000 NA
ATOM     18  C   UNL     1      -5.743   3.211 126.782  0.00  0.00    +0.000 C 
ATOM     19  C   UNL     1      -5.141   4.240 125.844  0.00  0.00    +0.000 C 
ATOM     20  C   UNL     1      -5.498   3.915 124.403  0.00  0.00    +0.000 C 
ATOM     21  C   UNL     1      -7.011   3.715 124.233  0.00  0.00    +0.000 C 
ATOM     22  C   UNL     1      -7.550   2.742 125.273  0.00  0.00    +0.000 C 
BRANCH  21  23
ATOM     23  C   UNL     1      -7.301   3.280 122.811  0.00  0.00    +0.000 C 
ATOM     24  O   UNL     1      -6.501   2.600 122.164  0.00  0.00    +0.000 OA
BRANCH  23  25
ATOM     25  O   UNL     1      -8.473   3.644 122.258  0.00  0.00    +0.000 OA
ATOM     26  H   UNL     1      -9.045   2.966 121.857  0.00  0.00    +0.000 HD
ENDBRANCH  23  25
ENDBRANCH  21  23
ENDBRANCH  16  17
ENDBRANCH  15  16
ENDBRANCH   2  15
TORSDOF 7
ENDMDL
MODEL 6
REMARK VINA RESULT:      -6.4      6.830      9.292
REMARK  Name = Tiagabine
REMARK  9 active torsions:
REMARK  status: ('A' for Active; 'I' for Inactive)
REMARK    1  A    between atoms: C_1  and  C_2
REMARK    2  A    between atoms: C_3  and  C_7
REMARK    3  A    between atoms: C_7  and  C_20
REMARK    4  A    between atoms: C_8  and  C_9
REMARK    5  A    between atoms: C_9  and  C_10
REMARK    6  A    between atoms: C_10  and  N_11
REMARK    7  A    between atoms: C_15  and  C_17
REMARK    8  A    between atoms: C_17  and  O_18
REMARK    9  A    between atoms: C_21  and  C_22
REMARK                            x       y       z     vdW  Elec       q    Type
REMARK                         _______ _______ _______ _____ _____    ______ ____
ROOT
ATOM      1  C   UNL     1      -9.173   6.252 130.321  0.00  0.00    +0.000 C 
ATOM      2  C   UNL     1      -8.282   7.077 130.926  0.00  0.00    +0.000 C 
ENDROOT
BRANCH   1   5
ATOM      3  C   UNL     1      -9.599   3.285 131.626  0.00  0.00    +0.000 C 
ATOM      4  C   UNL     1      -8.989   3.636 130.317  0.00  0.00    +0.000 A 
ATOM      5  C   UNL     1      -8.825   4.915 129.756  0.00  0.00    +0.000 A 
ATOM      6  S   UNL     1      -8.080   4.658 128.192  0.00  0.00    +0.000 S 
ATOM      7  C   UNL     1      -7.967   2.993 128.308  0.00  0.00    +0.000 A 
ATOM      8  C   UNL     1      -8.460   2.570 129.506  0.00  0.00    +0.000 A 
ENDBRANCH   1   5
BRANCH   1   9
ATOM      9  C   UNL     1     -10.537   6.747 130.383  0.00  0.00    +0.000 A 
ATOM     10  C   UNL     1     -11.168   7.631 129.505  0.00  0.00    +0.000 A 
ATOM     11  C   UNL     1     -10.526   8.229 128.292  0.00  0.00    +0.000 C 
ATOM     12  C   UNL     1     -12.434   8.074 130.014  0.00  0.00    +0.000 A 
ATOM     13  C   UNL     1     -12.778   7.461 131.195  0.00  0.00    +0.000 A 
ATOM     14  S   UNL     1     -11.572   6.373 131.722  0.00  0.00    +0.000 S 
ENDBRANCH   1   9
BRANCH   2  15
ATOM     15  C   UNL     1      -6.848   6.772 131.109  0.00  0.00    +0.000 C 
BRANCH  15  16
ATOM     16  C   UNL     1      -6.429   5.655 132.034  0.00  0.00    +0.000 C 
BRANCH  16  17
ATOM     17  N   UNL     1      -5.258   4.912 131.506  0.00  0.00    +0.000 NA
ATOM     18  C   UNL     1      -5.462   3.454 131.377  0.00  0.00    +0.000 C 
ATOM     19  C   UNL     1      -4.222   2.746 130.863  0.00  0.00    +0.000 C 
ATOM     20  C   UNL     1      -3.800   3.324 129.524  0.00  0.00    +0.000 C 
ATOM     21  C   UNL     1      -3.672   4.853 129.589  0.00  0.00    +0.000 C 
ATOM     22  C   UNL     1      -4.918   5.477 130.204  0.00  0.00    +0.000 C 
BRANCH  21  23
ATOM     23  C   UNL     1      -3.365   5.388 128.205  0.00  0.00    +0.000 C 
ATOM     24  O   UNL     1      -4.122   6.173 127.630  0.00  0.00    +0.000 OA
BRANCH  23  25
ATOM     25  O   UNL     1      -2.224   4.996 127.607  0.00  0.00    +0.000 OA
ATOM     26  H   UNL     1      -2.172   4.984 126.635  0.00  0.00    +0.000 HD
ENDBRANCH  23  25
ENDBRANCH  21  23
ENDBRANCH  16  17
ENDBRANCH  15  16
ENDBRANCH   2  15
TORSDOF 7
ENDMDL
MODEL 7
REMARK VINA RESULT:      -6.3      6.543      9.025
REMARK  Name = Tiagabine
REMARK  9 active torsions:
REMARK  status: ('A' for Active; 'I' for Inactive)
REMARK    1  A    between atoms: C_1  and  C_2
REMARK    2  A    between atoms: C_3  and  C_7
REMARK    3  A    between atoms: C_7  and  C_20
REMARK    4  A    between atoms: C_8  and  C_9
REMARK    5  A    between atoms: C_9  and  C_10
REMARK    6  A    between atoms: C_10  and  N_11
REMARK    7  A    between atoms: C_15  and  C_17
REMARK    8  A    between atoms: C_17  and  O_18
REMARK    9  A    between atoms: C_21  and  C_22
REMARK                            x       y       z     vdW  Elec       q    Type
REMARK                         _______ _______ _______ _____ _____    ______ ____
ROOT
ATOM      1  C   UNL     1      -9.215   6.147 130.177  0.00  0.00    +0.000 C 
ATOM      2  C   UNL     1      -8.357   7.009 130.779  0.00  0.00    +0.000 C 
ENDROOT
BRANCH   1   5
ATOM      3  C   UNL     1      -7.742   4.272 127.940  0.00  0.00    +0.000 C 
ATOM      4  C   UNL     1      -8.419   3.849 129.194  0.00  0.00    +0.000 A 
ATOM      5  C   UNL     1      -9.036   4.665 130.159  0.00  0.00    +0.000 A 
ATOM      6  S   UNL     1      -9.611   3.577 131.405  0.00  0.00    +0.000 S 
ATOM      7  C   UNL     1      -9.102   2.163 130.671  0.00  0.00    +0.000 A 
ATOM      8  C   UNL     1      -8.505   2.440 129.478  0.00  0.00    +0.000 A 
ENDBRANCH   1   5
BRANCH   1   9
ATOM      9  C   UNL     1     -10.399   6.801 129.648  0.00  0.00    +0.000 A 
ATOM     10  C   UNL     1     -11.608   7.042 130.304  0.00  0.00    +0.000 A 
ATOM     11  C   UNL     1     -11.895   6.670 131.726  0.00  0.00    +0.000 C 
ATOM     12  C   UNL     1     -12.624   7.494 129.397  0.00  0.00    +0.000 A 
ATOM     13  C   UNL     1     -12.155   7.673 128.117  0.00  0.00    +0.000 A 
ATOM     14  S   UNL     1     -10.501   7.272 127.984  0.00  0.00    +0.000 S 
ENDBRANCH   1   9
BRANCH   2  15
ATOM     15  C   UNL     1      -7.130   6.605 131.497  0.00  0.00    +0.000 C 
BRANCH  15  16
ATOM     16  C   UNL     1      -5.776   6.935 130.918  0.00  0.00    +0.000 C 
BRANCH  16  17
ATOM     17  N   UNL     1      -4.918   5.730 130.798  0.00  0.00    +0.000 NA
ATOM     18  C   UNL     1      -5.535   4.483 131.299  0.00  0.00    +0.000 C 
ATOM     19  C   UNL     1      -4.601   3.294 131.179  0.00  0.00    +0.000 C 
ATOM     20  C   UNL     1      -4.166   3.106 129.736  0.00  0.00    +0.000 C 
ATOM     21  C   UNL     1      -3.608   4.409 129.145  0.00  0.00    +0.000 C 
ATOM     22  C   UNL     1      -4.562   5.570 129.392  0.00  0.00    +0.000 C 
BRANCH  21  23
ATOM     23  C   UNL     1      -3.299   4.200 127.676  0.00  0.00    +0.000 C 
ATOM     24  O   UNL     1      -4.174   3.885 126.867  0.00  0.00    +0.000 OA
BRANCH  23  25
ATOM     25  O   UNL     1      -2.031   4.379 127.259  0.00  0.00    +0.000 OA
ATOM     26  H   UNL     1      -1.303   3.948 127.740  0.00  0.00    +0.000 HD
ENDBRANCH  23  25
ENDBRANCH  21  23
ENDBRANCH  16  17
ENDBRANCH  15  16
ENDBRANCH   2  15
TORSDOF 7
ENDMDL
MODEL 8
REMARK VINA RESULT:      -6.3      3.397      4.138
REMARK  Name = Tiagabine
REMARK  9 active torsions:
REMARK  status: ('A' for Active; 'I' for Inactive)
REMARK    1  A    between atoms: C_1  and  C_2
REMARK    2  A    between atoms: C_3  and  C_7
REMARK    3  A    between atoms: C_7  and  C_20
REMARK    4  A    between atoms: C_8  and  C_9
REMARK    5  A    between atoms: C_9  and  C_10
REMARK    6  A    between atoms: C_10  and  N_11
REMARK    7  A    between atoms: C_15  and  C_17
REMARK    8  A    between atoms: C_17  and  O_18
REMARK    9  A    between atoms: C_21  and  C_22
REMARK                            x       y       z     vdW  Elec       q    Type
REMARK                         _______ _______ _______ _____ _____    ______ ____
ROOT
ATOM      1  C   UNL     1      -7.260  -1.451 127.349  0.00  0.00    +0.000 C 
ATOM      2  C   UNL     1      -7.770  -0.324 127.907  0.00  0.00    +0.000 C 
ENDROOT
BRANCH   1   5
ATOM      3  C   UNL     1      -9.373  -3.022 125.411  0.00  0.00    +0.000 C 
ATOM      4  C   UNL     1      -8.082  -2.386 125.040  0.00  0.00    +0.000 A 
ATOM      5  C   UNL     1      -7.187  -1.698 125.879  0.00  0.00    +0.000 A 
ATOM      6  S   UNL     1      -5.881  -1.160 124.843  0.00  0.00    +0.000 S 
ATOM      7  C   UNL     1      -6.470  -1.835 123.431  0.00  0.00    +0.000 A 
ATOM      8  C   UNL     1      -7.640  -2.491 123.674  0.00  0.00    +0.000 A 
ENDBRANCH   1   5
BRANCH   1   9
ATOM      9  C   UNL     1      -6.678  -2.355 128.326  0.00  0.00    +0.000 A 
ATOM     10  C   UNL     1      -7.325  -3.344 129.069  0.00  0.00    +0.000 A 
ATOM     11  C   UNL     1      -8.783  -3.669 128.968  0.00  0.00    +0.000 C 
ATOM     12  C   UNL     1      -6.479  -3.874 130.100  0.00  0.00    +0.000 A 
ATOM     13  C   UNL     1      -5.206  -3.357 130.064  0.00  0.00    +0.000 A 
ATOM     14  S   UNL     1      -5.021  -2.209 128.813  0.00  0.00    +0.000 S 
ENDBRANCH   1   9
BRANCH   2  15
ATOM     15  C   UNL     1      -8.322   0.813 127.141  0.00  0.00    +0.000 C 
BRANCH  15  16
ATOM     16  C   UNL     1      -7.760   2.199 127.344  0.00  0.00    +0.000 C 
BRANCH  16  17
ATOM     17  N   UNL     1      -6.622   2.471 126.430  0.00  0.00    +0.000 NA
ATOM     18  C   UNL     1      -6.772   3.690 125.608  0.00  0.00    +0.000 C 
ATOM     19  C   UNL     1      -5.594   3.898 124.674  0.00  0.00    +0.000 C 
ATOM     20  C   UNL     1      -4.299   3.971 125.464  0.00  0.00    +0.000 C 
ATOM     21  C   UNL     1      -4.151   2.767 126.408  0.00  0.00    +0.000 C 
ATOM     22  C   UNL     1      -5.411   2.572 127.239  0.00  0.00    +0.000 C 
BRANCH  21  23
ATOM     23  C   UNL     1      -2.906   2.946 127.253  0.00  0.00    +0.000 C 
ATOM     24  O   UNL     1      -2.952   3.449 128.378  0.00  0.00    +0.000 OA
BRANCH  23  25
ATOM     25  O   UNL     1      -1.729   2.527 126.753  0.00  0.00    +0.000 OA
ATOM     26  H   UNL     1      -1.303   1.736 127.129  0.00  0.00    +0.000 HD
ENDBRANCH  23  25
ENDBRANCH  21  23
ENDBRANCH  16  17
ENDBRANCH  15  16
ENDBRANCH   2  15
TORSDOF 7
ENDMDL
MODEL 9
REMARK VINA RESULT:      -6.3      3.799      6.445
REMARK  Name = Tiagabine
REMARK  9 active torsions:
REMARK  status: ('A' for Active; 'I' for Inactive)
REMARK    1  A    between atoms: C_1  and  C_2
REMARK    2  A    between atoms: C_3  and  C_7
REMARK    3  A    between atoms: C_7  and  C_20
REMARK    4  A    between atoms: C_8  and  C_9
REMARK    5  A    between atoms: C_9  and  C_10
REMARK    6  A    between atoms: C_10  and  N_11
REMARK    7  A    between atoms: C_15  and  C_17
REMARK    8  A    between atoms: C_17  and  O_18
REMARK    9  A    between atoms: C_21  and  C_22
REMARK                            x       y       z     vdW  Elec       q    Type
REMARK                         _______ _______ _______ _____ _____    ______ ____
ROOT
ATOM      1  C   UNL     1      -7.260  -1.622 127.024  0.00  0.00    +0.000 C 
ATOM      2  C   UNL     1      -7.598  -0.312 127.125  0.00  0.00    +0.000 C 
ENDROOT
BRANCH   1   5
ATOM      3  C   UNL     1      -8.711  -3.594 129.190  0.00  0.00    +0.000 C 
ATOM      4  C   UNL     1      -7.269  -3.253 129.078  0.00  0.00    +0.000 A 
ATOM      5  C   UNL     1      -6.651  -2.416 128.132  0.00  0.00    +0.000 A 
ATOM      6  S   UNL     1      -4.941  -2.451 128.510  0.00  0.00    +0.000 S 
ATOM      7  C   UNL     1      -5.061  -3.464 129.836  0.00  0.00    +0.000 A 
ATOM      8  C   UNL     1      -6.363  -3.799 130.056  0.00  0.00    +0.000 A 
ENDBRANCH   1   5
BRANCH   1   9
ATOM      9  C   UNL     1      -7.660  -2.217 125.761  0.00  0.00    +0.000 A 
ATOM     10  C   UNL     1      -6.895  -2.361 124.602  0.00  0.00    +0.000 A 
ATOM     11  C   UNL     1      -5.469  -1.927 124.463  0.00  0.00    +0.000 C 
ATOM     12  C   UNL     1      -7.695  -2.776 123.485  0.00  0.00    +0.000 A 
ATOM     13  C   UNL     1      -9.003  -3.025 123.828  0.00  0.00    +0.000 A 
ATOM     14  S   UNL     1      -9.292  -2.733 125.486  0.00  0.00    +0.000 S 
ENDBRANCH   1   9
BRANCH   2  15
ATOM     15  C   UNL     1      -7.411   0.511 128.339  0.00  0.00    +0.000 C 
BRANCH  15  16
ATOM     16  C   UNL     1      -8.129   1.832 128.468  0.00  0.00    +0.000 C 
BRANCH  16  17
ATOM     17  N   UNL     1      -8.939   1.900 129.710  0.00  0.00    +0.000 NA
ATOM     18  C   UNL     1      -8.569   0.908 130.741  0.00  0.00    +0.000 C 
ATOM     19  C   UNL     1      -9.450   1.006 131.972  0.00  0.00    +0.000 C 
ATOM     20  C   UNL     1      -9.384   2.405 132.561  0.00  0.00    +0.000 C 
ATOM     21  C   UNL     1      -9.667   3.474 131.495  0.00  0.00    +0.000 C 
ATOM     22  C   UNL     1      -8.811   3.247 130.257  0.00  0.00    +0.000 C 
BRANCH  21  23
ATOM     23  C   UNL     1      -9.475   4.849 132.103  0.00  0.00    +0.000 C 
ATOM     24  O   UNL     1      -8.489   5.541 131.842  0.00  0.00    +0.000 OA
BRANCH  23  25
ATOM     25  O   UNL     1     -10.422   5.316 132.938  0.00  0.00    +0.000 OA
ATOM     26  H   UNL     1     -11.174   5.817 132.578  0.00  0.00    +0.000 HD
ENDBRANCH  23  25
ENDBRANCH  21  23
ENDBRANCH  16  17
ENDBRANCH  15  16
ENDBRANCH   2  15
TORSDOF 7
ENDMDL
