MODEL 1
REMARK VINA RESULT:      -7.1      0.000      0.000
REMARK  Name = Tiaprofenic acid
REMARK  6 active torsions:
REMARK  status: ('A' for Active; 'I' for Inactive)
REMARK    1  A    between atoms: C_1  and  C_2
REMARK    2  A    between atoms: C_2  and  C_3
REMARK    3  A    between atoms: C_2  and  C_6
REMARK    4  A    between atoms: C_3  and  O_4
REMARK    5  A    between atoms: C_9  and  C_11
REMARK    6  A    between atoms: C_11  and  C_13
REMARK                            x       y       z     vdW  Elec       q    Type
REMARK                         _______ _______ _______ _____ _____    ______ ____
ROOT
ATOM      1  C   UNL     1      -8.757  -1.149 123.466  0.00  0.00    +0.000 A 
ATOM      2  C   UNL     1      -9.849  -0.641 122.791  0.00  0.00    +0.000 A 
ATOM      3  C   UNL     1      -9.888   0.766 122.747  0.00  0.00    +0.000 A 
ATOM      4  C   UNL     1      -8.718   1.349 123.163  0.00  0.00    +0.000 A 
ATOM      5  S   UNL     1      -7.619   0.159 123.713  0.00  0.00    +0.000 S 
ENDROOT
BRANCH   1   7
ATOM      6  C   UNL     1      -6.858  -2.781 123.880  0.00  0.00    +0.000 C 
ATOM      7  C   UNL     1      -8.382  -2.573 123.892  0.00  0.00    +0.000 C 
BRANCH   7   8
ATOM      8  C   UNL     1      -8.888  -3.089 125.249  0.00  0.00    +0.000 C 
ATOM      9  O   UNL     1      -8.107  -3.548 126.087  0.00  0.00    +0.000 OA
BRANCH   8  10
ATOM     10  O   UNL     1     -10.186  -3.031 125.576  0.00  0.00    +0.000 OA
ATOM     11  H   UNL     1     -10.425  -2.458 126.316  0.00  0.00    +0.000 HD
ENDBRANCH   8  10
ENDBRANCH   7   8
ENDBRANCH   1   7
BRANCH   4  12
ATOM     12  C   UNL     1      -8.383   2.763 123.110  0.00  0.00    +0.000 C 
ATOM     13  O   UNL     1      -8.556   3.572 124.020  0.00  0.00    +0.000 OA
BRANCH  12  14
ATOM     14  C   UNL     1      -7.748   3.272 121.857  0.00  0.00    +0.000 A 
ATOM     15  C   UNL     1      -6.364   3.458 121.823  0.00  0.00    +0.000 A 
ATOM     16  C   UNL     1      -5.782   4.092 120.723  0.00  0.00    +0.000 A 
ATOM     17  C   UNL     1      -6.562   4.451 119.622  0.00  0.00    +0.000 A 
ATOM     18  C   UNL     1      -7.933   4.199 119.623  0.00  0.00    +0.000 A 
ATOM     19  C   UNL     1      -8.530   3.625 120.745  0.00  0.00    +0.000 A 
ENDBRANCH  12  14
ENDBRANCH   4  12
TORSDOF 5
ENDMDL
MODEL 2
REMARK VINA RESULT:      -7.0      2.942      7.223
REMARK  Name = Tiaprofenic acid
REMARK  6 active torsions:
REMARK  status: ('A' for Active; 'I' for Inactive)
REMARK    1  A    between atoms: C_1  and  C_2
REMARK    2  A    between atoms: C_2  and  C_3
REMARK    3  A    between atoms: C_2  and  C_6
REMARK    4  A    between atoms: C_3  and  O_4
REMARK    5  A    between atoms: C_9  and  C_11
REMARK    6  A    between atoms: C_11  and  C_13
REMARK                            x       y       z     vdW  Elec       q    Type
REMARK                         _______ _______ _______ _____ _____    ______ ____
ROOT
ATOM      1  C   UNL     1      -6.495   3.975 121.102  0.00  0.00    +0.000 A 
ATOM      2  C   UNL     1      -5.584   3.985 122.140  0.00  0.00    +0.000 A 
ATOM      3  C   UNL     1      -6.156   3.742 123.403  0.00  0.00    +0.000 A 
ATOM      4  C   UNL     1      -7.454   3.301 123.329  0.00  0.00    +0.000 A 
ATOM      5  S   UNL     1      -7.994   3.299 121.706  0.00  0.00    +0.000 S 
ENDROOT
BRANCH   1   7
ATOM      6  C   UNL     1      -7.742   4.395 118.932  0.00  0.00    +0.000 C 
ATOM      7  C   UNL     1      -6.366   4.331 119.617  0.00  0.00    +0.000 C 
BRANCH   7   8
ATOM      8  C   UNL     1      -5.622   5.620 119.234  0.00  0.00    +0.000 C 
ATOM      9  O   UNL     1      -4.905   6.208 120.049  0.00  0.00    +0.000 OA
BRANCH   8  10
ATOM     10  O   UNL     1      -5.704   6.131 117.997  0.00  0.00    +0.000 OA
ATOM     11  H   UNL     1      -6.127   5.581 117.325  0.00  0.00    +0.000 HD
ENDBRANCH   8  10
ENDBRANCH   7   8
ENDBRANCH   1   7
BRANCH   4  12
ATOM     12  C   UNL     1      -8.279   2.833 124.432  0.00  0.00    +0.000 C 
ATOM     13  O   UNL     1      -8.969   3.546 125.158  0.00  0.00    +0.000 OA
BRANCH  12  14
ATOM     14  C   UNL     1      -8.314   1.362 124.687  0.00  0.00    +0.000 A 
ATOM     15  C   UNL     1      -9.331   0.834 125.486  0.00  0.00    +0.000 A 
ATOM     16  C   UNL     1      -9.279  -0.507 125.871  0.00  0.00    +0.000 A 
ATOM     17  C   UNL     1      -8.271  -1.340 125.383  0.00  0.00    +0.000 A 
ATOM     18  C   UNL     1      -7.296  -0.834 124.525  0.00  0.00    +0.000 A 
ATOM     19  C   UNL     1      -7.307   0.519 124.188  0.00  0.00    +0.000 A 
ENDBRANCH  12  14
ENDBRANCH   4  12
TORSDOF 5
ENDMDL
MODEL 3
REMARK VINA RESULT:      -6.9      1.376      2.135
REMARK  Name = Tiaprofenic acid
REMARK  6 active torsions:
REMARK  status: ('A' for Active; 'I' for Inactive)
REMARK    1  A    between atoms: C_1  and  C_2
REMARK    2  A    between atoms: C_2  and  C_3
REMARK    3  A    between atoms: C_2  and  C_6
REMARK    4  A    between atoms: C_3  and  O_4
REMARK    5  A    between atoms: C_9  and  C_11
REMARK    6  A    between atoms: C_11  and  C_13
REMARK                            x       y       z     vdW  Elec       q    Type
REMARK                         _______ _______ _______ _____ _____    ______ ____
ROOT
ATOM      1  C   UNL     1      -7.663  -1.028 124.128  0.00  0.00    +0.000 A 
ATOM      2  C   UNL     1      -6.771  -0.448 125.008  0.00  0.00    +0.000 A 
ATOM      3  C   UNL     1      -6.631   0.943 124.843  0.00  0.00    +0.000 A 
ATOM      4  C   UNL     1      -7.582   1.484 124.015  0.00  0.00    +0.000 A 
ATOM      5  S   UNL     1      -8.573   0.255 123.357  0.00  0.00    +0.000 S 
ENDROOT
BRANCH   1   7
ATOM      6  C   UNL     1      -7.025  -3.455 124.509  0.00  0.00    +0.000 C 
ATOM      7  C   UNL     1      -8.017  -2.491 123.837  0.00  0.00    +0.000 C 
BRANCH   7   8
ATOM      8  C   UNL     1      -9.426  -2.989 124.193  0.00  0.00    +0.000 C 
ATOM      9  O   UNL     1     -10.120  -3.586 123.365  0.00  0.00    +0.000 OA
BRANCH   8  10
ATOM     10  O   UNL     1      -9.936  -2.818 125.421  0.00  0.00    +0.000 OA
ATOM     11  H   UNL     1     -10.347  -3.588 125.835  0.00  0.00    +0.000 HD
ENDBRANCH   8  10
ENDBRANCH   7   8
ENDBRANCH   1   7
BRANCH   4  12
ATOM     12  C   UNL     1      -7.801   2.897 123.746  0.00  0.00    +0.000 C 
ATOM     13  O   UNL     1      -8.579   3.627 124.357  0.00  0.00    +0.000 OA
BRANCH  12  14
ATOM     14  C   UNL     1      -6.993   3.522 122.656  0.00  0.00    +0.000 A 
ATOM     15  C   UNL     1      -7.492   3.518 121.352  0.00  0.00    +0.000 A 
ATOM     16  C   UNL     1      -6.676   3.943 120.301  0.00  0.00    +0.000 A 
ATOM     17  C   UNL     1      -5.405   4.459 120.561  0.00  0.00    +0.000 A 
ATOM     18  C   UNL     1      -4.933   4.534 121.870  0.00  0.00    +0.000 A 
ATOM     19  C   UNL     1      -5.718   4.051 122.917  0.00  0.00    +0.000 A 
ENDBRANCH  12  14
ENDBRANCH   4  12
TORSDOF 5
ENDMDL
MODEL 4
REMARK VINA RESULT:      -6.7      8.840     11.332
REMARK  Name = Tiaprofenic acid
REMARK  6 active torsions:
REMARK  status: ('A' for Active; 'I' for Inactive)
REMARK    1  A    between atoms: C_1  and  C_2
REMARK    2  A    between atoms: C_2  and  C_3
REMARK    3  A    between atoms: C_2  and  C_6
REMARK    4  A    between atoms: C_3  and  O_4
REMARK    5  A    between atoms: C_9  and  C_11
REMARK    6  A    between atoms: C_11  and  C_13
REMARK                            x       y       z     vdW  Elec       q    Type
REMARK                         _______ _______ _______ _____ _____    ______ ____
ROOT
ATOM      1  C   UNL     1     -12.172   7.214 129.702  0.00  0.00    +0.000 A 
ATOM      2  C   UNL     1     -12.720   7.239 130.969  0.00  0.00    +0.000 A 
ATOM      3  C   UNL     1     -11.934   6.594 131.942  0.00  0.00    +0.000 A 
ATOM      4  C   UNL     1     -10.673   6.287 131.497  0.00  0.00    +0.000 A 
ATOM      5  S   UNL     1     -10.505   6.694 129.844  0.00  0.00    +0.000 S 
ENDROOT
BRANCH   1   7
ATOM      6  C   UNL     1     -13.296   9.066 128.379  0.00  0.00    +0.000 C 
ATOM      7  C   UNL     1     -12.720   7.640 128.335  0.00  0.00    +0.000 C 
BRANCH   7   8
ATOM      8  C   UNL     1     -11.783   7.580 127.118  0.00  0.00    +0.000 C 
ATOM      9  O   UNL     1     -10.923   8.446 126.932  0.00  0.00    +0.000 OA
BRANCH   8  10
ATOM     10  O   UNL     1     -11.849   6.571 126.238  0.00  0.00    +0.000 OA
ATOM     11  H   UNL     1     -11.021   6.120 126.028  0.00  0.00    +0.000 HD
ENDBRANCH   8  10
ENDBRANCH   7   8
ENDBRANCH   1   7
BRANCH   4  12
ATOM     12  C   UNL     1      -9.578   5.747 132.288  0.00  0.00    +0.000 C 
ATOM     13  O   UNL     1      -8.796   6.408 132.969  0.00  0.00    +0.000 OA
BRANCH  12  14
ATOM     14  C   UNL     1      -9.404   4.263 132.298  0.00  0.00    +0.000 A 
ATOM     15  C   UNL     1      -8.642   3.674 133.310  0.00  0.00    +0.000 A 
ATOM     16  C   UNL     1      -8.331   2.315 133.236  0.00  0.00    +0.000 A 
ATOM     17  C   UNL     1      -8.856   1.528 132.209  0.00  0.00    +0.000 A 
ATOM     18  C   UNL     1      -9.679   2.098 131.239  0.00  0.00    +0.000 A 
ATOM     19  C   UNL     1      -9.941   3.468 131.272  0.00  0.00    +0.000 A 
ENDBRANCH  12  14
ENDBRANCH   4  12
TORSDOF 5
ENDMDL
MODEL 5
REMARK VINA RESULT:      -6.7      2.848      6.416
REMARK  Name = Tiaprofenic acid
REMARK  6 active torsions:
REMARK  status: ('A' for Active; 'I' for Inactive)
REMARK    1  A    between atoms: C_1  and  C_2
REMARK    2  A    between atoms: C_2  and  C_3
REMARK    3  A    between atoms: C_2  and  C_6
REMARK    4  A    between atoms: C_3  and  O_4
REMARK    5  A    between atoms: C_9  and  C_11
REMARK    6  A    between atoms: C_11  and  C_13
REMARK                            x       y       z     vdW  Elec       q    Type
REMARK                         _______ _______ _______ _____ _____    ______ ____
ROOT
ATOM      1  C   UNL     1      -8.060   2.447 124.819  0.00  0.00    +0.000 A 
ATOM      2  C   UNL     1      -9.020   2.609 123.840  0.00  0.00    +0.000 A 
ATOM      3  C   UNL     1      -9.287   1.438 123.106  0.00  0.00    +0.000 A 
ATOM      4  C   UNL     1      -8.727   0.315 123.662  0.00  0.00    +0.000 A 
ATOM      5  S   UNL     1      -7.781   0.730 125.025  0.00  0.00    +0.000 S 
ENDROOT
BRANCH   1   7
ATOM      6  C   UNL     1      -5.822   3.302 125.656  0.00  0.00    +0.000 C 
ATOM      7  C   UNL     1      -7.351   3.447 125.740  0.00  0.00    +0.000 C 
BRANCH   7   8
ATOM      8  C   UNL     1      -7.662   4.943 125.575  0.00  0.00    +0.000 C 
ATOM      9  O   UNL     1      -8.736   5.416 125.958  0.00  0.00    +0.000 OA
BRANCH   8  10
ATOM     10  O   UNL     1      -6.768   5.786 125.039  0.00  0.00    +0.000 OA
ATOM     11  H   UNL     1      -6.669   6.647 125.466  0.00  0.00    +0.000 HD
ENDBRANCH   8  10
ENDBRANCH   7   8
ENDBRANCH   1   7
BRANCH   4  12
ATOM     12  C   UNL     1      -8.925  -1.060 123.232  0.00  0.00    +0.000 C 
ATOM     13  O   UNL     1      -9.951  -1.509 122.727  0.00  0.00    +0.000 OA
BRANCH  12  14
ATOM     14  C   UNL     1      -7.775  -2.001 123.391  0.00  0.00    +0.000 A 
ATOM     15  C   UNL     1      -7.919  -3.117 124.219  0.00  0.00    +0.000 A 
ATOM     16  C   UNL     1      -6.805  -3.906 124.511  0.00  0.00    +0.000 A 
ATOM     17  C   UNL     1      -5.576  -3.641 123.904  0.00  0.00    +0.000 A 
ATOM     18  C   UNL     1      -5.447  -2.572 123.019  0.00  0.00    +0.000 A 
ATOM     19  C   UNL     1      -6.540  -1.741 122.774  0.00  0.00    +0.000 A 
ENDBRANCH  12  14
ENDBRANCH   4  12
TORSDOF 5
ENDMDL
MODEL 6
REMARK VINA RESULT:      -6.6      5.029      9.068
REMARK  Name = Tiaprofenic acid
REMARK  6 active torsions:
REMARK  status: ('A' for Active; 'I' for Inactive)
REMARK    1  A    between atoms: C_1  and  C_2
REMARK    2  A    between atoms: C_2  and  C_3
REMARK    3  A    between atoms: C_2  and  C_6
REMARK    4  A    between atoms: C_3  and  O_4
REMARK    5  A    between atoms: C_9  and  C_11
REMARK    6  A    between atoms: C_11  and  C_13
REMARK                            x       y       z     vdW  Elec       q    Type
REMARK                         _______ _______ _______ _____ _____    ______ ____
ROOT
ATOM      1  C   UNL     1      -8.196  -2.789 126.317  0.00  0.00    +0.000 A 
ATOM      2  C   UNL     1      -9.013  -3.648 127.024  0.00  0.00    +0.000 A 
ATOM      3  C   UNL     1      -8.782  -3.641 128.413  0.00  0.00    +0.000 A 
ATOM      4  C   UNL     1      -7.969  -2.612 128.817  0.00  0.00    +0.000 A 
ATOM      5  S   UNL     1      -7.405  -1.728 127.464  0.00  0.00    +0.000 S 
ENDROOT
BRANCH   1   7
ATOM      6  C   UNL     1      -7.132  -3.700 124.200  0.00  0.00    +0.000 C 
ATOM      7  C   UNL     1      -7.983  -2.576 124.814  0.00  0.00    +0.000 C 
BRANCH   7   8
ATOM      8  C   UNL     1      -9.219  -2.416 123.914  0.00  0.00    +0.000 C 
ATOM      9  O   UNL     1      -9.506  -1.325 123.414  0.00  0.00    +0.000 OA
BRANCH   8  10
ATOM     10  O   UNL     1     -10.006  -3.461 123.620  0.00  0.00    +0.000 OA
ATOM     11  H   UNL     1     -10.937  -3.271 123.449  0.00  0.00    +0.000 HD
ENDBRANCH   8  10
ENDBRANCH   7   8
ENDBRANCH   1   7
BRANCH   4  12
ATOM     12  C   UNL     1      -7.648  -2.241 130.186  0.00  0.00    +0.000 C 
ATOM     13  O   UNL     1      -7.926  -1.169 130.719  0.00  0.00    +0.000 OA
BRANCH  12  14
ATOM     14  C   UNL     1      -6.946  -3.258 131.026  0.00  0.00    +0.000 A 
ATOM     15  C   UNL     1      -7.132  -3.244 132.410  0.00  0.00    +0.000 A 
ATOM     16  C   UNL     1      -6.354  -4.074 133.218  0.00  0.00    +0.000 A 
ATOM     17  C   UNL     1      -5.463  -4.982 132.644  0.00  0.00    +0.000 A 
ATOM     18  C   UNL     1      -5.328  -5.051 131.258  0.00  0.00    +0.000 A 
ATOM     19  C   UNL     1      -6.056  -4.180 130.448  0.00  0.00    +0.000 A 
ENDBRANCH  12  14
ENDBRANCH   4  12
TORSDOF 5
ENDMDL
MODEL 7
REMARK VINA RESULT:      -6.4      2.684      6.772
REMARK  Name = Tiaprofenic acid
REMARK  6 active torsions:
REMARK  status: ('A' for Active; 'I' for Inactive)
REMARK    1  A    between atoms: C_1  and  C_2
REMARK    2  A    between atoms: C_2  and  C_3
REMARK    3  A    between atoms: C_2  and  C_6
REMARK    4  A    between atoms: C_3  and  O_4
REMARK    5  A    between atoms: C_9  and  C_11
REMARK    6  A    between atoms: C_11  and  C_13
REMARK                            x       y       z     vdW  Elec       q    Type
REMARK                         _______ _______ _______ _____ _____    ______ ____
ROOT
ATOM      1  C   UNL     1      -7.216   2.875 124.313  0.00  0.00    +0.000 A 
ATOM      2  C   UNL     1      -8.538   3.113 124.630  0.00  0.00    +0.000 A 
ATOM      3  C   UNL     1      -9.420   2.107 124.189  0.00  0.00    +0.000 A 
ATOM      4  C   UNL     1      -8.772   0.979 123.752  0.00  0.00    +0.000 A 
ATOM      5  S   UNL     1      -7.078   1.211 123.784  0.00  0.00    +0.000 S 
ENDROOT
BRANCH   1   7
ATOM      6  C   UNL     1      -5.489   4.269 123.082  0.00  0.00    +0.000 C 
ATOM      7  C   UNL     1      -5.955   3.736 124.447  0.00  0.00    +0.000 C 
BRANCH   7   8
ATOM      8  C   UNL     1      -5.987   4.939 125.403  0.00  0.00    +0.000 C 
ATOM      9  O   UNL     1      -6.201   6.080 124.984  0.00  0.00    +0.000 OA
BRANCH   8  10
ATOM     10  O   UNL     1      -5.814   4.785 126.723  0.00  0.00    +0.000 OA
ATOM     11  H   UNL     1      -4.906   4.680 127.035  0.00  0.00    +0.000 HD
ENDBRANCH   8  10
ENDBRANCH   7   8
ENDBRANCH   1   7
BRANCH   4  12
ATOM     12  C   UNL     1      -9.385  -0.282 123.364  0.00  0.00    +0.000 C 
ATOM     13  O   UNL     1     -10.120  -0.448 122.393  0.00  0.00    +0.000 OA
BRANCH  12  14
ATOM     14  C   UNL     1      -9.074  -1.482 124.198  0.00  0.00    +0.000 A 
ATOM     15  C   UNL     1      -9.206  -1.399 125.585  0.00  0.00    +0.000 A 
ATOM     16  C   UNL     1      -8.757  -2.452 126.384  0.00  0.00    +0.000 A 
ATOM     17  C   UNL     1      -8.269  -3.622 125.798  0.00  0.00    +0.000 A 
ATOM     18  C   UNL     1      -8.206  -3.737 124.410  0.00  0.00    +0.000 A 
ATOM     19  C   UNL     1      -8.592  -2.663 123.609  0.00  0.00    +0.000 A 
ENDBRANCH  12  14
ENDBRANCH   4  12
TORSDOF 5
ENDMDL
MODEL 8
REMARK VINA RESULT:      -6.3      2.276      7.334
REMARK  Name = Tiaprofenic acid
REMARK  6 active torsions:
REMARK  status: ('A' for Active; 'I' for Inactive)
REMARK    1  A    between atoms: C_1  and  C_2
REMARK    2  A    between atoms: C_2  and  C_3
REMARK    3  A    between atoms: C_2  and  C_6
REMARK    4  A    between atoms: C_3  and  O_4
REMARK    5  A    between atoms: C_9  and  C_11
REMARK    6  A    between atoms: C_11  and  C_13
REMARK                            x       y       z     vdW  Elec       q    Type
REMARK                         _______ _______ _______ _____ _____    ______ ____
ROOT
ATOM      1  C   UNL     1      -7.563   1.256 123.668  0.00  0.00    +0.000 A 
ATOM      2  C   UNL     1      -6.821   0.208 123.162  0.00  0.00    +0.000 A 
ATOM      3  C   UNL     1      -7.143  -1.042 123.726  0.00  0.00    +0.000 A 
ATOM      4  C   UNL     1      -8.289  -1.012 124.480  0.00  0.00    +0.000 A 
ATOM      5  S   UNL     1      -8.898   0.583 124.580  0.00  0.00    +0.000 S 
ENDROOT
BRANCH   1   7
ATOM      6  C   UNL     1      -6.167   3.334 124.084  0.00  0.00    +0.000 C 
ATOM      7  C   UNL     1      -7.463   2.774 123.476  0.00  0.00    +0.000 C 
BRANCH   7   8
ATOM      8  C   UNL     1      -7.563   3.341 122.051  0.00  0.00    +0.000 C 
ATOM      9  O   UNL     1      -6.585   3.351 121.299  0.00  0.00    +0.000 OA
BRANCH   8  10
ATOM     10  O   UNL     1      -8.722   3.813 121.569  0.00  0.00    +0.000 OA
ATOM     11  H   UNL     1      -9.334   4.202 122.206  0.00  0.00    +0.000 HD
ENDBRANCH   8  10
ENDBRANCH   7   8
ENDBRANCH   1   7
BRANCH   4  12
ATOM     12  C   UNL     1      -8.966  -2.150 125.080  0.00  0.00    +0.000 C 
ATOM     13  O   UNL     1      -9.740  -2.908 124.499  0.00  0.00    +0.000 OA
BRANCH  12  14
ATOM     14  C   UNL     1      -8.676  -2.442 126.517  0.00  0.00    +0.000 A 
ATOM     15  C   UNL     1      -7.866  -1.564 127.239  0.00  0.00    +0.000 A 
ATOM     16  C   UNL     1      -7.449  -1.911 128.526  0.00  0.00    +0.000 A 
ATOM     17  C   UNL     1      -7.915  -3.083 129.124  0.00  0.00    +0.000 A 
ATOM     18  C   UNL     1      -8.783  -3.926 128.432  0.00  0.00    +0.000 A 
ATOM     19  C   UNL     1      -9.152  -3.616 127.124  0.00  0.00    +0.000 A 
ENDBRANCH  12  14
ENDBRANCH   4  12
TORSDOF 5
ENDMDL
MODEL 9
REMARK VINA RESULT:      -6.2      9.213     11.541
REMARK  Name = Tiaprofenic acid
REMARK  6 active torsions:
REMARK  status: ('A' for Active; 'I' for Inactive)
REMARK    1  A    between atoms: C_1  and  C_2
REMARK    2  A    between atoms: C_2  and  C_3
REMARK    3  A    between atoms: C_2  and  C_6
REMARK    4  A    between atoms: C_3  and  O_4
REMARK    5  A    between atoms: C_9  and  C_11
REMARK    6  A    between atoms: C_11  and  C_13
REMARK                            x       y       z     vdW  Elec       q    Type
REMARK                         _______ _______ _______ _____ _____    ______ ____
ROOT
ATOM      1  C   UNL     1     -11.889   6.908 129.716  0.00  0.00    +0.000 A 
ATOM      2  C   UNL     1     -11.993   7.120 131.076  0.00  0.00    +0.000 A 
ATOM      3  C   UNL     1     -11.387   6.117 131.857  0.00  0.00    +0.000 A 
ATOM      4  C   UNL     1     -10.605   5.262 131.121  0.00  0.00    +0.000 A 
ATOM      5  S   UNL     1     -10.714   5.635 129.455  0.00  0.00    +0.000 S 
ENDROOT
BRANCH   1   7
ATOM      6  C   UNL     1     -12.789   9.107 128.825  0.00  0.00    +0.000 C 
ATOM      7  C   UNL     1     -12.509   7.628 128.512  0.00  0.00    +0.000 C 
BRANCH   7   8
ATOM      8  C   UNL     1     -11.757   7.594 127.172  0.00  0.00    +0.000 C 
ATOM      9  O   UNL     1     -10.833   8.378 126.940  0.00  0.00    +0.000 OA
BRANCH   8  10
ATOM     10  O   UNL     1     -12.062   6.695 126.225  0.00  0.00    +0.000 OA
ATOM     11  H   UNL     1     -11.772   6.893 125.326  0.00  0.00    +0.000 HD
ENDBRANCH   8  10
ENDBRANCH   7   8
ENDBRANCH   1   7
BRANCH   4  12
ATOM     12  C   UNL     1      -9.740   4.212 131.636  0.00  0.00    +0.000 C 
ATOM     13  O   UNL     1      -9.775   3.031 131.298  0.00  0.00    +0.000 OA
BRANCH  12  14
ATOM     14  C   UNL     1      -8.703   4.605 132.637  0.00  0.00    +0.000 A 
ATOM     15  C   UNL     1      -8.839   4.179 133.960  0.00  0.00    +0.000 A 
ATOM     16  C   UNL     1      -7.976   4.678 134.937  0.00  0.00    +0.000 A 
ATOM     17  C   UNL     1      -6.922   5.522 134.580  0.00  0.00    +0.000 A 
ATOM     18  C   UNL     1      -6.739   5.890 133.248  0.00  0.00    +0.000 A 
ATOM     19  C   UNL     1      -7.637   5.446 132.278  0.00  0.00    +0.000 A 
ENDBRANCH  12  14
ENDBRANCH   4  12
TORSDOF 5
ENDMDL
