MODEL 1
REMARK VINA RESULT:      -8.0      0.000      0.000
REMARK  Name = Tibolone
REMARK  4 active torsions:
REMARK  status: ('A' for Active; 'I' for Inactive)
REMARK    1  A    between atoms: C_5  and  O_6
REMARK    2  A    between atoms: C_5  and  C_7
REMARK    3  A    between atoms: C_9  and  C_10
REMARK    4  A    between atoms: C_23  and  C_25
REMARK                            x       y       z     vdW  Elec       q    Type
REMARK                         _______ _______ _______ _____ _____    ______ ____
ROOT
ATOM      1  C   UNL     1      -7.412  -3.331 124.331  0.00  0.00    +0.000 C 
ATOM      2  C   UNL     1      -8.587  -3.089 123.571  0.00  0.00    +0.000 C 
ATOM      3  C   UNL     1      -7.844  -1.954 124.175  0.00  0.00    +0.000 C 
ATOM      4  C   UNL     1      -5.842  -2.421 124.559  0.00  0.00    +0.000 C 
ATOM      5  C   UNL     1      -6.498  -1.848 123.517  0.00  0.00    +0.000 C 
ATOM      6  C   UNL     1      -6.232  -1.943 122.068  0.00  0.00    +0.000 C 
ATOM      7  C   UNL     1      -6.456  -0.271 124.436  0.00  0.00    +0.000 C 
ATOM      8  C   UNL     1      -6.476  -0.528 126.058  0.00  0.00    +0.000 C 
ATOM      9  C   UNL     1      -7.544  -1.540 126.671  0.00  0.00    +0.000 C 
ATOM     10  C   UNL     1      -7.609  -1.606 128.161  0.00  0.00    +0.000 C 
ATOM     11  C   UNL     1      -8.053  -2.710 128.805  0.00  0.00    +0.000 C 
ATOM     12  C   UNL     1      -8.119  -2.768 130.302  0.00  0.00    +0.000 C 
ATOM     13  C   UNL     1      -7.388  -1.579 130.887  0.00  0.00    +0.000 C 
ATOM     14  O   UNL     1      -6.570  -1.679 131.799  0.00  0.00    +0.000 OA
ATOM     15  C   UNL     1      -7.744  -0.259 130.266  0.00  0.00    +0.000 C 
ATOM     16  C   UNL     1      -7.248  -0.314 128.846  0.00  0.00    +0.000 C 
ATOM     17  C   UNL     1      -8.512  -3.990 128.122  0.00  0.00    +0.000 C 
ATOM     18  C   UNL     1      -8.729  -3.861 126.618  0.00  0.00    +0.000 C 
ATOM     19  C   UNL     1     -10.103  -3.215 126.351  0.00  0.00    +0.000 C 
ATOM     20  C   UNL     1      -7.526  -3.086 126.098  0.00  0.00    +0.000 C 
ENDROOT
BRANCH   4  21
ATOM     21  O   UNL     1      -4.594  -1.700 124.242  0.00  0.00    +0.000 OA
ATOM     22  H   UNL     1      -4.529  -1.154 123.450  0.00  0.00    +0.000 HD
ENDBRANCH   4  21
BRANCH   4  23
ATOM     23  C   UNL     1      -5.168  -3.802 124.100  0.00  0.00    +0.000 C 
ATOM     24  C   UNL     1      -4.570  -4.817 123.768  0.00  0.00    +0.000 C 
ENDBRANCH   4  23
TORSDOF 2
ENDMDL
MODEL 2
REMARK VINA RESULT:      -7.8      2.717      5.234
REMARK  Name = Tibolone
REMARK  4 active torsions:
REMARK  status: ('A' for Active; 'I' for Inactive)
REMARK    1  A    between atoms: C_5  and  O_6
REMARK    2  A    between atoms: C_5  and  C_7
REMARK    3  A    between atoms: C_9  and  C_10
REMARK    4  A    between atoms: C_23  and  C_25
REMARK                            x       y       z     vdW  Elec       q    Type
REMARK                         _______ _______ _______ _____ _____    ______ ____
ROOT
ATOM      1  C   UNL     1      -6.328  -2.146 125.842  0.00  0.00    +0.000 C 
ATOM      2  C   UNL     1      -7.047  -2.483 127.019  0.00  0.00    +0.000 C 
ATOM      3  C   UNL     1      -7.737  -1.807 125.893  0.00  0.00    +0.000 C 
ATOM      4  C   UNL     1      -6.760  -2.091 124.067  0.00  0.00    +0.000 C 
ATOM      5  C   UNL     1      -7.766  -2.735 124.711  0.00  0.00    +0.000 C 
ATOM      6  C   UNL     1      -8.097  -4.172 124.747  0.00  0.00    +0.000 C 
ATOM      7  C   UNL     1      -8.910  -1.465 124.065  0.00  0.00    +0.000 C 
ATOM      8  C   UNL     1      -8.146  -0.025 123.865  0.00  0.00    +0.000 C 
ATOM      9  C   UNL     1      -7.240   0.544 125.045  0.00  0.00    +0.000 C 
ATOM     10  C   UNL     1      -6.705   1.925 124.857  0.00  0.00    +0.000 C 
ATOM     11  C   UNL     1      -5.571   2.338 125.470  0.00  0.00    +0.000 C 
ATOM     12  C   UNL     1      -5.042   3.728 125.280  0.00  0.00    +0.000 C 
ATOM     13  C   UNL     1      -5.791   4.405 124.152  0.00  0.00    +0.000 C 
ATOM     14  O   UNL     1      -5.228   5.014 123.245  0.00  0.00    +0.000 OA
ATOM     15  C   UNL     1      -7.285   4.278 124.231  0.00  0.00    +0.000 C 
ATOM     16  C   UNL     1      -7.594   2.818 124.033  0.00  0.00    +0.000 C 
ATOM     17  C   UNL     1      -4.712   1.476 126.383  0.00  0.00    +0.000 C 
ATOM     18  C   UNL     1      -5.368   0.171 126.822  0.00  0.00    +0.000 C 
ATOM     19  C   UNL     1      -6.341   0.451 127.985  0.00  0.00    +0.000 C 
ATOM     20  C   UNL     1      -5.999  -0.410 125.564  0.00  0.00    +0.000 C 
ENDROOT
BRANCH   4  21
ATOM     21  O   UNL     1      -7.265  -2.510 122.744  0.00  0.00    +0.000 OA
ATOM     22  H   UNL     1      -7.439  -3.440 122.557  0.00  0.00    +0.000 HD
ENDBRANCH   4  21
BRANCH   4  23
ATOM     23  C   UNL     1      -5.495  -3.063 123.899  0.00  0.00    +0.000 C 
ATOM     24  C   UNL     1      -4.552  -3.812 123.681  0.00  0.00    +0.000 C 
ENDBRANCH   4  23
TORSDOF 2
ENDMDL
MODEL 3
REMARK VINA RESULT:      -7.4      1.749      2.541
REMARK  Name = Tibolone
REMARK  4 active torsions:
REMARK  status: ('A' for Active; 'I' for Inactive)
REMARK    1  A    between atoms: C_5  and  O_6
REMARK    2  A    between atoms: C_5  and  C_7
REMARK    3  A    between atoms: C_9  and  C_10
REMARK    4  A    between atoms: C_23  and  C_25
REMARK                            x       y       z     vdW  Elec       q    Type
REMARK                         _______ _______ _______ _____ _____    ______ ____
ROOT
ATOM      1  C   UNL     1      -7.593  -2.915 125.766  0.00  0.00    +0.000 C 
ATOM      2  C   UNL     1      -8.761  -3.713 125.893  0.00  0.00    +0.000 C 
ATOM      3  C   UNL     1      -8.875  -2.236 125.792  0.00  0.00    +0.000 C 
ATOM      4  C   UNL     1      -7.210  -1.364 124.876  0.00  0.00    +0.000 C 
ATOM      5  C   UNL     1      -8.415  -1.803 124.429  0.00  0.00    +0.000 C 
ATOM      6  C   UNL     1      -8.768  -2.449 123.150  0.00  0.00    +0.000 C 
ATOM      7  C   UNL     1      -9.128  -0.213 124.972  0.00  0.00    +0.000 C 
ATOM      8  C   UNL     1      -8.313   0.394 126.263  0.00  0.00    +0.000 C 
ATOM      9  C   UNL     1      -7.993  -0.561 127.498  0.00  0.00    +0.000 C 
ATOM     10  C   UNL     1      -7.392   0.093 128.698  0.00  0.00    +0.000 C 
ATOM     11  C   UNL     1      -6.625  -0.596 129.574  0.00  0.00    +0.000 C 
ATOM     12  C   UNL     1      -6.027   0.065 130.779  0.00  0.00    +0.000 C 
ATOM     13  C   UNL     1      -6.193   1.566 130.666  0.00  0.00    +0.000 C 
ATOM     14  O   UNL     1      -5.276   2.358 130.868  0.00  0.00    +0.000 OA
ATOM     15  C   UNL     1      -7.576   2.014 130.291  0.00  0.00    +0.000 C 
ATOM     16  C   UNL     1      -7.810   1.527 128.886  0.00  0.00    +0.000 C 
ATOM     17  C   UNL     1      -6.272  -2.072 129.448  0.00  0.00    +0.000 C 
ATOM     18  C   UNL     1      -7.090  -2.831 128.409  0.00  0.00    +0.000 C 
ATOM     19  C   UNL     1      -8.462  -3.201 129.005  0.00  0.00    +0.000 C 
ATOM     20  C   UNL     1      -7.127  -1.929 127.183  0.00  0.00    +0.000 C 
ENDROOT
BRANCH   4  21
ATOM     21  O   UNL     1      -7.102  -0.377 123.783  0.00  0.00    +0.000 OA
ATOM     22  H   UNL     1      -6.334  -0.371 123.201  0.00  0.00    +0.000 HD
ENDBRANCH   4  21
BRANCH   4  23
ATOM     23  C   UNL     1      -6.026  -2.226 124.222  0.00  0.00    +0.000 C 
ATOM     24  C   UNL     1      -5.111  -2.815 123.662  0.00  0.00    +0.000 C 
ENDBRANCH   4  23
TORSDOF 2
ENDMDL
MODEL 4
REMARK VINA RESULT:      -7.4      2.926      4.970
REMARK  Name = Tibolone
REMARK  4 active torsions:
REMARK  status: ('A' for Active; 'I' for Inactive)
REMARK    1  A    between atoms: C_5  and  O_6
REMARK    2  A    between atoms: C_5  and  C_7
REMARK    3  A    between atoms: C_9  and  C_10
REMARK    4  A    between atoms: C_23  and  C_25
REMARK                            x       y       z     vdW  Elec       q    Type
REMARK                         _______ _______ _______ _____ _____    ______ ____
ROOT
ATOM      1  C   UNL     1      -8.773  -2.171 124.602  0.00  0.00    +0.000 C 
ATOM      2  C   UNL     1      -9.047  -2.648 123.293  0.00  0.00    +0.000 C 
ATOM      3  C   UNL     1      -7.703  -2.112 123.623  0.00  0.00    +0.000 C 
ATOM      4  C   UNL     1      -7.290  -2.191 125.671  0.00  0.00    +0.000 C 
ATOM      5  C   UNL     1      -7.048  -3.021 124.624  0.00  0.00    +0.000 C 
ATOM      6  C   UNL     1      -7.031  -4.496 124.573  0.00  0.00    +0.000 C 
ATOM      7  C   UNL     1      -5.593  -1.994 124.224  0.00  0.00    +0.000 C 
ATOM      8  C   UNL     1      -5.826  -0.432 124.675  0.00  0.00    +0.000 C 
ATOM      9  C   UNL     1      -7.187   0.296 124.279  0.00  0.00    +0.000 C 
ATOM     10  C   UNL     1      -7.267   1.755 124.583  0.00  0.00    +0.000 C 
ATOM     11  C   UNL     1      -8.452   2.376 124.784  0.00  0.00    +0.000 C 
ATOM     12  C   UNL     1      -8.524   3.843 125.084  0.00  0.00    +0.000 C 
ATOM     13  C   UNL     1      -7.136   4.369 125.378  0.00  0.00    +0.000 C 
ATOM     14  O   UNL     1      -6.880   5.080 126.347  0.00  0.00    +0.000 OA
ATOM     15  C   UNL     1      -6.088   3.954 124.385  0.00  0.00    +0.000 C 
ATOM     16  C   UNL     1      -5.939   2.463 124.528  0.00  0.00    +0.000 C 
ATOM     17  C   UNL     1      -9.810   1.691 124.747  0.00  0.00    +0.000 C 
ATOM     18  C   UNL     1      -9.792   0.282 124.165  0.00  0.00    +0.000 C 
ATOM     19  C   UNL     1      -9.780   0.362 122.626  0.00  0.00    +0.000 C 
ATOM     20  C   UNL     1      -8.588  -0.404 124.798  0.00  0.00    +0.000 C 
ENDROOT
BRANCH   4  21
ATOM     21  O   UNL     1      -6.114  -2.693 126.411  0.00  0.00    +0.000 OA
ATOM     22  H   UNL     1      -5.309  -2.941 125.944  0.00  0.00    +0.000 HD
ENDBRANCH   4  21
BRANCH   4  23
ATOM     23  C   UNL     1      -8.265  -2.899 126.729  0.00  0.00    +0.000 C 
ATOM     24  C   UNL     1      -8.936  -3.487 127.568  0.00  0.00    +0.000 C 
ENDBRANCH   4  23
TORSDOF 2
ENDMDL
MODEL 5
REMARK VINA RESULT:      -7.3      8.912     11.256
REMARK  Name = Tibolone
REMARK  4 active torsions:
REMARK  status: ('A' for Active; 'I' for Inactive)
REMARK    1  A    between atoms: C_5  and  O_6
REMARK    2  A    between atoms: C_5  and  C_7
REMARK    3  A    between atoms: C_9  and  C_10
REMARK    4  A    between atoms: C_23  and  C_25
REMARK                            x       y       z     vdW  Elec       q    Type
REMARK                         _______ _______ _______ _____ _____    ______ ____
ROOT
ATOM      1  C   UNL     1      -3.495   4.287 130.315  0.00  0.00    +0.000 C 
ATOM      2  C   UNL     1      -4.413   3.509 131.069  0.00  0.00    +0.000 C 
ATOM      3  C   UNL     1      -4.643   4.964 130.886  0.00  0.00    +0.000 C 
ATOM      4  C   UNL     1      -3.671   5.724 129.199  0.00  0.00    +0.000 C 
ATOM      5  C   UNL     1      -4.916   5.236 129.434  0.00  0.00    +0.000 C 
ATOM      6  C   UNL     1      -5.802   4.447 128.557  0.00  0.00    +0.000 C 
ATOM      7  C   UNL     1      -5.370   6.879 130.090  0.00  0.00    +0.000 C 
ATOM      8  C   UNL     1      -4.072   7.631 130.760  0.00  0.00    +0.000 C 
ATOM      9  C   UNL     1      -3.147   6.825 131.777  0.00  0.00    +0.000 C 
ATOM     10  C   UNL     1      -2.082   7.613 132.465  0.00  0.00    +0.000 C 
ATOM     11  C   UNL     1      -0.953   7.030 132.928  0.00  0.00    +0.000 C 
ATOM     12  C   UNL     1       0.111   7.827 133.622  0.00  0.00    +0.000 C 
ATOM     13  C   UNL     1      -0.172   9.304 133.452  0.00  0.00    +0.000 C 
ATOM     14  O   UNL     1       0.684  10.114 133.105  0.00  0.00    +0.000 OA
ATOM     15  C   UNL     1      -1.589   9.706 133.746  0.00  0.00    +0.000 C 
ATOM     16  C   UNL     1      -2.439   9.060 132.685  0.00  0.00    +0.000 C 
ATOM     17  C   UNL     1      -0.622   5.550 132.798  0.00  0.00    +0.000 C 
ATOM     18  C   UNL     1      -1.794   4.676 132.364  0.00  0.00    +0.000 C 
ATOM     19  C   UNL     1      -2.690   4.377 133.582  0.00  0.00    +0.000 C 
ATOM     20  C   UNL     1      -2.463   5.430 131.224  0.00  0.00    +0.000 C 
ENDROOT
BRANCH   4  21
ATOM     21  O   UNL     1      -4.154   6.578 128.095  0.00  0.00    +0.000 OA
ATOM     22  H   UNL     1      -3.540   6.928 127.439  0.00  0.00    +0.000 HD
ENDBRANCH   4  21
BRANCH   4  23
ATOM     23  C   UNL     1      -2.898   4.792 128.147  0.00  0.00    +0.000 C 
ATOM     24  C   UNL     1      -2.376   4.099 127.283  0.00  0.00    +0.000 C 
ENDBRANCH   4  23
TORSDOF 2
ENDMDL
MODEL 6
REMARK VINA RESULT:      -7.2      6.592      9.527
REMARK  Name = Tibolone
REMARK  4 active torsions:
REMARK  status: ('A' for Active; 'I' for Inactive)
REMARK    1  A    between atoms: C_5  and  O_6
REMARK    2  A    between atoms: C_5  and  C_7
REMARK    3  A    between atoms: C_9  and  C_10
REMARK    4  A    between atoms: C_23  and  C_25
REMARK                            x       y       z     vdW  Elec       q    Type
REMARK                         _______ _______ _______ _____ _____    ______ ____
ROOT
ATOM      1  C   UNL     1      -7.080   2.997 132.534  0.00  0.00    +0.000 C 
ATOM      2  C   UNL     1      -7.208   2.980 133.948  0.00  0.00    +0.000 C 
ATOM      3  C   UNL     1      -8.352   2.578 133.092  0.00  0.00    +0.000 C 
ATOM      4  C   UNL     1      -7.750   1.953 131.190  0.00  0.00    +0.000 C 
ATOM      5  C   UNL     1      -7.995   1.314 132.362  0.00  0.00    +0.000 C 
ATOM      6  C   UNL     1      -7.334   0.133 132.950  0.00  0.00    +0.000 C 
ATOM      7  C   UNL     1      -9.772   1.356 131.943  0.00  0.00    +0.000 C 
ATOM      8  C   UNL     1     -10.136   2.669 131.026  0.00  0.00    +0.000 C 
ATOM      9  C   UNL     1      -9.603   4.102 131.476  0.00  0.00    +0.000 C 
ATOM     10  C   UNL     1     -10.100   5.268 130.687  0.00  0.00    +0.000 C 
ATOM     11  C   UNL     1      -9.395   6.419 130.599  0.00  0.00    +0.000 C 
ATOM     12  C   UNL     1      -9.902   7.587 129.808  0.00  0.00    +0.000 C 
ATOM     13  C   UNL     1     -11.091   7.157 128.975  0.00  0.00    +0.000 C 
ATOM     14  O   UNL     1     -11.206   7.425 127.782  0.00  0.00    +0.000 OA
ATOM     15  C   UNL     1     -12.129   6.375 129.729  0.00  0.00    +0.000 C 
ATOM     16  C   UNL     1     -11.478   5.073 130.113  0.00  0.00    +0.000 C 
ATOM     17  C   UNL     1      -8.043   6.664 131.254  0.00  0.00    +0.000 C 
ATOM     18  C   UNL     1      -7.643   5.618 132.288  0.00  0.00    +0.000 C 
ATOM     19  C   UNL     1      -8.353   5.917 133.623  0.00  0.00    +0.000 C 
ATOM     20  C   UNL     1      -7.972   4.273 131.654  0.00  0.00    +0.000 C 
ENDROOT
BRANCH   4  21
ATOM     21  O   UNL     1      -8.097   0.755 130.400  0.00  0.00    +0.000 OA
ATOM     22  H   UNL     1      -7.701  -0.100 130.604  0.00  0.00    +0.000 HD
ENDBRANCH   4  21
BRANCH   4  23
ATOM     23  C   UNL     1      -6.209   1.786 130.777  0.00  0.00    +0.000 C 
ATOM     24  C   UNL     1      -5.062   1.633 130.377  0.00  0.00    +0.000 C 
ENDBRANCH   4  23
TORSDOF 2
ENDMDL
MODEL 7
REMARK VINA RESULT:      -7.2      2.096      6.375
REMARK  Name = Tibolone
REMARK  4 active torsions:
REMARK  status: ('A' for Active; 'I' for Inactive)
REMARK    1  A    between atoms: C_5  and  O_6
REMARK    2  A    between atoms: C_5  and  C_7
REMARK    3  A    between atoms: C_9  and  C_10
REMARK    4  A    between atoms: C_23  and  C_25
REMARK                            x       y       z     vdW  Elec       q    Type
REMARK                         _______ _______ _______ _____ _____    ______ ____
ROOT
ATOM      1  C   UNL     1      -7.299  -0.678 131.132  0.00  0.00    +0.000 C 
ATOM      2  C   UNL     1      -6.152  -1.199 131.786  0.00  0.00    +0.000 C 
ATOM      3  C   UNL     1      -6.003  -0.422 130.530  0.00  0.00    +0.000 C 
ATOM      4  C   UNL     1      -7.628   0.845 130.176  0.00  0.00    +0.000 C 
ATOM      5  C   UNL     1      -6.423   0.998 130.784  0.00  0.00    +0.000 C 
ATOM      6  C   UNL     1      -6.055   1.814 131.957  0.00  0.00    +0.000 C 
ATOM      7  C   UNL     1      -5.688   1.242 129.130  0.00  0.00    +0.000 C 
ATOM      8  C   UNL     1      -6.519   0.411 127.982  0.00  0.00    +0.000 C 
ATOM      9  C   UNL     1      -6.888  -1.117 128.243  0.00  0.00    +0.000 C 
ATOM     10  C   UNL     1      -7.502  -1.851 127.098  0.00  0.00    +0.000 C 
ATOM     11  C   UNL     1      -8.303  -2.925 127.290  0.00  0.00    +0.000 C 
ATOM     12  C   UNL     1      -8.914  -3.660 126.135  0.00  0.00    +0.000 C 
ATOM     13  C   UNL     1      -8.713  -2.863 124.864  0.00  0.00    +0.000 C 
ATOM     14  O   UNL     1      -9.617  -2.642 124.062  0.00  0.00    +0.000 OA
ATOM     15  C   UNL     1      -7.312  -2.363 124.656  0.00  0.00    +0.000 C 
ATOM     16  C   UNL     1      -7.058  -1.358 125.747  0.00  0.00    +0.000 C 
ATOM     17  C   UNL     1      -8.685  -3.494 128.649  0.00  0.00    +0.000 C 
ATOM     18  C   UNL     1      -7.860  -2.957 129.813  0.00  0.00    +0.000 C 
ATOM     19  C   UNL     1      -6.510  -3.699 129.872  0.00  0.00    +0.000 C 
ATOM     20  C   UNL     1      -7.775  -1.453 129.592  0.00  0.00    +0.000 C 
ENDROOT
BRANCH   4  21
ATOM     21  O   UNL     1      -7.689   2.276 129.816  0.00  0.00    +0.000 OA
ATOM     22  H   UNL     1      -7.034   2.663 129.224  0.00  0.00    +0.000 HD
ENDBRANCH   4  21
BRANCH   4  23
ATOM     23  C   UNL     1      -8.815   1.055 131.234  0.00  0.00    +0.000 C 
ATOM     24  C   UNL     1      -9.754   1.281 131.986  0.00  0.00    +0.000 C 
ENDBRANCH   4  23
TORSDOF 2
ENDMDL
MODEL 8
REMARK VINA RESULT:      -7.2      1.831      6.146
REMARK  Name = Tibolone
REMARK  4 active torsions:
REMARK  status: ('A' for Active; 'I' for Inactive)
REMARK    1  A    between atoms: C_5  and  O_6
REMARK    2  A    between atoms: C_5  and  C_7
REMARK    3  A    between atoms: C_9  and  C_10
REMARK    4  A    between atoms: C_23  and  C_25
REMARK                            x       y       z     vdW  Elec       q    Type
REMARK                         _______ _______ _______ _____ _____    ______ ____
ROOT
ATOM      1  C   UNL     1      -6.759  -0.791 129.761  0.00  0.00    +0.000 C 
ATOM      2  C   UNL     1      -7.802  -0.113 130.445  0.00  0.00    +0.000 C 
ATOM      3  C   UNL     1      -8.084  -1.379 129.721  0.00  0.00    +0.000 C 
ATOM      4  C   UNL     1      -6.374  -2.554 129.465  0.00  0.00    +0.000 C 
ATOM      5  C   UNL     1      -7.356  -2.502 130.402  0.00  0.00    +0.000 C 
ATOM      6  C   UNL     1      -7.283  -2.731 131.858  0.00  0.00    +0.000 C 
ATOM      7  C   UNL     1      -8.391  -3.511 129.286  0.00  0.00    +0.000 C 
ATOM      8  C   UNL     1      -8.019  -3.225 127.711  0.00  0.00    +0.000 C 
ATOM      9  C   UNL     1      -7.897  -1.720 127.203  0.00  0.00    +0.000 C 
ATOM     10  C   UNL     1      -7.713  -1.534 125.733  0.00  0.00    +0.000 C 
ATOM     11  C   UNL     1      -7.108  -0.436 125.225  0.00  0.00    +0.000 C 
ATOM     12  C   UNL     1      -6.930  -0.254 123.748  0.00  0.00    +0.000 C 
ATOM     13  C   UNL     1      -7.262  -1.547 123.035  0.00  0.00    +0.000 C 
ATOM     14  O   UNL     1      -6.541  -2.039 122.171  0.00  0.00    +0.000 OA
ATOM     15  C   UNL     1      -8.552  -2.184 123.467  0.00  0.00    +0.000 C 
ATOM     16  C   UNL     1      -8.354  -2.610 124.896  0.00  0.00    +0.000 C 
ATOM     17  C   UNL     1      -6.540   0.706 126.056  0.00  0.00    +0.000 C 
ATOM     18  C   UNL     1      -6.958   0.691 127.522  0.00  0.00    +0.000 C 
ATOM     19  C   UNL     1      -8.374   1.284 127.659  0.00  0.00    +0.000 C 
ATOM     20  C   UNL     1      -6.804  -0.755 127.974  0.00  0.00    +0.000 C 
ENDROOT
BRANCH   4  21
ATOM     21  O   UNL     1      -6.126  -3.987 129.724  0.00  0.00    +0.000 OA
ATOM     22  H   UNL     1      -6.777  -4.651 129.470  0.00  0.00    +0.000 HD
ENDBRANCH   4  21
BRANCH   4  23
ATOM     23  C   UNL     1      -4.959  -2.184 130.122  0.00  0.00    +0.000 C 
ATOM     24  C   UNL     1      -3.838  -1.959 130.561  0.00  0.00    +0.000 C 
ENDBRANCH   4  23
TORSDOF 2
ENDMDL
MODEL 9
REMARK VINA RESULT:      -7.1      2.461      3.692
REMARK  Name = Tibolone
REMARK  4 active torsions:
REMARK  status: ('A' for Active; 'I' for Inactive)
REMARK    1  A    between atoms: C_5  and  O_6
REMARK    2  A    between atoms: C_5  and  C_7
REMARK    3  A    between atoms: C_9  and  C_10
REMARK    4  A    between atoms: C_23  and  C_25
REMARK                            x       y       z     vdW  Elec       q    Type
REMARK                         _______ _______ _______ _____ _____    ______ ____
ROOT
ATOM      1  C   UNL     1      -7.843  -0.463 123.310  0.00  0.00    +0.000 C 
ATOM      2  C   UNL     1      -8.692  -1.413 122.683  0.00  0.00    +0.000 C 
ATOM      3  C   UNL     1      -9.096  -0.786 123.967  0.00  0.00    +0.000 C 
ATOM      4  C   UNL     1      -8.143   1.045 124.299  0.00  0.00    +0.000 C 
ATOM      5  C   UNL     1      -9.326   0.681 123.741  0.00  0.00    +0.000 C 
ATOM      6  C   UNL     1     -10.059   1.278 122.608  0.00  0.00    +0.000 C 
ATOM      7  C   UNL     1     -10.018   0.572 125.428  0.00  0.00    +0.000 C 
ATOM      8  C   UNL     1      -8.862   0.157 126.518  0.00  0.00    +0.000 C 
ATOM      9  C   UNL     1      -7.895  -1.069 126.197  0.00  0.00    +0.000 C 
ATOM     10  C   UNL     1      -6.975  -1.487 127.296  0.00  0.00    +0.000 C 
ATOM     11  C   UNL     1      -5.806  -2.119 127.042  0.00  0.00    +0.000 C 
ATOM     12  C   UNL     1      -4.889  -2.540 128.150  0.00  0.00    +0.000 C 
ATOM     13  C   UNL     1      -5.348  -1.918 129.452  0.00  0.00    +0.000 C 
ATOM     14  O   UNL     1      -4.585  -1.345 130.225  0.00  0.00    +0.000 OA
ATOM     15  C   UNL     1      -6.818  -2.060 129.727  0.00  0.00    +0.000 C 
ATOM     16  C   UNL     1      -7.523  -1.244 128.677  0.00  0.00    +0.000 C 
ATOM     17  C   UNL     1      -5.284  -2.458 125.653  0.00  0.00    +0.000 C 
ATOM     18  C   UNL     1      -6.311  -2.306 124.537  0.00  0.00    +0.000 C 
ATOM     19  C   UNL     1      -7.223  -3.549 124.507  0.00  0.00    +0.000 C 
ATOM     20  C   UNL     1      -7.013  -0.982 124.806  0.00  0.00    +0.000 C 
ENDROOT
BRANCH   4  21
ATOM     21  O   UNL     1      -8.674   2.364 124.699  0.00  0.00    +0.000 OA
ATOM     22  H   UNL     1      -8.357   3.170 124.277  0.00  0.00    +0.000 HD
ENDBRANCH   4  21
BRANCH   4  23
ATOM     23  C   UNL     1      -7.206   1.749 123.204  0.00  0.00    +0.000 C 
ATOM     24  C   UNL     1      -6.514   2.368 122.405  0.00  0.00    +0.000 C 
ENDBRANCH   4  23
TORSDOF 2
ENDMDL
