MODEL 1
REMARK VINA RESULT:      -7.1      0.000      0.000
REMARK  Name = Ticarcillin
REMARK  9 active torsions:
REMARK  status: ('A' for Active; 'I' for Inactive)
REMARK    1  A    between atoms: C_4  and  C_5
REMARK    2  A    between atoms: C_4  and  C_6
REMARK    3  A    between atoms: CA_7  and  C_24
REMARK    4  A    between atoms: CA_11  and  N_12
REMARK    5  A    between atoms: C_13  and  C_15
REMARK    6  A    between atoms: C_15  and  C_16
REMARK    7  A    between atoms: C_15  and  C_19
REMARK    8  A    between atoms: C_16  and  O_17
REMARK    9  A    between atoms: C_24  and  O_25
REMARK                            x       y       z     vdW  Elec       q    Type
REMARK                         _______ _______ _______ _____ _____    ______ ____
ROOT
ATOM      1  C   UNL     1      -6.227   3.083 127.166  0.00  0.00    +0.000 C 
ATOM      2  S   UNL     1      -4.916   1.957 126.578  0.00  0.00    +0.000 S 
ATOM      3  C   UNL     1      -3.595   3.114 127.234  0.00  0.00    +0.000 C 
ATOM      4  C   UNL     1      -2.318   2.811 126.447  0.00  0.00    +0.000 C 
ATOM      5  C   UNL     1      -3.461   2.768 128.730  0.00  0.00    +0.000 C 
ATOM      6  CA  UNL     1      -4.155   4.522 126.926  0.00  0.00    +0.000 C 
ATOM      7  N   UNL     1      -5.624   4.425 127.070  0.00  0.00    +0.000 N 
ATOM      8  C   UNL     1      -6.463   4.816 126.054  0.00  0.00    +0.000 C 
ATOM      9  O   UNL     1      -6.388   5.751 125.282  0.00  0.00    +0.000 OA
ATOM     10  CA  UNL     1      -7.316   3.521 126.173  0.00  0.00    +0.000 C 
ENDROOT
BRANCH  10  11
ATOM     11  N   UNL     1      -7.503   2.698 124.932  0.00  0.00    +0.000 N 
ATOM     12  C   UNL     1      -8.535   1.781 124.881  0.00  0.00    +0.000 C 
ATOM     13  O   UNL     1      -9.273   1.615 125.854  0.00  0.00    +0.000 OA
ATOM     14  H   UNL     1      -6.911   2.865 124.123  0.00  0.00    +0.000 HD
BRANCH  12  15
ATOM     15  C   UNL     1      -8.670   0.936 123.616  0.00  0.00    +0.000 C 
BRANCH  15  16
ATOM     16  C   UNL     1      -7.988  -0.414 123.789  0.00  0.00    +0.000 A 
ATOM     17  C   UNL     1      -8.432  -1.433 124.613  0.00  0.00    +0.000 A 
ATOM     18  S   UNL     1      -7.384  -2.790 124.609  0.00  0.00    +0.000 S 
ATOM     19  C   UNL     1      -6.324  -2.045 123.501  0.00  0.00    +0.000 A 
ATOM     20  C   UNL     1      -6.763  -0.796 123.138  0.00  0.00    +0.000 A 
ENDBRANCH  15  16
BRANCH  15  21
ATOM     21  C   UNL     1     -10.133   0.812 123.217  0.00  0.00    +0.000 C 
ATOM     22  O   UNL     1     -10.481   0.133 122.255  0.00  0.00    +0.000 OA
BRANCH  21  23
ATOM     23  O   UNL     1     -11.055   1.476 123.952  0.00  0.00    +0.000 OA
ATOM     24  H   UNL     1     -10.729   1.990 124.713  0.00  0.00    +0.000 HD
ENDBRANCH  21  23
ENDBRANCH  15  21
ENDBRANCH  12  15
ENDBRANCH  10  11
BRANCH   6  25
ATOM     25  C   UNL     1      -3.600   5.746 127.698  0.00  0.00    +0.000 C 
ATOM     26  OXT UNL     1      -4.327   6.601 128.192  0.00  0.00    +0.000 OA
BRANCH  25  27
ATOM     27  O   UNL     1      -2.266   5.903 127.813  0.00  0.00    +0.000 OA
ATOM     28  H   UNL     1      -1.846   6.015 128.679  0.00  0.00    +0.000 HD
ENDBRANCH  25  27
ENDBRANCH   6  25
TORSDOF 7
ENDMDL
MODEL 2
REMARK VINA RESULT:      -7.0      3.172      7.143
REMARK  Name = Ticarcillin
REMARK  9 active torsions:
REMARK  status: ('A' for Active; 'I' for Inactive)
REMARK    1  A    between atoms: C_4  and  C_5
REMARK    2  A    between atoms: C_4  and  C_6
REMARK    3  A    between atoms: CA_7  and  C_24
REMARK    4  A    between atoms: CA_11  and  N_12
REMARK    5  A    between atoms: C_13  and  C_15
REMARK    6  A    between atoms: C_15  and  C_16
REMARK    7  A    between atoms: C_15  and  C_19
REMARK    8  A    between atoms: C_16  and  O_17
REMARK    9  A    between atoms: C_24  and  O_25
REMARK                            x       y       z     vdW  Elec       q    Type
REMARK                         _______ _______ _______ _____ _____    ______ ____
ROOT
ATOM      1  C   UNL     1      -8.944  -0.325 124.237  0.00  0.00    +0.000 C 
ATOM      2  S   UNL     1      -7.604  -1.206 123.365  0.00  0.00    +0.000 S 
ATOM      3  C   UNL     1      -8.073  -2.810 124.215  0.00  0.00    +0.000 C 
ATOM      4  C   UNL     1      -6.829  -3.701 124.184  0.00  0.00    +0.000 C 
ATOM      5  C   UNL     1      -9.231  -3.387 123.378  0.00  0.00    +0.000 C 
ATOM      6  CA  UNL     1      -8.445  -2.369 125.650  0.00  0.00    +0.000 C 
ATOM      7  N   UNL     1      -9.066  -1.032 125.525  0.00  0.00    +0.000 N 
ATOM      8  C   UNL     1      -8.596   0.038 126.248  0.00  0.00    +0.000 C 
ATOM      9  O   UNL     1      -8.184   0.102 127.388  0.00  0.00    +0.000 OA
ATOM     10  CA  UNL     1      -8.598   0.965 124.999  0.00  0.00    +0.000 C 
ENDROOT
BRANCH  10  11
ATOM     11  N   UNL     1      -7.314   1.660 124.650  0.00  0.00    +0.000 N 
ATOM     12  C   UNL     1      -7.239   3.035 124.767  0.00  0.00    +0.000 C 
ATOM     13  O   UNL     1      -8.223   3.687 125.120  0.00  0.00    +0.000 OA
ATOM     14  H   UNL     1      -6.499   1.112 124.392  0.00  0.00    +0.000 HD
BRANCH  12  15
ATOM     15  C   UNL     1      -5.928   3.709 124.367  0.00  0.00    +0.000 C 
BRANCH  15  16
ATOM     16  C   UNL     1      -5.886   3.969 122.868  0.00  0.00    +0.000 A 
ATOM     17  C   UNL     1      -6.849   3.565 121.960  0.00  0.00    +0.000 A 
ATOM     18  S   UNL     1      -6.448   3.974 120.345  0.00  0.00    +0.000 S 
ATOM     19  C   UNL     1      -4.985   4.704 120.829  0.00  0.00    +0.000 A 
ATOM     20  C   UNL     1      -4.812   4.644 122.189  0.00  0.00    +0.000 A 
ENDBRANCH  15  16
BRANCH  15  21
ATOM     21  C   UNL     1      -5.709   4.969 125.192  0.00  0.00    +0.000 C 
ATOM     22  O   UNL     1      -4.893   5.003 126.107  0.00  0.00    +0.000 OA
BRANCH  21  23
ATOM     23  O   UNL     1      -6.444   6.065 124.893  0.00  0.00    +0.000 OA
ATOM     24  H   UNL     1      -7.394   6.034 125.112  0.00  0.00    +0.000 HD
ENDBRANCH  21  23
ENDBRANCH  15  21
ENDBRANCH  12  15
ENDBRANCH  10  11
BRANCH   6  25
ATOM     25  C   UNL     1      -9.311  -3.304 126.531  0.00  0.00    +0.000 C 
ATOM     26  OXT UNL     1      -8.835  -4.001 127.421  0.00  0.00    +0.000 OA
BRANCH  25  27
ATOM     27  O   UNL     1     -10.638  -3.385 126.302  0.00  0.00    +0.000 OA
ATOM     28  H   UNL     1     -11.258  -2.766 126.714  0.00  0.00    +0.000 HD
ENDBRANCH  25  27
ENDBRANCH   6  25
TORSDOF 7
ENDMDL
MODEL 3
REMARK VINA RESULT:      -6.9      4.604      7.534
REMARK  Name = Ticarcillin
REMARK  9 active torsions:
REMARK  status: ('A' for Active; 'I' for Inactive)
REMARK    1  A    between atoms: C_4  and  C_5
REMARK    2  A    between atoms: C_4  and  C_6
REMARK    3  A    between atoms: CA_7  and  C_24
REMARK    4  A    between atoms: CA_11  and  N_12
REMARK    5  A    between atoms: C_13  and  C_15
REMARK    6  A    between atoms: C_15  and  C_16
REMARK    7  A    between atoms: C_15  and  C_19
REMARK    8  A    between atoms: C_16  and  O_17
REMARK    9  A    between atoms: C_24  and  O_25
REMARK                            x       y       z     vdW  Elec       q    Type
REMARK                         _______ _______ _______ _____ _____    ______ ____
ROOT
ATOM      1  C   UNL     1      -7.269   2.933 127.011  0.00  0.00    +0.000 C 
ATOM      2  S   UNL     1      -8.422   1.523 127.145  0.00  0.00    +0.000 S 
ATOM      3  C   UNL     1      -8.505   1.384 125.277  0.00  0.00    +0.000 C 
ATOM      4  C   UNL     1      -9.818   0.668 124.950  0.00  0.00    +0.000 C 
ATOM      5  C   UNL     1      -7.268   0.558 124.878  0.00  0.00    +0.000 C 
ATOM      6  CA  UNL     1      -8.504   2.856 124.799  0.00  0.00    +0.000 C 
ATOM      7  N   UNL     1      -7.655   3.601 125.755  0.00  0.00    +0.000 N 
ATOM      8  C   UNL     1      -8.128   4.718 126.400  0.00  0.00    +0.000 C 
ATOM      9  O   UNL     1      -8.841   5.618 126.005  0.00  0.00    +0.000 OA
ATOM     10  CA  UNL     1      -7.600   4.225 127.777  0.00  0.00    +0.000 C 
ENDROOT
BRANCH  10  11
ATOM     11  N   UNL     1      -8.585   4.135 128.906  0.00  0.00    +0.000 N 
ATOM     12  C   UNL     1      -8.629   5.150 129.844  0.00  0.00    +0.000 C 
ATOM     13  O   UNL     1      -7.847   6.100 129.775  0.00  0.00    +0.000 OA
ATOM     14  H   UNL     1      -9.247   3.366 128.937  0.00  0.00    +0.000 HD
BRANCH  12  15
ATOM     15  C   UNL     1      -9.619   5.005 130.997  0.00  0.00    +0.000 C 
BRANCH  15  16
ATOM     16  C   UNL     1     -10.841   5.887 130.778  0.00  0.00    +0.000 A 
ATOM     17  C   UNL     1     -11.344   6.263 129.545  0.00  0.00    +0.000 A 
ATOM     18  S   UNL     1     -12.693   7.312 129.673  0.00  0.00    +0.000 S 
ATOM     19  C   UNL     1     -12.636   7.276 131.377  0.00  0.00    +0.000 A 
ATOM     20  C   UNL     1     -11.618   6.478 131.835  0.00  0.00    +0.000 A 
ENDBRANCH  15  16
BRANCH  15  21
ATOM     21  C   UNL     1      -9.978   3.540 131.205  0.00  0.00    +0.000 C 
ATOM     22  O   UNL     1      -9.190   2.755 131.723  0.00  0.00    +0.000 OA
BRANCH  21  23
ATOM     23  O   UNL     1     -11.197   3.116 130.799  0.00  0.00    +0.000 OA
ATOM     24  H   UNL     1     -11.336   2.152 130.747  0.00  0.00    +0.000 HD
ENDBRANCH  21  23
ENDBRANCH  15  21
ENDBRANCH  12  15
ENDBRANCH  10  11
BRANCH   6  25
ATOM     25  C   UNL     1      -8.109   3.178 123.336  0.00  0.00    +0.000 C 
ATOM     26  OXT UNL     1      -8.786   2.826 122.376  0.00  0.00    +0.000 OA
BRANCH  25  27
ATOM     27  O   UNL     1      -6.964   3.849 123.094  0.00  0.00    +0.000 OA
ATOM     28  H   UNL     1      -6.128   3.579 123.501  0.00  0.00    +0.000 HD
ENDBRANCH  25  27
ENDBRANCH   6  25
TORSDOF 7
ENDMDL
MODEL 4
REMARK VINA RESULT:      -6.9      2.666      6.891
REMARK  Name = Ticarcillin
REMARK  9 active torsions:
REMARK  status: ('A' for Active; 'I' for Inactive)
REMARK    1  A    between atoms: C_4  and  C_5
REMARK    2  A    between atoms: C_4  and  C_6
REMARK    3  A    between atoms: CA_7  and  C_24
REMARK    4  A    between atoms: CA_11  and  N_12
REMARK    5  A    between atoms: C_13  and  C_15
REMARK    6  A    between atoms: C_15  and  C_16
REMARK    7  A    between atoms: C_15  and  C_19
REMARK    8  A    between atoms: C_16  and  O_17
REMARK    9  A    between atoms: C_24  and  O_25
REMARK                            x       y       z     vdW  Elec       q    Type
REMARK                         _______ _______ _______ _____ _____    ______ ____
ROOT
ATOM      1  C   UNL     1      -8.930   0.231 124.364  0.00  0.00    +0.000 C 
ATOM      2  S   UNL     1      -7.506  -0.442 123.440  0.00  0.00    +0.000 S 
ATOM      3  C   UNL     1      -7.863  -2.161 124.095  0.00  0.00    +0.000 C 
ATOM      4  C   UNL     1      -6.552  -2.945 124.004  0.00  0.00    +0.000 C 
ATOM      5  C   UNL     1      -8.954  -2.728 123.167  0.00  0.00    +0.000 C 
ATOM      6  CA  UNL     1      -8.299  -1.913 125.558  0.00  0.00    +0.000 C 
ATOM      7  N   UNL     1      -9.022  -0.622 125.563  0.00  0.00    +0.000 N 
ATOM      8  C   UNL     1      -8.653   0.393 126.412  0.00  0.00    +0.000 C 
ATOM      9  O   UNL     1      -8.271   0.361 127.564  0.00  0.00    +0.000 OA
ATOM     10  CA  UNL     1      -8.703   1.451 125.273  0.00  0.00    +0.000 C 
ENDROOT
BRANCH  10  11
ATOM     11  N   UNL     1      -7.472   2.277 125.040  0.00  0.00    +0.000 N 
ATOM     12  C   UNL     1      -7.585   3.653 124.980  0.00  0.00    +0.000 C 
ATOM     13  O   UNL     1      -8.687   4.195 125.082  0.00  0.00    +0.000 OA
ATOM     14  H   UNL     1      -6.563   1.825 124.990  0.00  0.00    +0.000 HD
BRANCH  12  15
ATOM     15  C   UNL     1      -6.316   4.456 124.705  0.00  0.00    +0.000 C 
BRANCH  15  16
ATOM     16  C   UNL     1      -5.262   4.188 125.770  0.00  0.00    +0.000 A 
ATOM     17  C   UNL     1      -5.016   4.991 126.870  0.00  0.00    +0.000 A 
ATOM     18  S   UNL     1      -3.715   4.420 127.828  0.00  0.00    +0.000 S 
ATOM     19  C   UNL     1      -3.462   3.086 126.797  0.00  0.00    +0.000 A 
ATOM     20  C   UNL     1      -4.353   3.073 125.753  0.00  0.00    +0.000 A 
ENDBRANCH  15  16
BRANCH  15  21
ATOM     21  C   UNL     1      -5.813   4.183 123.294  0.00  0.00    +0.000 C 
ATOM     22  O   UNL     1      -5.004   4.926 122.747  0.00  0.00    +0.000 OA
BRANCH  21  23
ATOM     23  O   UNL     1      -6.284   3.092 122.647  0.00  0.00    +0.000 OA
ATOM     24  H   UNL     1      -6.741   3.243 121.799  0.00  0.00    +0.000 HD
ENDBRANCH  21  23
ENDBRANCH  15  21
ENDBRANCH  12  15
ENDBRANCH  10  11
BRANCH   6  25
ATOM     25  C   UNL     1      -9.105  -3.005 126.307  0.00  0.00    +0.000 C 
ATOM     26  OXT UNL     1      -8.595  -3.756 127.130  0.00  0.00    +0.000 OA
BRANCH  25  27
ATOM     27  O   UNL     1     -10.416  -3.164 126.029  0.00  0.00    +0.000 OA
ATOM     28  H   UNL     1     -10.730  -3.239 125.116  0.00  0.00    +0.000 HD
ENDBRANCH  25  27
ENDBRANCH   6  25
TORSDOF 7
ENDMDL
MODEL 5
REMARK VINA RESULT:      -6.7      6.466      8.650
REMARK  Name = Ticarcillin
REMARK  9 active torsions:
REMARK  status: ('A' for Active; 'I' for Inactive)
REMARK    1  A    between atoms: C_4  and  C_5
REMARK    2  A    between atoms: C_4  and  C_6
REMARK    3  A    between atoms: CA_7  and  C_24
REMARK    4  A    between atoms: CA_11  and  N_12
REMARK    5  A    between atoms: C_13  and  C_15
REMARK    6  A    between atoms: C_15  and  C_16
REMARK    7  A    between atoms: C_15  and  C_19
REMARK    8  A    between atoms: C_16  and  O_17
REMARK    9  A    between atoms: C_24  and  O_25
REMARK                            x       y       z     vdW  Elec       q    Type
REMARK                         _______ _______ _______ _____ _____    ______ ____
ROOT
ATOM      1  C   UNL     1      -7.543   2.685 130.753  0.00  0.00    +0.000 C 
ATOM      2  S   UNL     1      -6.772   3.698 132.062  0.00  0.00    +0.000 S 
ATOM      3  C   UNL     1      -6.119   2.156 132.904  0.00  0.00    +0.000 C 
ATOM      4  C   UNL     1      -5.879   2.527 134.369  0.00  0.00    +0.000 C 
ATOM      5  C   UNL     1      -4.814   1.812 132.162  0.00  0.00    +0.000 C 
ATOM      6  CA  UNL     1      -7.267   1.133 132.737  0.00  0.00    +0.000 C 
ATOM      7  N   UNL     1      -7.895   1.423 131.429  0.00  0.00    +0.000 N 
ATOM      8  C   UNL     1      -9.246   1.652 131.327  0.00  0.00    +0.000 C 
ATOM      9  O   UNL     1     -10.182   1.132 131.899  0.00  0.00    +0.000 OA
ATOM     10  CA  UNL     1      -9.030   2.908 130.435  0.00  0.00    +0.000 C 
ENDROOT
BRANCH  10  11
ATOM     11  N   UNL     1      -9.657   4.195 130.887  0.00  0.00    +0.000 N 
ATOM     12  C   UNL     1      -9.730   5.255 130.003  0.00  0.00    +0.000 C 
ATOM     13  O   UNL     1      -9.256   5.159 128.870  0.00  0.00    +0.000 OA
ATOM     14  H   UNL     1     -10.074   4.254 131.811  0.00  0.00    +0.000 HD
BRANCH  12  15
ATOM     15  C   UNL     1     -10.341   6.559 130.512  0.00  0.00    +0.000 C 
BRANCH  15  16
ATOM     16  C   UNL     1     -11.445   7.040 129.581  0.00  0.00    +0.000 A 
ATOM     17  C   UNL     1     -12.478   6.258 129.096  0.00  0.00    +0.000 A 
ATOM     18  S   UNL     1     -13.506   7.111 128.022  0.00  0.00    +0.000 S 
ATOM     19  C   UNL     1     -12.596   8.542 128.192  0.00  0.00    +0.000 A 
ATOM     20  C   UNL     1     -11.539   8.375 129.052  0.00  0.00    +0.000 A 
ENDBRANCH  15  16
BRANCH  15  21
ATOM     21  C   UNL     1     -10.810   6.397 131.950  0.00  0.00    +0.000 C 
ATOM     22  O   UNL     1     -10.044   6.553 132.896  0.00  0.00    +0.000 OA
BRANCH  21  23
ATOM     23  O   UNL     1     -12.105   6.071 132.169  0.00  0.00    +0.000 OA
ATOM     24  H   UNL     1     -12.780   6.629 131.740  0.00  0.00    +0.000 HD
ENDBRANCH  21  23
ENDBRANCH  15  21
ENDBRANCH  12  15
ENDBRANCH  10  11
BRANCH   6  25
ATOM     25  C   UNL     1      -6.965  -0.380 132.886  0.00  0.00    +0.000 C 
ATOM     26  OXT UNL     1      -6.862  -0.929 133.977  0.00  0.00    +0.000 OA
BRANCH  25  27
ATOM     27  O   UNL     1      -6.777  -1.126 131.778  0.00  0.00    +0.000 OA
ATOM     28  H   UNL     1      -7.029  -0.799 130.903  0.00  0.00    +0.000 HD
ENDBRANCH  25  27
ENDBRANCH   6  25
TORSDOF 7
ENDMDL
MODEL 6
REMARK VINA RESULT:      -6.6      5.019      7.068
REMARK  Name = Ticarcillin
REMARK  9 active torsions:
REMARK  status: ('A' for Active; 'I' for Inactive)
REMARK    1  A    between atoms: C_4  and  C_5
REMARK    2  A    between atoms: C_4  and  C_6
REMARK    3  A    between atoms: CA_7  and  C_24
REMARK    4  A    between atoms: CA_11  and  N_12
REMARK    5  A    between atoms: C_13  and  C_15
REMARK    6  A    between atoms: C_15  and  C_16
REMARK    7  A    between atoms: C_15  and  C_19
REMARK    8  A    between atoms: C_16  and  O_17
REMARK    9  A    between atoms: C_24  and  O_25
REMARK                            x       y       z     vdW  Elec       q    Type
REMARK                         _______ _______ _______ _____ _____    ______ ____
ROOT
ATOM      1  C   UNL     1      -5.313   4.386 130.552  0.00  0.00    +0.000 C 
ATOM      2  S   UNL     1      -5.758   3.662 128.935  0.00  0.00    +0.000 S 
ATOM      3  C   UNL     1      -4.218   4.394 128.157  0.00  0.00    +0.000 C 
ATOM      4  C   UNL     1      -4.492   4.493 126.654  0.00  0.00    +0.000 C 
ATOM      5  C   UNL     1      -3.088   3.399 128.486  0.00  0.00    +0.000 C 
ATOM      6  CA  UNL     1      -4.095   5.784 128.824  0.00  0.00    +0.000 C 
ATOM      7  N   UNL     1      -4.591   5.624 130.209  0.00  0.00    +0.000 N 
ATOM      8  C   UNL     1      -5.584   6.435 130.703  0.00  0.00    +0.000 C 
ATOM      9  O   UNL     1      -5.793   7.620 130.539  0.00  0.00    +0.000 OA
ATOM     10  CA  UNL     1      -6.366   5.227 131.292  0.00  0.00    +0.000 C 
ENDROOT
BRANCH  10  11
ATOM     11  N   UNL     1      -7.802   5.065 130.886  0.00  0.00    +0.000 N 
ATOM     12  C   UNL     1      -8.785   5.704 131.617  0.00  0.00    +0.000 C 
ATOM     13  O   UNL     1      -8.491   6.371 132.612  0.00  0.00    +0.000 OA
ATOM     14  H   UNL     1      -8.032   4.542 130.046  0.00  0.00    +0.000 HD
BRANCH  12  15
ATOM     15  C   UNL     1     -10.236   5.486 131.195  0.00  0.00    +0.000 C 
BRANCH  15  16
ATOM     16  C   UNL     1     -10.742   6.658 130.365  0.00  0.00    +0.000 A 
ATOM     17  C   UNL     1     -12.046   7.124 130.352  0.00  0.00    +0.000 A 
ATOM     18  S   UNL     1     -12.273   8.420 129.254  0.00  0.00    +0.000 S 
ATOM     19  C   UNL     1     -10.635   8.390 128.784  0.00  0.00    +0.000 A 
ATOM     20  C   UNL     1      -9.931   7.420 129.453  0.00  0.00    +0.000 A 
ENDBRANCH  15  16
BRANCH  15  21
ATOM     21  C   UNL     1     -10.384   4.150 130.481  0.00  0.00    +0.000 C 
ATOM     22  O   UNL     1      -9.881   3.953 129.379  0.00  0.00    +0.000 OA
BRANCH  21  23
ATOM     23  O   UNL     1     -11.091   3.173 131.093  0.00  0.00    +0.000 OA
ATOM     24  H   UNL     1     -11.974   2.972 130.731  0.00  0.00    +0.000 HD
ENDBRANCH  21  23
ENDBRANCH  15  21
ENDBRANCH  12  15
ENDBRANCH  10  11
BRANCH   6  25
ATOM     25  C   UNL     1      -2.730   6.518 128.804  0.00  0.00    +0.000 C 
ATOM     26  OXT UNL     1      -2.327   7.137 127.825  0.00  0.00    +0.000 OA
BRANCH  25  27
ATOM     27  O   UNL     1      -1.932   6.458 129.890  0.00  0.00    +0.000 OA
ATOM     28  H   UNL     1      -1.968   7.139 130.578  0.00  0.00    +0.000 HD
ENDBRANCH  25  27
ENDBRANCH   6  25
TORSDOF 7
ENDMDL
MODEL 7
REMARK VINA RESULT:      -6.5      4.743      7.615
REMARK  Name = Ticarcillin
REMARK  9 active torsions:
REMARK  status: ('A' for Active; 'I' for Inactive)
REMARK    1  A    between atoms: C_4  and  C_5
REMARK    2  A    between atoms: C_4  and  C_6
REMARK    3  A    between atoms: CA_7  and  C_24
REMARK    4  A    between atoms: CA_11  and  N_12
REMARK    5  A    between atoms: C_13  and  C_15
REMARK    6  A    between atoms: C_15  and  C_16
REMARK    7  A    between atoms: C_15  and  C_19
REMARK    8  A    between atoms: C_16  and  O_17
REMARK    9  A    between atoms: C_24  and  O_25
REMARK                            x       y       z     vdW  Elec       q    Type
REMARK                         _______ _______ _______ _____ _____    ______ ____
ROOT
ATOM      1  C   UNL     1      -7.659   2.972 130.136  0.00  0.00    +0.000 C 
ATOM      2  S   UNL     1      -6.828   3.784 131.545  0.00  0.00    +0.000 S 
ATOM      3  C   UNL     1      -8.466   4.466 132.148  0.00  0.00    +0.000 C 
ATOM      4  C   UNL     1      -8.139   5.687 133.013  0.00  0.00    +0.000 C 
ATOM      5  C   UNL     1      -9.105   3.323 132.961  0.00  0.00    +0.000 C 
ATOM      6  CA  UNL     1      -9.206   4.850 130.846  0.00  0.00    +0.000 C 
ATOM      7  N   UNL     1      -8.800   3.854 129.830  0.00  0.00    +0.000 N 
ATOM      8  C   UNL     1      -8.275   4.248 128.623  0.00  0.00    +0.000 C 
ATOM      9  O   UNL     1      -8.563   5.181 127.901  0.00  0.00    +0.000 OA
ATOM     10  CA  UNL     1      -7.112   3.220 128.721  0.00  0.00    +0.000 C 
ENDROOT
BRANCH  10  11
ATOM     11  N   UNL     1      -5.711   3.744 128.595  0.00  0.00    +0.000 N 
ATOM     12  C   UNL     1      -5.115   3.781 127.348  0.00  0.00    +0.000 C 
ATOM     13  O   UNL     1      -5.711   3.357 126.357  0.00  0.00    +0.000 OA
ATOM     14  H   UNL     1      -5.239   4.122 129.411  0.00  0.00    +0.000 HD
BRANCH  12  15
ATOM     15  C   UNL     1      -3.676   4.286 127.267  0.00  0.00    +0.000 C 
BRANCH  15  16
ATOM     16  C   UNL     1      -3.431   5.394 128.281  0.00  0.00    +0.000 A 
ATOM     17  C   UNL     1      -2.869   5.221 129.534  0.00  0.00    +0.000 A 
ATOM     18  S   UNL     1      -2.801   6.676 130.435  0.00  0.00    +0.000 S 
ATOM     19  C   UNL     1      -3.513   7.566 129.168  0.00  0.00    +0.000 A 
ATOM     20  C   UNL     1      -3.788   6.774 128.081  0.00  0.00    +0.000 A 
ENDBRANCH  15  16
BRANCH  15  21
ATOM     21  C   UNL     1      -2.700   3.127 127.411  0.00  0.00    +0.000 C 
ATOM     22  O   UNL     1      -1.579   3.167 126.913  0.00  0.00    +0.000 OA
BRANCH  21  23
ATOM     23  O   UNL     1      -3.099   2.037 128.105  0.00  0.00    +0.000 OA
ATOM     24  H   UNL     1      -4.055   1.845 128.117  0.00  0.00    +0.000 HD
ENDBRANCH  21  23
ENDBRANCH  15  21
ENDBRANCH  12  15
ENDBRANCH  10  11
BRANCH   6  25
ATOM     25  C   UNL     1     -10.746   5.023 130.870  0.00  0.00    +0.000 C 
ATOM     26  OXT UNL     1     -11.481   4.525 130.025  0.00  0.00    +0.000 OA
BRANCH  25  27
ATOM     27  O   UNL     1     -11.310   5.774 131.839  0.00  0.00    +0.000 OA
ATOM     28  H   UNL     1     -12.254   5.702 132.045  0.00  0.00    +0.000 HD
ENDBRANCH  25  27
ENDBRANCH   6  25
TORSDOF 7
ENDMDL
MODEL 8
REMARK VINA RESULT:      -6.4      4.430      7.483
REMARK  Name = Ticarcillin
REMARK  9 active torsions:
REMARK  status: ('A' for Active; 'I' for Inactive)
REMARK    1  A    between atoms: C_4  and  C_5
REMARK    2  A    between atoms: C_4  and  C_6
REMARK    3  A    between atoms: CA_7  and  C_24
REMARK    4  A    between atoms: CA_11  and  N_12
REMARK    5  A    between atoms: C_13  and  C_15
REMARK    6  A    between atoms: C_15  and  C_16
REMARK    7  A    between atoms: C_15  and  C_19
REMARK    8  A    between atoms: C_16  and  O_17
REMARK    9  A    between atoms: C_24  and  O_25
REMARK                            x       y       z     vdW  Elec       q    Type
REMARK                         _______ _______ _______ _____ _____    ______ ____
ROOT
ATOM      1  C   UNL     1      -6.967  -0.596 125.722  0.00  0.00    +0.000 C 
ATOM      2  S   UNL     1      -7.438  -2.340 125.453  0.00  0.00    +0.000 S 
ATOM      3  C   UNL     1      -8.341  -1.878 123.877  0.00  0.00    +0.000 C 
ATOM      4  C   UNL     1      -9.368  -2.984 123.622  0.00  0.00    +0.000 C 
ATOM      5  C   UNL     1      -7.251  -1.825 122.789  0.00  0.00    +0.000 C 
ATOM      6  CA  UNL     1      -9.006  -0.524 124.218  0.00  0.00    +0.000 C 
ATOM      7  N   UNL     1      -8.077   0.175 125.133  0.00  0.00    +0.000 N 
ATOM      8  C   UNL     1      -8.504   0.644 126.352  0.00  0.00    +0.000 C 
ATOM      9  O   UNL     1      -9.552   1.163 126.678  0.00  0.00    +0.000 OA
ATOM     10  CA  UNL     1      -7.271   0.043 127.086  0.00  0.00    +0.000 C 
ENDROOT
BRANCH  10  11
ATOM     11  N   UNL     1      -7.534  -0.874 128.245  0.00  0.00    +0.000 N 
ATOM     12  C   UNL     1      -7.653  -0.340 129.514  0.00  0.00    +0.000 C 
ATOM     13  O   UNL     1      -7.512   0.871 129.699  0.00  0.00    +0.000 OA
ATOM     14  H   UNL     1      -7.682  -1.865 128.080  0.00  0.00    +0.000 HD
BRANCH  12  15
ATOM     15  C   UNL     1      -7.883  -1.308 130.672  0.00  0.00    +0.000 C 
BRANCH  15  16
ATOM     16  C   UNL     1      -6.636  -2.137 130.943  0.00  0.00    +0.000 A 
ATOM     17  C   UNL     1      -5.342  -1.646 130.972  0.00  0.00    +0.000 A 
ATOM     18  S   UNL     1      -4.176  -2.872 131.245  0.00  0.00    +0.000 S 
ATOM     19  C   UNL     1      -5.376  -4.079 131.336  0.00  0.00    +0.000 A 
ATOM     20  C   UNL     1      -6.636  -3.558 131.171  0.00  0.00    +0.000 A 
ENDBRANCH  15  16
BRANCH  15  21
ATOM     21  C   UNL     1      -8.372  -0.556 131.901  0.00  0.00    +0.000 C 
ATOM     22  O   UNL     1      -7.764  -0.605 132.966  0.00  0.00    +0.000 OA
BRANCH  21  23
ATOM     23  O   UNL     1      -9.505   0.175 131.795  0.00  0.00    +0.000 OA
ATOM     24  H   UNL     1     -10.291  -0.275 131.434  0.00  0.00    +0.000 HD
ENDBRANCH  21  23
ENDBRANCH  15  21
ENDBRANCH  12  15
ENDBRANCH  10  11
BRANCH   6  25
ATOM     25  C   UNL     1      -9.462   0.409 123.068  0.00  0.00    +0.000 C 
ATOM     26  OXT UNL     1      -8.885   1.457 122.799  0.00  0.00    +0.000 OA
BRANCH  25  27
ATOM     27  O   UNL     1     -10.551   0.080 122.344  0.00  0.00    +0.000 OA
ATOM     28  H   UNL     1     -11.227   0.739 122.126  0.00  0.00    +0.000 HD
ENDBRANCH  25  27
ENDBRANCH   6  25
TORSDOF 7
ENDMDL
MODEL 9
REMARK VINA RESULT:      -6.4      5.792      8.274
REMARK  Name = Ticarcillin
REMARK  9 active torsions:
REMARK  status: ('A' for Active; 'I' for Inactive)
REMARK    1  A    between atoms: C_4  and  C_5
REMARK    2  A    between atoms: C_4  and  C_6
REMARK    3  A    between atoms: CA_7  and  C_24
REMARK    4  A    between atoms: CA_11  and  N_12
REMARK    5  A    between atoms: C_13  and  C_15
REMARK    6  A    between atoms: C_15  and  C_16
REMARK    7  A    between atoms: C_15  and  C_19
REMARK    8  A    between atoms: C_16  and  O_17
REMARK    9  A    between atoms: C_24  and  O_25
REMARK                            x       y       z     vdW  Elec       q    Type
REMARK                         _______ _______ _______ _____ _____    ______ ____
ROOT
ATOM      1  C   UNL     1      -7.305   3.510 130.733  0.00  0.00    +0.000 C 
ATOM      2  S   UNL     1      -8.412   2.745 131.967  0.00  0.00    +0.000 S 
ATOM      3  C   UNL     1      -7.917   1.034 131.386  0.00  0.00    +0.000 C 
ATOM      4  C   UNL     1      -9.050   0.089 131.792  0.00  0.00    +0.000 C 
ATOM      5  C   UNL     1      -6.599   0.723 132.122  0.00  0.00    +0.000 C 
ATOM      6  CA  UNL     1      -7.800   1.186 129.851  0.00  0.00    +0.000 C 
ATOM      7  N   UNL     1      -7.301   2.558 129.608  0.00  0.00    +0.000 N 
ATOM      8  C   UNL     1      -7.973   3.418 128.773  0.00  0.00    +0.000 C 
ATOM      9  O   UNL     1      -8.550   3.214 127.724  0.00  0.00    +0.000 OA
ATOM     10  CA  UNL     1      -7.882   4.585 129.797  0.00  0.00    +0.000 C 
ENDROOT
BRANCH  10  11
ATOM     11  N   UNL     1      -9.163   5.252 130.204  0.00  0.00    +0.000 N 
ATOM     12  C   UNL     1      -9.181   6.621 130.390  0.00  0.00    +0.000 C 
ATOM     13  O   UNL     1      -8.150   7.284 130.256  0.00  0.00    +0.000 OA
ATOM     14  H   UNL     1     -10.015   4.703 130.280  0.00  0.00    +0.000 HD
BRANCH  12  15
ATOM     15  C   UNL     1     -10.494   7.258 130.839  0.00  0.00    +0.000 C 
BRANCH  15  16
ATOM     16  C   UNL     1     -11.388   7.559 129.645  0.00  0.00    +0.000 A 
ATOM     17  C   UNL     1     -11.358   6.888 128.435  0.00  0.00    +0.000 A 
ATOM     18  S   UNL     1     -12.462   7.533 127.293  0.00  0.00    +0.000 S 
ATOM     19  C   UNL     1     -13.006   8.714 128.395  0.00  0.00    +0.000 A 
ATOM     20  C   UNL     1     -12.367   8.613 129.606  0.00  0.00    +0.000 A 
ENDBRANCH  15  16
BRANCH  15  21
ATOM     21  C   UNL     1     -11.176   6.383 131.882  0.00  0.00    +0.000 C 
ATOM     22  O   UNL     1     -12.396   6.256 131.914  0.00  0.00    +0.000 OA
BRANCH  21  23
ATOM     23  O   UNL     1     -10.399   5.741 132.785  0.00  0.00    +0.000 OA
ATOM     24  H   UNL     1     -10.692   5.761 133.715  0.00  0.00    +0.000 HD
ENDBRANCH  21  23
ENDBRANCH  15  21
ENDBRANCH  12  15
ENDBRANCH  10  11
BRANCH   6  25
ATOM     25  C   UNL     1      -6.984   0.145 129.044  0.00  0.00    +0.000 C 
ATOM     26  OXT UNL     1      -7.408  -0.977 128.794  0.00  0.00    +0.000 OA
BRANCH  25  27
ATOM     27  O   UNL     1      -5.744   0.466 128.619  0.00  0.00    +0.000 OA
ATOM     28  H   UNL     1      -5.553   1.336 128.239  0.00  0.00    +0.000 HD
ENDBRANCH  25  27
ENDBRANCH   6  25
TORSDOF 7
ENDMDL
