MODEL 1
REMARK VINA RESULT:      -8.6      0.000      0.000
REMARK  Name = Ticagrelor
REMARK  13 active torsions:
REMARK  status: ('A' for Active; 'I' for Inactive)
REMARK    1  A    between atoms: C_1  and  C_2
REMARK    2  A    between atoms: C_2  and  C_3
REMARK    3  A    between atoms: C_3  and  S_4
REMARK    4  A    between atoms: S_4  and  C_5
REMARK    5  A    between atoms: N_11  and  C_12
REMARK    6  A    between atoms: C_14  and  O_15
REMARK    7  A    between atoms: O_15  and  C_16
REMARK    8  A    between atoms: C_16  and  C_17
REMARK    9  A    between atoms: C_17  and  O_18
REMARK   10  A    between atoms: C_19  and  O_20
REMARK   11  A    between atoms: C_21  and  O_22
REMARK   12  A    between atoms: N_24  and  C_25
REMARK   13  A    between atoms: C_27  and  C_28
REMARK                            x       y       z     vdW  Elec       q    Type
REMARK                         _______ _______ _______ _____ _____    ______ ____
ROOT
ATOM      1  C   UNL     1      -7.653  -0.110 127.010  0.00  0.00    +0.000 A 
ATOM      2  N   UNL     1      -7.904   0.085 128.342  0.00  0.00    +0.000 NA
ATOM      3  C   UNL     1      -8.216   1.378 128.612  0.00  0.00    +0.000 A 
ATOM      4  C   UNL     1      -8.280   2.400 127.665  0.00  0.00    +0.000 A 
ATOM      5  N   UNL     1      -8.594   3.578 128.297  0.00  0.00    +0.000 NA
ATOM      6  N   UNL     1      -8.734   3.338 129.598  0.00  0.00    +0.000 NA
ATOM      7  N   UNL     1      -8.531   2.018 129.820  0.00  0.00    +0.000 N 
ATOM      8  C   UNL     1      -8.013   2.099 126.297  0.00  0.00    +0.000 A 
ATOM      9  N   UNL     1      -8.053   3.093 125.292  0.00  0.00    +0.000 N 
ATOM     10  N   UNL     1      -7.707   0.809 126.013  0.00  0.00    +0.000 NA
ATOM     11  H   UNL     1      -8.309   4.003 125.671  0.00  0.00    +0.000 HD
ENDROOT
BRANCH   7  12
ATOM     12  C   UNL     1      -8.617   1.519 131.200  0.00  0.00    +0.000 C 
ATOM     13  C   UNL     1      -9.637   2.255 132.140  0.00  0.00    +0.000 C 
ATOM     14  C   UNL     1      -8.861   2.836 133.352  0.00  0.00    +0.000 C 
ATOM     15  C   UNL     1      -7.411   2.882 132.868  0.00  0.00    +0.000 C 
ATOM     16  C   UNL     1      -7.292   1.618 132.004  0.00  0.00    +0.000 C 
BRANCH  15  17
ATOM     17  O   UNL     1      -6.491   2.870 133.965  0.00  0.00    +0.000 OA
ATOM     18  H   UNL     1      -6.497   3.747 134.389  0.00  0.00    +0.000 HD
ENDBRANCH  15  17
BRANCH  16  19
ATOM     19  O   UNL     1      -7.144   0.474 132.878  0.00  0.00    +0.000 OA
ATOM     20  H   UNL     1      -7.991   0.261 133.307  0.00  0.00    +0.000 HD
ENDBRANCH  16  19
BRANCH  14  21
ATOM     21  O   UNL     1      -9.381   4.111 133.746  0.00  0.00    +0.000 OA
BRANCH  21  22
ATOM     22  C   UNL     1      -8.777   5.205 133.040  0.00  0.00    +0.000 C 
BRANCH  22  23
ATOM     23  C   UNL     1      -9.776   5.859 132.090  0.00  0.00    +0.000 C 
BRANCH  23  24
ATOM     24  O   UNL     1     -11.060   5.966 132.697  0.00  0.00    +0.000 OA
ATOM     25  H   UNL     1     -11.570   6.631 132.205  0.00  0.00    +0.000 HD
ENDBRANCH  23  24
ENDBRANCH  22  23
ENDBRANCH  21  22
ENDBRANCH  14  21
ENDBRANCH   7  12
BRANCH   9  26
ATOM     26  C   UNL     1      -7.782   3.010 123.840  0.00  0.00    +0.000 C 
ATOM     27  C   UNL     1      -7.150   1.783 123.234  0.00  0.00    +0.000 C 
ATOM     28  C   UNL     1      -6.470   3.124 123.094  0.00  0.00    +0.000 C 
BRANCH  28  29
ATOM     29  C   UNL     1      -6.317   3.775 121.705  0.00  0.00    +0.000 A 
ATOM     30  C   UNL     1      -7.272   3.734 120.663  0.00  0.00    +0.000 A 
ATOM     31  C   UNL     1      -7.062   4.420 119.459  0.00  0.00    +0.000 A 
ATOM     32  F   UNL     1      -8.008   4.378 118.502  0.00  0.00    +0.000 F 
ATOM     33  C   UNL     1      -5.908   5.155 119.242  0.00  0.00    +0.000 A 
ATOM     34  F   UNL     1      -5.724   5.829 118.100  0.00  0.00    +0.000 F 
ATOM     35  C   UNL     1      -4.931   5.197 120.227  0.00  0.00    +0.000 A 
ATOM     36  C   UNL     1      -5.139   4.507 121.429  0.00  0.00    +0.000 A 
ENDBRANCH  28  29
ENDBRANCH   9  26
BRANCH   1  37
ATOM     37  S   UNL     1      -7.355  -1.782 126.417  0.00  0.00    +0.000 S 
BRANCH  37  38
ATOM     38  C   UNL     1      -8.851  -2.099 125.418  0.00  0.00    +0.000 C 
BRANCH  38  40
ATOM     39  C   UNL     1      -9.627  -3.379 123.371  0.00  0.00    +0.000 C 
ATOM     40  C   UNL     1      -8.702  -3.386 124.586  0.00  0.00    +0.000 C 
ENDBRANCH  38  40
ENDBRANCH  37  38
ENDBRANCH   1  37
TORSDOF 12
ENDMDL
MODEL 2
REMARK VINA RESULT:      -8.5      3.669      5.476
REMARK  Name = Ticagrelor
REMARK  13 active torsions:
REMARK  status: ('A' for Active; 'I' for Inactive)
REMARK    1  A    between atoms: C_1  and  C_2
REMARK    2  A    between atoms: C_2  and  C_3
REMARK    3  A    between atoms: C_3  and  S_4
REMARK    4  A    between atoms: S_4  and  C_5
REMARK    5  A    between atoms: N_11  and  C_12
REMARK    6  A    between atoms: C_14  and  O_15
REMARK    7  A    between atoms: O_15  and  C_16
REMARK    8  A    between atoms: C_16  and  C_17
REMARK    9  A    between atoms: C_17  and  O_18
REMARK   10  A    between atoms: C_19  and  O_20
REMARK   11  A    between atoms: C_21  and  O_22
REMARK   12  A    between atoms: N_24  and  C_25
REMARK   13  A    between atoms: C_27  and  C_28
REMARK                            x       y       z     vdW  Elec       q    Type
REMARK                         _______ _______ _______ _____ _____    ______ ____
ROOT
ATOM      1  C   UNL     1      -7.060   2.289 129.362  0.00  0.00    +0.000 A 
ATOM      2  N   UNL     1      -7.638   3.288 130.098  0.00  0.00    +0.000 NA
ATOM      3  C   UNL     1      -8.213   4.229 129.306  0.00  0.00    +0.000 A 
ATOM      4  C   UNL     1      -8.225   4.202 127.911  0.00  0.00    +0.000 A 
ATOM      5  N   UNL     1      -8.864   5.324 127.448  0.00  0.00    +0.000 NA
ATOM      6  N   UNL     1      -9.258   6.052 128.490  0.00  0.00    +0.000 NA
ATOM      7  N   UNL     1      -8.897   5.411 129.627  0.00  0.00    +0.000 N 
ATOM      8  C   UNL     1      -7.606   3.113 127.231  0.00  0.00    +0.000 A 
ATOM      9  N   UNL     1      -7.577   3.033 125.820  0.00  0.00    +0.000 N 
ATOM     10  N   UNL     1      -7.034   2.162 128.011  0.00  0.00    +0.000 NA
ATOM     11  H   UNL     1      -8.059   3.820 125.387  0.00  0.00    +0.000 HD
ENDROOT
BRANCH   7  12
ATOM     12  C   UNL     1      -9.213   6.041 130.916  0.00  0.00    +0.000 C 
ATOM     13  C   UNL     1      -7.989   6.382 131.839  0.00  0.00    +0.000 C 
ATOM     14  C   UNL     1      -8.162   5.630 133.186  0.00  0.00    +0.000 C 
ATOM     15  C   UNL     1      -9.155   4.515 132.855  0.00  0.00    +0.000 C 
ATOM     16  C   UNL     1     -10.107   5.183 131.852  0.00  0.00    +0.000 C 
BRANCH  15  17
ATOM     17  O   UNL     1      -9.843   4.062 134.026  0.00  0.00    +0.000 OA
ATOM     18  H   UNL     1      -9.192   3.688 134.647  0.00  0.00    +0.000 HD
ENDBRANCH  15  17
BRANCH  16  19
ATOM     19  O   UNL     1     -11.030   6.024 132.581  0.00  0.00    +0.000 OA
ATOM     20  H   UNL     1     -10.548   6.695 133.095  0.00  0.00    +0.000 HD
ENDBRANCH  16  19
BRANCH  14  21
ATOM     21  O   UNL     1      -6.907   5.158 133.688  0.00  0.00    +0.000 OA
BRANCH  21  22
ATOM     22  C   UNL     1      -5.779   5.735 133.013  0.00  0.00    +0.000 C 
BRANCH  22  23
ATOM     23  C   UNL     1      -4.813   4.653 132.540  0.00  0.00    +0.000 C 
BRANCH  23  24
ATOM     24  O   UNL     1      -4.962   4.411 131.145  0.00  0.00    +0.000 OA
ATOM     25  H   UNL     1      -4.155   4.719 130.699  0.00  0.00    +0.000 HD
ENDBRANCH  23  24
ENDBRANCH  22  23
ENDBRANCH  21  22
ENDBRANCH  14  21
ENDBRANCH   7  12
BRANCH   9  26
ATOM     26  C   UNL     1      -6.970   2.027 124.921  0.00  0.00    +0.000 C 
ATOM     27  C   UNL     1      -7.373   1.933 123.472  0.00  0.00    +0.000 C 
ATOM     28  C   UNL     1      -7.552   0.739 124.379  0.00  0.00    +0.000 C 
BRANCH  28  29
ATOM     29  C   UNL     1      -6.736  -0.547 124.139  0.00  0.00    +0.000 A 
ATOM     30  C   UNL     1      -6.124  -1.336 125.139  0.00  0.00    +0.000 A 
ATOM     31  C   UNL     1      -5.461  -2.529 124.819  0.00  0.00    +0.000 A 
ATOM     32  F   UNL     1      -4.915  -3.266 125.804  0.00  0.00    +0.000 F 
ATOM     33  C   UNL     1      -5.372  -2.972 123.509  0.00  0.00    +0.000 A 
ATOM     34  F   UNL     1      -4.760  -4.124 123.211  0.00  0.00    +0.000 F 
ATOM     35  C   UNL     1      -5.933  -2.212 122.493  0.00  0.00    +0.000 A 
ATOM     36  C   UNL     1      -6.592  -1.017 122.813  0.00  0.00    +0.000 A 
ENDBRANCH  28  29
ENDBRANCH   9  26
BRANCH   1  37
ATOM     37  S   UNL     1      -6.363   0.869 130.219  0.00  0.00    +0.000 S 
BRANCH  37  38
ATOM     38  C   UNL     1      -7.788  -0.273 130.276  0.00  0.00    +0.000 C 
BRANCH  38  40
ATOM     39  C   UNL     1      -9.445   0.798 131.869  0.00  0.00    +0.000 C 
ATOM     40  C   UNL     1      -8.413  -0.313 131.683  0.00  0.00    +0.000 C 
ENDBRANCH  38  40
ENDBRANCH  37  38
ENDBRANCH   1  37
TORSDOF 12
ENDMDL
MODEL 3
REMARK VINA RESULT:      -8.4      3.026      4.408
REMARK  Name = Ticagrelor
REMARK  13 active torsions:
REMARK  status: ('A' for Active; 'I' for Inactive)
REMARK    1  A    between atoms: C_1  and  C_2
REMARK    2  A    between atoms: C_2  and  C_3
REMARK    3  A    between atoms: C_3  and  S_4
REMARK    4  A    between atoms: S_4  and  C_5
REMARK    5  A    between atoms: N_11  and  C_12
REMARK    6  A    between atoms: C_14  and  O_15
REMARK    7  A    between atoms: O_15  and  C_16
REMARK    8  A    between atoms: C_16  and  C_17
REMARK    9  A    between atoms: C_17  and  O_18
REMARK   10  A    between atoms: C_19  and  O_20
REMARK   11  A    between atoms: C_21  and  O_22
REMARK   12  A    between atoms: N_24  and  C_25
REMARK   13  A    between atoms: C_27  and  C_28
REMARK                            x       y       z     vdW  Elec       q    Type
REMARK                         _______ _______ _______ _____ _____    ______ ____
ROOT
ATOM      1  C   UNL     1      -7.669  -2.142 126.098  0.00  0.00    +0.000 A 
ATOM      2  N   UNL     1      -7.455  -2.682 127.337  0.00  0.00    +0.000 NA
ATOM      3  C   UNL     1      -7.508  -1.739 128.313  0.00  0.00    +0.000 A 
ATOM      4  C   UNL     1      -7.750  -0.382 128.102  0.00  0.00    +0.000 A 
ATOM      5  N   UNL     1      -7.702   0.274 129.306  0.00  0.00    +0.000 NA
ATOM      6  N   UNL     1      -7.444  -0.612 130.264  0.00  0.00    +0.000 NA
ATOM      7  N   UNL     1      -7.340  -1.840 129.702  0.00  0.00    +0.000 N 
ATOM      8  C   UNL     1      -7.974   0.087 126.774  0.00  0.00    +0.000 A 
ATOM      9  N   UNL     1      -8.216   1.451 126.495  0.00  0.00    +0.000 N 
ATOM     10  N   UNL     1      -7.930  -0.846 125.791  0.00  0.00    +0.000 NA
ATOM     11  H   UNL     1      -8.226   2.015 127.343  0.00  0.00    +0.000 HD
ENDROOT
BRANCH   7  12
ATOM     12  C   UNL     1      -7.036  -2.984 130.573  0.00  0.00    +0.000 C 
ATOM     13  C   UNL     1      -7.042  -2.700 132.117  0.00  0.00    +0.000 C 
ATOM     14  C   UNL     1      -5.641  -3.046 132.688  0.00  0.00    +0.000 C 
ATOM     15  C   UNL     1      -4.732  -3.028 131.457  0.00  0.00    +0.000 C 
ATOM     16  C   UNL     1      -5.630  -3.606 130.354  0.00  0.00    +0.000 C 
BRANCH  15  17
ATOM     17  O   UNL     1      -3.558  -3.821 131.662  0.00  0.00    +0.000 OA
ATOM     18  H   UNL     1      -3.310  -3.776 132.603  0.00  0.00    +0.000 HD
ENDBRANCH  15  17
BRANCH  16  19
ATOM     19  O   UNL     1      -5.684  -5.044 130.507  0.00  0.00    +0.000 OA
ATOM     20  H   UNL     1      -6.292  -5.435 129.856  0.00  0.00    +0.000 HD
ENDBRANCH  16  19
BRANCH  14  21
ATOM     21  O   UNL     1      -5.248  -2.123 133.710  0.00  0.00    +0.000 OA
BRANCH  21  22
ATOM     22  C   UNL     1      -5.234  -0.760 133.260  0.00  0.00    +0.000 C 
BRANCH  22  23
ATOM     23  C   UNL     1      -5.890   0.161 134.286  0.00  0.00    +0.000 C 
BRANCH  23  24
ATOM     24  O   UNL     1      -7.057   0.774 133.747  0.00  0.00    +0.000 OA
ATOM     25  H   UNL     1      -7.817   0.204 133.953  0.00  0.00    +0.000 HD
ENDBRANCH  23  24
ENDBRANCH  22  23
ENDBRANCH  21  22
ENDBRANCH  14  21
ENDBRANCH   7  12
BRANCH   9  26
ATOM     26  C   UNL     1      -8.436   2.150 125.209  0.00  0.00    +0.000 C 
ATOM     27  C   UNL     1      -9.658   1.874 124.372  0.00  0.00    +0.000 C 
ATOM     28  C   UNL     1      -8.284   1.639 123.792  0.00  0.00    +0.000 C 
BRANCH  28  29
ATOM     29  C   UNL     1      -7.783   2.494 122.612  0.00  0.00    +0.000 A 
ATOM     30  C   UNL     1      -6.431   2.700 122.256  0.00  0.00    +0.000 A 
ATOM     31  C   UNL     1      -6.085   3.443 121.118  0.00  0.00    +0.000 A 
ATOM     32  F   UNL     1      -4.786   3.593 120.798  0.00  0.00    +0.000 F 
ATOM     33  C   UNL     1      -7.055   4.010 120.308  0.00  0.00    +0.000 A 
ATOM     34  F   UNL     1      -6.720   4.697 119.208  0.00  0.00    +0.000 F 
ATOM     35  C   UNL     1      -8.394   3.858 120.638  0.00  0.00    +0.000 A 
ATOM     36  C   UNL     1      -8.739   3.120 121.778  0.00  0.00    +0.000 A 
ENDBRANCH  28  29
ENDBRANCH   9  26
BRANCH   1  37
ATOM     37  S   UNL     1      -7.778  -3.242 124.678  0.00  0.00    +0.000 S 
BRANCH  37  38
ATOM     38  C   UNL     1      -6.627  -2.451 123.501  0.00  0.00    +0.000 C 
BRANCH  38  40
ATOM     39  C   UNL     1      -4.758  -4.138 123.801  0.00  0.00    +0.000 C 
ATOM     40  C   UNL     1      -5.162  -2.671 123.922  0.00  0.00    +0.000 C 
ENDBRANCH  38  40
ENDBRANCH  37  38
ENDBRANCH   1  37
TORSDOF 12
ENDMDL
MODEL 4
REMARK VINA RESULT:      -8.3      4.943      5.957
REMARK  Name = Ticagrelor
REMARK  13 active torsions:
REMARK  status: ('A' for Active; 'I' for Inactive)
REMARK    1  A    between atoms: C_1  and  C_2
REMARK    2  A    between atoms: C_2  and  C_3
REMARK    3  A    between atoms: C_3  and  S_4
REMARK    4  A    between atoms: S_4  and  C_5
REMARK    5  A    between atoms: N_11  and  C_12
REMARK    6  A    between atoms: C_14  and  O_15
REMARK    7  A    between atoms: O_15  and  C_16
REMARK    8  A    between atoms: C_16  and  C_17
REMARK    9  A    between atoms: C_17  and  O_18
REMARK   10  A    between atoms: C_19  and  O_20
REMARK   11  A    between atoms: C_21  and  O_22
REMARK   12  A    between atoms: N_24  and  C_25
REMARK   13  A    between atoms: C_27  and  C_28
REMARK                            x       y       z     vdW  Elec       q    Type
REMARK                         _______ _______ _______ _____ _____    ______ ____
ROOT
ATOM      1  C   UNL     1      -6.963   4.489 129.181  0.00  0.00    +0.000 A 
ATOM      2  N   UNL     1      -6.050   4.806 130.151  0.00  0.00    +0.000 NA
ATOM      3  C   UNL     1      -4.828   5.074 129.625  0.00  0.00    +0.000 A 
ATOM      4  C   UNL     1      -4.517   5.038 128.265  0.00  0.00    +0.000 A 
ATOM      5  N   UNL     1      -3.186   5.333 128.102  0.00  0.00    +0.000 NA
ATOM      6  N   UNL     1      -2.650   5.557 129.299  0.00  0.00    +0.000 NA
ATOM      7  N   UNL     1      -3.617   5.427 130.239  0.00  0.00    +0.000 N 
ATOM      8  C   UNL     1      -5.538   4.709 127.327  0.00  0.00    +0.000 A 
ATOM      9  N   UNL     1      -5.283   4.647 125.937  0.00  0.00    +0.000 N 
ATOM     10  N   UNL     1      -6.765   4.445 127.839  0.00  0.00    +0.000 NA
ATOM     11  H   UNL     1      -4.316   4.881 125.720  0.00  0.00    +0.000 HD
ENDROOT
BRANCH   7  12
ATOM     12  C   UNL     1      -3.251   5.612 131.650  0.00  0.00    +0.000 C 
ATOM     13  C   UNL     1      -3.627   6.998 132.286  0.00  0.00    +0.000 C 
ATOM     14  C   UNL     1      -2.326   7.677 132.793  0.00  0.00    +0.000 C 
ATOM     15  C   UNL     1      -1.217   6.961 132.021  0.00  0.00    +0.000 C 
ATOM     16  C   UNL     1      -1.728   5.515 131.939  0.00  0.00    +0.000 C 
BRANCH  15  17
ATOM     17  O   UNL     1       0.037   7.048 132.706  0.00  0.00    +0.000 OA
ATOM     18  H   UNL     1      -0.112   6.883 133.654  0.00  0.00    +0.000 HD
ENDBRANCH  15  17
BRANCH  16  19
ATOM     19  O   UNL     1      -1.495   4.870 133.212  0.00  0.00    +0.000 OA
ATOM     20  H   UNL     1      -2.296   4.902 133.763  0.00  0.00    +0.000 HD
ENDBRANCH  16  19
BRANCH  14  21
ATOM     21  O   UNL     1      -2.358   9.093 132.581  0.00  0.00    +0.000 OA
BRANCH  21  22
ATOM     22  C   UNL     1      -1.774   9.835 133.663  0.00  0.00    +0.000 C 
BRANCH  22  23
ATOM     23  C   UNL     1      -0.514  10.565 133.207  0.00  0.00    +0.000 C 
BRANCH  23  24
ATOM     24  O   UNL     1       0.649   9.786 133.469  0.00  0.00    +0.000 OA
ATOM     25  H   UNL     1       1.116   9.652 132.627  0.00  0.00    +0.000 HD
ENDBRANCH  23  24
ENDBRANCH  22  23
ENDBRANCH  21  22
ENDBRANCH  14  21
ENDBRANCH   7  12
BRANCH   9  26
ATOM     26  C   UNL     1      -6.172   4.298 124.807  0.00  0.00    +0.000 C 
ATOM     27  C   UNL     1      -6.854   2.956 124.737  0.00  0.00    +0.000 C 
ATOM     28  C   UNL     1      -5.922   3.382 123.628  0.00  0.00    +0.000 C 
BRANCH  28  29
ATOM     29  C   UNL     1      -6.468   3.629 122.208  0.00  0.00    +0.000 A 
ATOM     30  C   UNL     1      -7.811   3.467 121.799  0.00  0.00    +0.000 A 
ATOM     31  C   UNL     1      -8.217   3.786 120.495  0.00  0.00    +0.000 A 
ATOM     32  F   UNL     1      -9.511   3.643 120.153  0.00  0.00    +0.000 F 
ATOM     33  C   UNL     1      -7.315   4.264 119.558  0.00  0.00    +0.000 A 
ATOM     34  F   UNL     1      -7.711   4.592 118.323  0.00  0.00    +0.000 F 
ATOM     35  C   UNL     1      -5.980   4.410 119.910  0.00  0.00    +0.000 A 
ATOM     36  C   UNL     1      -5.574   4.086 121.211  0.00  0.00    +0.000 A 
ENDBRANCH  28  29
ENDBRANCH   9  26
BRANCH   1  37
ATOM     37  S   UNL     1      -8.680   4.234 129.653  0.00  0.00    +0.000 S 
BRANCH  37  38
ATOM     38  C   UNL     1      -8.629   2.551 130.363  0.00  0.00    +0.000 C 
BRANCH  38  40
ATOM     39  C   UNL     1      -7.902   0.171 129.877  0.00  0.00    +0.000 C 
ATOM     40  C   UNL     1      -8.360   1.496 129.274  0.00  0.00    +0.000 C 
ENDBRANCH  38  40
ENDBRANCH  37  38
ENDBRANCH   1  37
TORSDOF 12
ENDMDL
MODEL 5
REMARK VINA RESULT:      -8.3      3.756      4.550
REMARK  Name = Ticagrelor
REMARK  13 active torsions:
REMARK  status: ('A' for Active; 'I' for Inactive)
REMARK    1  A    between atoms: C_1  and  C_2
REMARK    2  A    between atoms: C_2  and  C_3
REMARK    3  A    between atoms: C_3  and  S_4
REMARK    4  A    between atoms: S_4  and  C_5
REMARK    5  A    between atoms: N_11  and  C_12
REMARK    6  A    between atoms: C_14  and  O_15
REMARK    7  A    between atoms: O_15  and  C_16
REMARK    8  A    between atoms: C_16  and  C_17
REMARK    9  A    between atoms: C_17  and  O_18
REMARK   10  A    between atoms: C_19  and  O_20
REMARK   11  A    between atoms: C_21  and  O_22
REMARK   12  A    between atoms: N_24  and  C_25
REMARK   13  A    between atoms: C_27  and  C_28
REMARK                            x       y       z     vdW  Elec       q    Type
REMARK                         _______ _______ _______ _____ _____    ______ ____
ROOT
ATOM      1  C   UNL     1      -6.240  -0.642 125.391  0.00  0.00    +0.000 A 
ATOM      2  N   UNL     1      -5.793  -1.042 126.622  0.00  0.00    +0.000 NA
ATOM      3  C   UNL     1      -5.558   0.015 127.441  0.00  0.00    +0.000 A 
ATOM      4  C   UNL     1      -5.743   1.353 127.092  0.00  0.00    +0.000 A 
ATOM      5  N   UNL     1      -5.379   2.146 128.152  0.00  0.00    +0.000 NA
ATOM      6  N   UNL     1      -4.978   1.364 129.151  0.00  0.00    +0.000 NA
ATOM      7  N   UNL     1      -5.091   0.071 128.762  0.00  0.00    +0.000 N 
ATOM      8  C   UNL     1      -6.224   1.673 125.789  0.00  0.00    +0.000 A 
ATOM      9  N   UNL     1      -6.422   3.010 125.373  0.00  0.00    +0.000 N 
ATOM     10  N   UNL     1      -6.469   0.625 124.964  0.00  0.00    +0.000 NA
ATOM     11  H   UNL     1      -6.201   3.672 126.115  0.00  0.00    +0.000 HD
ENDROOT
BRANCH   7  12
ATOM     12  C   UNL     1      -4.685  -0.981 129.704  0.00  0.00    +0.000 C 
ATOM     13  C   UNL     1      -5.013  -2.456 129.278  0.00  0.00    +0.000 C 
ATOM     14  C   UNL     1      -5.926  -3.091 130.360  0.00  0.00    +0.000 C 
ATOM     15  C   UNL     1      -6.513  -1.885 131.095  0.00  0.00    +0.000 C 
ATOM     16  C   UNL     1      -5.349  -0.883 131.105  0.00  0.00    +0.000 C 
BRANCH  15  17
ATOM     17  O   UNL     1      -6.932  -2.231 132.419  0.00  0.00    +0.000 OA
ATOM     18  H   UNL     1      -7.884  -2.438 132.403  0.00  0.00    +0.000 HD
ENDBRANCH  15  17
BRANCH  16  19
ATOM     19  O   UNL     1      -4.413  -1.274 132.136  0.00  0.00    +0.000 OA
ATOM     20  H   UNL     1      -4.293  -0.554 132.779  0.00  0.00    +0.000 HD
ENDBRANCH  16  19
BRANCH  14  21
ATOM     21  O   UNL     1      -6.913  -3.950 129.777  0.00  0.00    +0.000 OA
BRANCH  21  22
ATOM     22  C   UNL     1      -8.114  -3.255 129.408  0.00  0.00    +0.000 C 
BRANCH  22  23
ATOM     23  C   UNL     1      -8.390  -3.397 127.914  0.00  0.00    +0.000 C 
BRANCH  23  24
ATOM     24  O   UNL     1      -8.529  -2.121 127.298  0.00  0.00    +0.000 OA
ATOM     25  H   UNL     1      -8.150  -2.176 126.404  0.00  0.00    +0.000 HD
ENDBRANCH  23  24
ENDBRANCH  22  23
ENDBRANCH  21  22
ENDBRANCH  14  21
ENDBRANCH   7  12
BRANCH   9  26
ATOM     26  C   UNL     1      -6.874   3.561 124.077  0.00  0.00    +0.000 C 
ATOM     27  C   UNL     1      -8.180   3.133 123.460  0.00  0.00    +0.000 C 
ATOM     28  C   UNL     1      -6.889   2.920 122.706  0.00  0.00    +0.000 C 
BRANCH  28  29
ATOM     29  C   UNL     1      -6.624   3.680 121.391  0.00  0.00    +0.000 A 
ATOM     30  C   UNL     1      -7.524   3.796 120.308  0.00  0.00    +0.000 A 
ATOM     31  C   UNL     1      -7.210   4.571 119.182  0.00  0.00    +0.000 A 
ATOM     32  F   UNL     1      -8.106   4.678 118.184  0.00  0.00    +0.000 F 
ATOM     33  C   UNL     1      -6.003   5.242 119.087  0.00  0.00    +0.000 A 
ATOM     34  F   UNL     1      -5.717   6.002 118.022  0.00  0.00    +0.000 F 
ATOM     35  C   UNL     1      -5.077   5.131 120.115  0.00  0.00    +0.000 A 
ATOM     36  C   UNL     1      -5.390   4.353 121.238  0.00  0.00    +0.000 A 
ENDBRANCH  28  29
ENDBRANCH   9  26
BRANCH   1  37
ATOM     37  S   UNL     1      -6.743  -1.893 124.200  0.00  0.00    +0.000 S 
BRANCH  37  38
ATOM     38  C   UNL     1      -5.634  -3.282 124.622  0.00  0.00    +0.000 C 
BRANCH  38  40
ATOM     39  C   UNL     1      -4.187  -4.963 123.393  0.00  0.00    +0.000 C 
ATOM     40  C   UNL     1      -4.566  -3.491 123.533  0.00  0.00    +0.000 C 
ENDBRANCH  38  40
ENDBRANCH  37  38
ENDBRANCH   1  37
TORSDOF 12
ENDMDL
MODEL 6
REMARK VINA RESULT:      -8.2      3.556      4.605
REMARK  Name = Ticagrelor
REMARK  13 active torsions:
REMARK  status: ('A' for Active; 'I' for Inactive)
REMARK    1  A    between atoms: C_1  and  C_2
REMARK    2  A    between atoms: C_2  and  C_3
REMARK    3  A    between atoms: C_3  and  S_4
REMARK    4  A    between atoms: S_4  and  C_5
REMARK    5  A    between atoms: N_11  and  C_12
REMARK    6  A    between atoms: C_14  and  O_15
REMARK    7  A    between atoms: O_15  and  C_16
REMARK    8  A    between atoms: C_16  and  C_17
REMARK    9  A    between atoms: C_17  and  O_18
REMARK   10  A    between atoms: C_19  and  O_20
REMARK   11  A    between atoms: C_21  and  O_22
REMARK   12  A    between atoms: N_24  and  C_25
REMARK   13  A    between atoms: C_27  and  C_28
REMARK                            x       y       z     vdW  Elec       q    Type
REMARK                         _______ _______ _______ _____ _____    ______ ____
ROOT
ATOM      1  C   UNL     1      -6.983  -1.817 125.830  0.00  0.00    +0.000 A 
ATOM      2  N   UNL     1      -7.015  -2.475 127.030  0.00  0.00    +0.000 NA
ATOM      3  C   UNL     1      -6.600  -1.682 128.051  0.00  0.00    +0.000 A 
ATOM      4  C   UNL     1      -6.188  -0.356 127.917  0.00  0.00    +0.000 A 
ATOM      5  N   UNL     1      -5.812   0.123 129.147  0.00  0.00    +0.000 NA
ATOM      6  N   UNL     1      -5.974  -0.843 130.047  0.00  0.00    +0.000 NA
ATOM      7  N   UNL     1      -6.466  -1.940 129.423  0.00  0.00    +0.000 N 
ATOM      8  C   UNL     1      -6.200   0.250 126.626  0.00  0.00    +0.000 A 
ATOM      9  N   UNL     1      -5.785   1.587 126.425  0.00  0.00    +0.000 N 
ATOM     10  N   UNL     1      -6.618  -0.530 125.599  0.00  0.00    +0.000 NA
ATOM     11  H   UNL     1      -5.512   2.033 127.298  0.00  0.00    +0.000 HD
ENDROOT
BRANCH   7  12
ATOM     12  C   UNL     1      -6.709  -3.150 130.221  0.00  0.00    +0.000 C 
ATOM     13  C   UNL     1      -7.338  -2.926 131.642  0.00  0.00    +0.000 C 
ATOM     14  C   UNL     1      -6.371  -3.506 132.708  0.00  0.00    +0.000 C 
ATOM     15  C   UNL     1      -5.029  -3.585 131.977  0.00  0.00    +0.000 C 
ATOM     16  C   UNL     1      -5.435  -3.974 130.547  0.00  0.00    +0.000 C 
BRANCH  15  17
ATOM     17  O   UNL     1      -4.165  -4.559 132.572  0.00  0.00    +0.000 OA
ATOM     18  H   UNL     1      -3.248  -4.235 132.521  0.00  0.00    +0.000 HD
ENDBRANCH  15  17
BRANCH  16  19
ATOM     19  O   UNL     1      -5.728  -5.390 130.520  0.00  0.00    +0.000 OA
ATOM     20  H   UNL     1      -5.769  -5.748 131.424  0.00  0.00    +0.000 HD
ENDBRANCH  16  19
BRANCH  14  21
ATOM     21  O   UNL     1      -6.340  -2.695 133.887  0.00  0.00    +0.000 OA
BRANCH  21  22
ATOM     22  C   UNL     1      -6.712  -1.331 133.639  0.00  0.00    +0.000 C 
BRANCH  22  23
ATOM     23  C   UNL     1      -5.537  -0.390 133.894  0.00  0.00    +0.000 C 
BRANCH  23  24
ATOM     24  O   UNL     1      -4.965   0.054 132.668  0.00  0.00    +0.000 OA
ATOM     25  H   UNL     1      -5.158   1.003 132.573  0.00  0.00    +0.000 HD
ENDBRANCH  23  24
ENDBRANCH  22  23
ENDBRANCH  21  22
ENDBRANCH  14  21
ENDBRANCH   7  12
BRANCH   9  26
ATOM     26  C   UNL     1      -5.686   2.391 125.187  0.00  0.00    +0.000 C 
ATOM     27  C   UNL     1      -5.471   3.882 125.241  0.00  0.00    +0.000 C 
ATOM     28  C   UNL     1      -6.697   3.325 124.557  0.00  0.00    +0.000 C 
BRANCH  28  29
ATOM     29  C   UNL     1      -6.884   3.501 123.037  0.00  0.00    +0.000 A 
ATOM     30  C   UNL     1      -8.091   3.317 122.326  0.00  0.00    +0.000 A 
ATOM     31  C   UNL     1      -8.170   3.571 120.949  0.00  0.00    +0.000 A 
ATOM     32  F   UNL     1      -9.346   3.409 120.314  0.00  0.00    +0.000 F 
ATOM     33  C   UNL     1      -7.065   4.003 120.235  0.00  0.00    +0.000 A 
ATOM     34  F   UNL     1      -7.151   4.269 118.925  0.00  0.00    +0.000 F 
ATOM     35  C   UNL     1      -5.852   4.168 120.888  0.00  0.00    +0.000 A 
ATOM     36  C   UNL     1      -5.773   3.909 122.263  0.00  0.00    +0.000 A 
ENDBRANCH  28  29
ENDBRANCH   9  26
BRANCH   1  37
ATOM     37  S   UNL     1      -7.624  -2.644 124.367  0.00  0.00    +0.000 S 
BRANCH  37  38
ATOM     38  C   UNL     1      -6.106  -2.899 123.383  0.00  0.00    +0.000 C 
BRANCH  38  40
ATOM     39  C   UNL     1      -4.263  -4.637 123.476  0.00  0.00    +0.000 C 
ATOM     40  C   UNL     1      -4.990  -3.531 124.235  0.00  0.00    +0.000 C 
ENDBRANCH  38  40
ENDBRANCH  37  38
ENDBRANCH   1  37
TORSDOF 12
ENDMDL
MODEL 7
REMARK VINA RESULT:      -8.1      3.997      4.769
REMARK  Name = Ticagrelor
REMARK  13 active torsions:
REMARK  status: ('A' for Active; 'I' for Inactive)
REMARK    1  A    between atoms: C_1  and  C_2
REMARK    2  A    between atoms: C_2  and  C_3
REMARK    3  A    between atoms: C_3  and  S_4
REMARK    4  A    between atoms: S_4  and  C_5
REMARK    5  A    between atoms: N_11  and  C_12
REMARK    6  A    between atoms: C_14  and  O_15
REMARK    7  A    between atoms: O_15  and  C_16
REMARK    8  A    between atoms: C_16  and  C_17
REMARK    9  A    between atoms: C_17  and  O_18
REMARK   10  A    between atoms: C_19  and  O_20
REMARK   11  A    between atoms: C_21  and  O_22
REMARK   12  A    between atoms: N_24  and  C_25
REMARK   13  A    between atoms: C_27  and  C_28
REMARK                            x       y       z     vdW  Elec       q    Type
REMARK                         _______ _______ _______ _____ _____    ______ ____
ROOT
ATOM      1  C   UNL     1      -6.076  -1.264 125.255  0.00  0.00    +0.000 A 
ATOM      2  N   UNL     1      -5.684  -1.909 126.397  0.00  0.00    +0.000 NA
ATOM      3  C   UNL     1      -5.652  -1.070 127.464  0.00  0.00    +0.000 A 
ATOM      4  C   UNL     1      -5.975   0.287 127.424  0.00  0.00    +0.000 A 
ATOM      5  N   UNL     1      -5.802   0.824 128.675  0.00  0.00    +0.000 NA
ATOM      6  N   UNL     1      -5.389  -0.136 129.498  0.00  0.00    +0.000 NA
ATOM      7  N   UNL     1      -5.306  -1.296 128.804  0.00  0.00    +0.000 N 
ATOM      8  C   UNL     1      -6.384   0.869 126.189  0.00  0.00    +0.000 A 
ATOM      9  N   UNL     1      -6.715   2.240 126.084  0.00  0.00    +0.000 N 
ATOM     10  N   UNL     1      -6.427   0.040 125.118  0.00  0.00    +0.000 NA
ATOM     11  H   UNL     1      -6.641   2.717 126.981  0.00  0.00    +0.000 HD
ENDROOT
BRANCH   7  12
ATOM     12  C   UNL     1      -4.848  -2.502 129.508  0.00  0.00    +0.000 C 
ATOM     13  C   UNL     1      -5.733  -2.975 130.717  0.00  0.00    +0.000 C 
ATOM     14  C   UNL     1      -4.855  -2.987 131.996  0.00  0.00    +0.000 C 
ATOM     15  C   UNL     1      -3.681  -2.073 131.641  0.00  0.00    +0.000 C 
ATOM     16  C   UNL     1      -3.442  -2.377 130.154  0.00  0.00    +0.000 C 
BRANCH  15  17
ATOM     17  O   UNL     1      -2.529  -2.365 132.439  0.00  0.00    +0.000 OA
ATOM     18  H   UNL     1      -1.832  -1.717 132.232  0.00  0.00    +0.000 HD
ENDBRANCH  15  17
BRANCH  16  19
ATOM     19  O   UNL     1      -2.724  -3.628 130.048  0.00  0.00    +0.000 OA
ATOM     20  H   UNL     1      -3.163  -4.319 130.573  0.00  0.00    +0.000 HD
ENDBRANCH  16  19
BRANCH  14  21
ATOM     21  O   UNL     1      -5.595  -2.557 133.145  0.00  0.00    +0.000 OA
BRANCH  21  22
ATOM     22  C   UNL     1      -7.000  -2.831 133.040  0.00  0.00    +0.000 C 
BRANCH  22  23
ATOM     23  C   UNL     1      -7.448  -3.810 134.122  0.00  0.00    +0.000 C 
BRANCH  23  24
ATOM     24  O   UNL     1      -8.860  -3.765 134.297  0.00  0.00    +0.000 OA
ATOM     25  H   UNL     1      -9.233  -3.216 133.586  0.00  0.00    +0.000 HD
ENDBRANCH  23  24
ENDBRANCH  22  23
ENDBRANCH  21  22
ENDBRANCH  14  21
ENDBRANCH   7  12
BRANCH   9  26
ATOM     26  C   UNL     1      -7.125   3.047 124.914  0.00  0.00    +0.000 C 
ATOM     27  C   UNL     1      -8.570   3.407 124.682  0.00  0.00    +0.000 C 
ATOM     28  C   UNL     1      -7.818   2.619 123.638  0.00  0.00    +0.000 C 
BRANCH  28  29
ATOM     29  C   UNL     1      -7.540   3.234 122.252  0.00  0.00    +0.000 A 
ATOM     30  C   UNL     1      -6.270   3.591 121.746  0.00  0.00    +0.000 A 
ATOM     31  C   UNL     1      -6.119   4.082 120.441  0.00  0.00    +0.000 A 
ATOM     32  F   UNL     1      -4.889   4.385 119.988  0.00  0.00    +0.000 F 
ATOM     33  C   UNL     1      -7.211   4.242 119.604  0.00  0.00    +0.000 A 
ATOM     34  F   UNL     1      -7.060   4.686 118.350  0.00  0.00    +0.000 F 
ATOM     35  C   UNL     1      -8.480   3.932 120.071  0.00  0.00    +0.000 A 
ATOM     36  C   UNL     1      -8.631   3.446 121.377  0.00  0.00    +0.000 A 
ENDBRANCH  28  29
ENDBRANCH   9  26
BRANCH   1  37
ATOM     37  S   UNL     1      -6.319  -2.224 123.753  0.00  0.00    +0.000 S 
BRANCH  37  38
ATOM     38  C   UNL     1      -7.345  -3.611 124.355  0.00  0.00    +0.000 C 
BRANCH  38  40
ATOM     39  C   UNL     1      -9.034  -2.209 123.086  0.00  0.00    +0.000 C 
ATOM     40  C   UNL     1      -8.836  -3.369 124.060  0.00  0.00    +0.000 C 
ENDBRANCH  38  40
ENDBRANCH  37  38
ENDBRANCH   1  37
TORSDOF 12
ENDMDL
MODEL 8
REMARK VINA RESULT:      -8.0      6.592      8.406
REMARK  Name = Ticagrelor
REMARK  13 active torsions:
REMARK  status: ('A' for Active; 'I' for Inactive)
REMARK    1  A    between atoms: C_1  and  C_2
REMARK    2  A    between atoms: C_2  and  C_3
REMARK    3  A    between atoms: C_3  and  S_4
REMARK    4  A    between atoms: S_4  and  C_5
REMARK    5  A    between atoms: N_11  and  C_12
REMARK    6  A    between atoms: C_14  and  O_15
REMARK    7  A    between atoms: O_15  and  C_16
REMARK    8  A    between atoms: C_16  and  C_17
REMARK    9  A    between atoms: C_17  and  O_18
REMARK   10  A    between atoms: C_19  and  O_20
REMARK   11  A    between atoms: C_21  and  O_22
REMARK   12  A    between atoms: N_24  and  C_25
REMARK   13  A    between atoms: C_27  and  C_28
REMARK                            x       y       z     vdW  Elec       q    Type
REMARK                         _______ _______ _______ _____ _____    ______ ____
ROOT
ATOM      1  C   UNL     1      -7.257   0.019 130.124  0.00  0.00    +0.000 A 
ATOM      2  N   UNL     1      -6.661  -0.808 131.038  0.00  0.00    +0.000 NA
ATOM      3  C   UNL     1      -6.654  -0.264 132.282  0.00  0.00    +0.000 A 
ATOM      4  C   UNL     1      -7.185   0.984 132.611  0.00  0.00    +0.000 A 
ATOM      5  N   UNL     1      -6.975   1.220 133.947  0.00  0.00    +0.000 NA
ATOM      6  N   UNL     1      -6.341   0.174 134.471  0.00  0.00    +0.000 NA
ATOM      7  N   UNL     1      -6.148  -0.748 133.497  0.00  0.00    +0.000 N 
ATOM      8  C   UNL     1      -7.798   1.771 131.593  0.00  0.00    +0.000 A 
ATOM      9  N   UNL     1      -8.345   3.046 131.863  0.00  0.00    +0.000 N 
ATOM     10  N   UNL     1      -7.816   1.235 130.348  0.00  0.00    +0.000 NA
ATOM     11  H   UNL     1      -8.257   3.294 132.847  0.00  0.00    +0.000 HD
ENDROOT
BRANCH   7  12
ATOM     12  C   UNL     1      -5.444  -1.991 133.840  0.00  0.00    +0.000 C 
ATOM     13  C   UNL     1      -3.976  -2.127 133.299  0.00  0.00    +0.000 C 
ATOM     14  C   UNL     1      -3.897  -3.389 132.399  0.00  0.00    +0.000 C 
ATOM     15  C   UNL     1      -5.355  -3.662 132.026  0.00  0.00    +0.000 C 
ATOM     16  C   UNL     1      -6.118  -3.283 133.303  0.00  0.00    +0.000 C 
BRANCH  15  17
ATOM     17  O   UNL     1      -5.556  -5.034 131.670  0.00  0.00    +0.000 OA
ATOM     18  H   UNL     1      -6.420  -5.323 132.014  0.00  0.00    +0.000 HD
ENDBRANCH  15  17
BRANCH  16  19
ATOM     19  O   UNL     1      -5.981  -4.359 134.260  0.00  0.00    +0.000 OA
ATOM     20  H   UNL     1      -5.640  -4.023 135.107  0.00  0.00    +0.000 HD
ENDBRANCH  16  19
BRANCH  14  21
ATOM     21  O   UNL     1      -3.040  -3.177 131.271  0.00  0.00    +0.000 OA
BRANCH  21  22
ATOM     22  C   UNL     1      -3.729  -2.622 130.141  0.00  0.00    +0.000 C 
BRANCH  22  23
ATOM     23  C   UNL     1      -3.542  -3.496 128.904  0.00  0.00    +0.000 C 
BRANCH  23  24
ATOM     24  O   UNL     1      -2.264  -4.125 128.914  0.00  0.00    +0.000 OA
ATOM     25  H   UNL     1      -1.670  -3.607 128.344  0.00  0.00    +0.000 HD
ENDBRANCH  23  24
ENDBRANCH  22  23
ENDBRANCH  21  22
ENDBRANCH  14  21
ENDBRANCH   7  12
BRANCH   9  26
ATOM     26  C   UNL     1      -8.986   4.032 130.965  0.00  0.00    +0.000 C 
ATOM     27  C   UNL     1      -8.177   4.819 129.966  0.00  0.00    +0.000 C 
ATOM     28  C   UNL     1      -8.975   5.544 131.024  0.00  0.00    +0.000 C 
BRANCH  28  29
ATOM     29  C   UNL     1     -10.166   6.436 130.621  0.00  0.00    +0.000 A 
ATOM     30  C   UNL     1     -11.394   6.537 131.314  0.00  0.00    +0.000 A 
ATOM     31  C   UNL     1     -12.390   7.433 130.900  0.00  0.00    +0.000 A 
ATOM     32  F   UNL     1     -13.534   7.519 131.604  0.00  0.00    +0.000 F 
ATOM     33  C   UNL     1     -12.210   8.245 129.792  0.00  0.00    +0.000 A 
ATOM     34  F   UNL     1     -13.153   9.118 129.416  0.00  0.00    +0.000 F 
ATOM     35  C   UNL     1     -11.031   8.156 129.065  0.00  0.00    +0.000 A 
ATOM     36  C   UNL     1     -10.038   7.257 129.476  0.00  0.00    +0.000 A 
ENDBRANCH  28  29
ENDBRANCH   9  26
BRANCH   1  37
ATOM     37  S   UNL     1      -7.493  -0.571 128.441  0.00  0.00    +0.000 S 
BRANCH  37  38
ATOM     38  C   UNL     1      -7.137  -2.355 128.615  0.00  0.00    +0.000 C 
BRANCH  38  40
ATOM     39  C   UNL     1      -8.914  -4.041 127.963  0.00  0.00    +0.000 C 
ATOM     40  C   UNL     1      -8.387  -3.130 129.069  0.00  0.00    +0.000 C 
ENDBRANCH  38  40
ENDBRANCH  37  38
ENDBRANCH   1  37
TORSDOF 12
ENDMDL
MODEL 9
REMARK VINA RESULT:      -8.0      3.959      5.690
REMARK  Name = Ticagrelor
REMARK  13 active torsions:
REMARK  status: ('A' for Active; 'I' for Inactive)
REMARK    1  A    between atoms: C_1  and  C_2
REMARK    2  A    between atoms: C_2  and  C_3
REMARK    3  A    between atoms: C_3  and  S_4
REMARK    4  A    between atoms: S_4  and  C_5
REMARK    5  A    between atoms: N_11  and  C_12
REMARK    6  A    between atoms: C_14  and  O_15
REMARK    7  A    between atoms: O_15  and  C_16
REMARK    8  A    between atoms: C_16  and  C_17
REMARK    9  A    between atoms: C_17  and  O_18
REMARK   10  A    between atoms: C_19  and  O_20
REMARK   11  A    between atoms: C_21  and  O_22
REMARK   12  A    between atoms: N_24  and  C_25
REMARK   13  A    between atoms: C_27  and  C_28
REMARK                            x       y       z     vdW  Elec       q    Type
REMARK                         _______ _______ _______ _____ _____    ______ ____
ROOT
ATOM      1  C   UNL     1      -7.781   2.256 129.370  0.00  0.00    +0.000 A 
ATOM      2  N   UNL     1      -7.579   2.851 130.586  0.00  0.00    +0.000 NA
ATOM      3  C   UNL     1      -7.522   1.938 131.590  0.00  0.00    +0.000 A 
ATOM      4  C   UNL     1      -7.651   0.559 131.424  0.00  0.00    +0.000 A 
ATOM      5  N   UNL     1      -7.573  -0.048 132.653  0.00  0.00    +0.000 NA
ATOM      6  N   UNL     1      -7.396   0.889 133.581  0.00  0.00    +0.000 NA
ATOM      7  N   UNL     1      -7.343   2.097 132.972  0.00  0.00    +0.000 N 
ATOM      8  C   UNL     1      -7.847   0.030 130.115  0.00  0.00    +0.000 A 
ATOM      9  N   UNL     1      -7.994  -1.357 129.885  0.00  0.00    +0.000 N 
ATOM     10  N   UNL     1      -7.899   0.931 129.104  0.00  0.00    +0.000 NA
ATOM     11  H   UNL     1      -7.920  -1.894 130.747  0.00  0.00    +0.000 HD
ENDROOT
BRANCH   7  12
ATOM     12  C   UNL     1      -7.171   3.295 133.806  0.00  0.00    +0.000 C 
ATOM     13  C   UNL     1      -8.374   4.303 133.826  0.00  0.00    +0.000 C 
ATOM     14  C   UNL     1      -7.871   5.682 133.322  0.00  0.00    +0.000 C 
ATOM     15  C   UNL     1      -6.586   5.346 132.563  0.00  0.00    +0.000 C 
ATOM     16  C   UNL     1      -5.981   4.203 133.393  0.00  0.00    +0.000 C 
BRANCH  15  17
ATOM     17  O   UNL     1      -5.710   6.475 132.489  0.00  0.00    +0.000 OA
ATOM     18  H   UNL     1      -5.578   6.829 133.387  0.00  0.00    +0.000 HD
ENDBRANCH  15  17
BRANCH  16  19
ATOM     19  O   UNL     1      -5.346   4.768 134.563  0.00  0.00    +0.000 OA
ATOM     20  H   UNL     1      -4.959   4.066 135.115  0.00  0.00    +0.000 HD
ENDBRANCH  16  19
BRANCH  14  21
ATOM     21  O   UNL     1      -8.859   6.342 132.523  0.00  0.00    +0.000 OA
BRANCH  21  22
ATOM     22  C   UNL     1      -9.941   5.478 132.143  0.00  0.00    +0.000 C 
BRANCH  22  23
ATOM     23  C   UNL     1     -10.102   5.441 130.625  0.00  0.00    +0.000 C 
BRANCH  23  24
ATOM     24  O   UNL     1     -10.474   4.138 130.185  0.00  0.00    +0.000 OA
ATOM     25  H   UNL     1      -9.674   3.587 130.169  0.00  0.00    +0.000 HD
ENDBRANCH  23  24
ENDBRANCH  22  23
ENDBRANCH  21  22
ENDBRANCH  14  21
ENDBRANCH   7  12
BRANCH   9  26
ATOM     26  C   UNL     1      -8.236  -2.108 128.633  0.00  0.00    +0.000 C 
ATOM     27  C   UNL     1      -7.894  -3.572 128.523  0.00  0.00    +0.000 C 
ATOM     28  C   UNL     1      -7.254  -2.579 127.582  0.00  0.00    +0.000 C 
BRANCH  28  29
ATOM     29  C   UNL     1      -7.560  -2.633 126.073  0.00  0.00    +0.000 A 
ATOM     30  C   UNL     1      -8.679  -3.259 125.478  0.00  0.00    +0.000 A 
ATOM     31  C   UNL     1      -8.899  -3.190 124.095  0.00  0.00    +0.000 A 
ATOM     32  F   UNL     1      -9.992  -3.776 123.571  0.00  0.00    +0.000 F 
ATOM     33  C   UNL     1      -8.024  -2.514 123.260  0.00  0.00    +0.000 A 
ATOM     34  F   UNL     1      -8.252  -2.429 121.944  0.00  0.00    +0.000 F 
ATOM     35  C   UNL     1      -6.896  -1.911 123.799  0.00  0.00    +0.000 A 
ATOM     36  C   UNL     1      -6.674  -1.984 125.181  0.00  0.00    +0.000 A 
ENDBRANCH  28  29
ENDBRANCH   9  26
BRANCH   1  37
ATOM     37  S   UNL     1      -7.749   3.276 127.888  0.00  0.00    +0.000 S 
BRANCH  37  38
ATOM     38  C   UNL     1      -7.468   2.031 126.580  0.00  0.00    +0.000 C 
BRANCH  38  40
ATOM     39  C   UNL     1      -9.366   0.524 125.837  0.00  0.00    +0.000 C 
ATOM     40  C   UNL     1      -8.703   1.889 125.672  0.00  0.00    +0.000 C 
ENDBRANCH  38  40
ENDBRANCH  37  38
ENDBRANCH   1  37
TORSDOF 12
ENDMDL
