MODEL 1
REMARK VINA RESULT:      -6.6      0.000      0.000
REMARK  Name = Ticlopidine
REMARK  2 active torsions:
REMARK  status: ('A' for Active; 'I' for Inactive)
REMARK    1  A    between atoms: C_7  and  C_8
REMARK    2  A    between atoms: C_8  and  N_9
REMARK                            x       y       z     vdW  Elec       q    Type
REMARK                         _______ _______ _______ _____ _____    ______ ____
ROOT
ATOM      1  N   UNL     1      -9.714   6.728 131.691  0.00  0.00    +0.000 NA
ATOM      2  C   UNL     1     -11.061   6.191 131.955  0.00  0.00    +0.000 C 
ATOM      3  C   UNL     1     -12.217   6.992 131.347  0.00  0.00    +0.000 C 
ATOM      4  C   UNL     1     -11.834   7.553 130.017  0.00  0.00    +0.000 A 
ATOM      5  C   UNL     1     -10.536   7.655 129.559  0.00  0.00    +0.000 A 
ATOM      6  C   UNL     1      -9.353   7.188 130.337  0.00  0.00    +0.000 C 
ATOM      7  C   UNL     1     -10.500   8.096 128.199  0.00  0.00    +0.000 A 
ATOM      8  C   UNL     1     -11.755   8.395 127.721  0.00  0.00    +0.000 A 
ATOM      9  S   UNL     1     -12.977   8.086 128.880  0.00  0.00    +0.000 S 
ENDROOT
BRANCH   1  10
ATOM     10  C   UNL     1      -8.706   5.788 132.155  0.00  0.00    +0.000 C 
BRANCH  10  17
ATOM     11 CL   UNL     1      -8.372   4.225 128.938  0.00  0.00    +0.000 Cl
ATOM     12  C   UNL     1      -8.735   3.638 130.530  0.00  0.00    +0.000 A 
ATOM     13  C   UNL     1      -8.917   2.257 130.440  0.00  0.00    +0.000 A 
ATOM     14  C   UNL     1      -9.209   1.505 131.546  0.00  0.00    +0.000 A 
ATOM     15  C   UNL     1      -9.329   2.117 132.787  0.00  0.00    +0.000 A 
ATOM     16  C   UNL     1      -9.156   3.501 132.904  0.00  0.00    +0.000 A 
ATOM     17  C   UNL     1      -8.857   4.306 131.786  0.00  0.00    +0.000 A 
ENDBRANCH  10  17
ENDBRANCH   1  10
TORSDOF 2
ENDMDL
MODEL 2
REMARK VINA RESULT:      -6.6      2.765      5.901
REMARK  Name = Ticlopidine
REMARK  2 active torsions:
REMARK  status: ('A' for Active; 'I' for Inactive)
REMARK    1  A    between atoms: C_7  and  C_8
REMARK    2  A    between atoms: C_8  and  N_9
REMARK                            x       y       z     vdW  Elec       q    Type
REMARK                         _______ _______ _______ _____ _____    ______ ____
ROOT
ATOM      1  N   UNL     1      -9.562   6.404 131.104  0.00  0.00    +0.000 NA
ATOM      2  C   UNL     1      -8.212   6.506 131.686  0.00  0.00    +0.000 C 
ATOM      3  C   UNL     1      -7.900   5.500 132.799  0.00  0.00    +0.000 C 
ATOM      4  C   UNL     1      -8.546   4.182 132.521  0.00  0.00    +0.000 A 
ATOM      5  C   UNL     1      -9.562   3.990 131.607  0.00  0.00    +0.000 A 
ATOM      6  C   UNL     1     -10.123   5.083 130.763  0.00  0.00    +0.000 C 
ATOM      7  C   UNL     1      -9.871   2.601 131.461  0.00  0.00    +0.000 A 
ATOM      8  C   UNL     1      -9.147   1.818 132.330  0.00  0.00    +0.000 A 
ATOM      9  S   UNL     1      -8.055   2.741 133.271  0.00  0.00    +0.000 S 
ENDROOT
BRANCH   1  10
ATOM     10  C   UNL     1      -9.670   7.276 129.945  0.00  0.00    +0.000 C 
BRANCH  10  17
ATOM     11 CL   UNL     1     -13.011   7.493 131.247  0.00  0.00    +0.000 Cl
ATOM     12  C   UNL     1     -12.345   7.407 129.647  0.00  0.00    +0.000 A 
ATOM     13  C   UNL     1     -13.409   7.436 128.744  0.00  0.00    +0.000 A 
ATOM     14  C   UNL     1     -13.196   7.391 127.393  0.00  0.00    +0.000 A 
ATOM     15  C   UNL     1     -11.901   7.315 126.898  0.00  0.00    +0.000 A 
ATOM     16  C   UNL     1     -10.816   7.279 127.782  0.00  0.00    +0.000 A 
ATOM     17  C   UNL     1     -10.999   7.321 129.179  0.00  0.00    +0.000 A 
ENDBRANCH  10  17
ENDBRANCH   1  10
TORSDOF 2
ENDMDL
MODEL 3
REMARK VINA RESULT:      -6.4      3.180      6.167
REMARK  Name = Ticlopidine
REMARK  2 active torsions:
REMARK  status: ('A' for Active; 'I' for Inactive)
REMARK    1  A    between atoms: C_7  and  C_8
REMARK    2  A    between atoms: C_8  and  N_9
REMARK                            x       y       z     vdW  Elec       q    Type
REMARK                         _______ _______ _______ _____ _____    ______ ____
ROOT
ATOM      1  N   UNL     1      -9.652   6.442 131.708  0.00  0.00    +0.000 NA
ATOM      2  C   UNL     1      -8.448   6.433 130.858  0.00  0.00    +0.000 C 
ATOM      3  C   UNL     1      -7.116   6.563 131.604  0.00  0.00    +0.000 C 
ATOM      4  C   UNL     1      -7.168   5.846 132.914  0.00  0.00    +0.000 A 
ATOM      5  C   UNL     1      -8.332   5.438 133.533  0.00  0.00    +0.000 A 
ATOM      6  C   UNL     1      -9.688   5.646 132.949  0.00  0.00    +0.000 C 
ATOM      7  C   UNL     1      -8.052   4.653 134.695  0.00  0.00    +0.000 A 
ATOM      8  C   UNL     1      -6.703   4.581 134.955  0.00  0.00    +0.000 A 
ATOM      9  S   UNL     1      -5.774   5.397 133.772  0.00  0.00    +0.000 S 
ENDROOT
BRANCH   1  10
ATOM     10  C   UNL     1     -10.825   6.127 130.909  0.00  0.00    +0.000 C 
BRANCH  10  17
ATOM     11 CL   UNL     1     -10.388   7.066 127.470  0.00  0.00    +0.000 Cl
ATOM     12  C   UNL     1     -11.370   7.669 128.767  0.00  0.00    +0.000 A 
ATOM     13  C   UNL     1     -12.111   8.743 128.272  0.00  0.00    +0.000 A 
ATOM     14  C   UNL     1     -12.993   9.425 129.067  0.00  0.00    +0.000 A 
ATOM     15  C   UNL     1     -13.160   9.051 130.393  0.00  0.00    +0.000 A 
ATOM     16  C   UNL     1     -12.426   7.980 130.917  0.00  0.00    +0.000 A 
ATOM     17  C   UNL     1     -11.508   7.258 130.127  0.00  0.00    +0.000 A 
ENDBRANCH  10  17
ENDBRANCH   1  10
TORSDOF 2
ENDMDL
MODEL 4
REMARK VINA RESULT:      -6.4      2.866      5.797
REMARK  Name = Ticlopidine
REMARK  2 active torsions:
REMARK  status: ('A' for Active; 'I' for Inactive)
REMARK    1  A    between atoms: C_7  and  C_8
REMARK    2  A    between atoms: C_8  and  N_9
REMARK                            x       y       z     vdW  Elec       q    Type
REMARK                         _______ _______ _______ _____ _____    ______ ____
ROOT
ATOM      1  N   UNL     1     -10.429   5.349 129.857  0.00  0.00    +0.000 NA
ATOM      2  C   UNL     1     -10.169   4.002 130.396  0.00  0.00    +0.000 C 
ATOM      3  C   UNL     1      -8.697   3.579 130.422  0.00  0.00    +0.000 C 
ATOM      4  C   UNL     1      -7.814   4.743 130.734  0.00  0.00    +0.000 A 
ATOM      5  C   UNL     1      -8.207   6.063 130.654  0.00  0.00    +0.000 A 
ATOM      6  C   UNL     1      -9.583   6.486 130.266  0.00  0.00    +0.000 C 
ATOM      7  C   UNL     1      -7.192   6.938 131.153  0.00  0.00    +0.000 A 
ATOM      8  C   UNL     1      -6.049   6.254 131.499  0.00  0.00    +0.000 A 
ATOM      9  S   UNL     1      -6.218   4.565 131.286  0.00  0.00    +0.000 S 
ENDROOT
BRANCH   1  10
ATOM     10  C   UNL     1     -11.825   5.702 130.058  0.00  0.00    +0.000 C 
BRANCH  10  17
ATOM     11 CL   UNL     1     -12.236   7.069 126.761  0.00  0.00    +0.000 Cl
ATOM     12  C   UNL     1     -12.474   7.694 128.362  0.00  0.00    +0.000 A 
ATOM     13  C   UNL     1     -12.922   9.011 128.240  0.00  0.00    +0.000 A 
ATOM     14  C   UNL     1     -13.208   9.769 129.343  0.00  0.00    +0.000 A 
ATOM     15  C   UNL     1     -13.053   9.230 130.613  0.00  0.00    +0.000 A 
ATOM     16  C   UNL     1     -12.601   7.914 130.764  0.00  0.00    +0.000 A 
ATOM     17  C   UNL     1     -12.295   7.106 129.651  0.00  0.00    +0.000 A 
ENDBRANCH  10  17
ENDBRANCH   1  10
TORSDOF 2
ENDMDL
MODEL 5
REMARK VINA RESULT:      -6.2      9.087     10.014
REMARK  Name = Ticlopidine
REMARK  2 active torsions:
REMARK  status: ('A' for Active; 'I' for Inactive)
REMARK    1  A    between atoms: C_7  and  C_8
REMARK    2  A    between atoms: C_8  and  N_9
REMARK                            x       y       z     vdW  Elec       q    Type
REMARK                         _______ _______ _______ _____ _____    ______ ____
ROOT
ATOM      1  N   UNL     1      -7.448  -2.863 127.857  0.00  0.00    +0.000 NA
ATOM      2  C   UNL     1      -6.584  -1.765 127.386  0.00  0.00    +0.000 C 
ATOM      3  C   UNL     1      -6.185  -1.832 125.908  0.00  0.00    +0.000 C 
ATOM      4  C   UNL     1      -7.304  -2.373 125.079  0.00  0.00    +0.000 A 
ATOM      5  C   UNL     1      -8.394  -3.050 125.587  0.00  0.00    +0.000 A 
ATOM      6  C   UNL     1      -8.596  -3.303 127.042  0.00  0.00    +0.000 C 
ATOM      7  C   UNL     1      -9.361  -3.313 124.568  0.00  0.00    +0.000 A 
ATOM      8  C   UNL     1      -8.924  -2.910 123.327  0.00  0.00    +0.000 A 
ATOM      9  S   UNL     1      -7.387  -2.161 123.397  0.00  0.00    +0.000 S 
ENDROOT
BRANCH   1  10
ATOM     10  C   UNL     1      -7.905  -2.589 129.210  0.00  0.00    +0.000 C 
BRANCH  10  17
ATOM     11 CL   UNL     1      -7.951  -1.642 132.675  0.00  0.00    +0.000 Cl
ATOM     12  C   UNL     1      -7.119  -2.868 131.773  0.00  0.00    +0.000 A 
ATOM     13  C   UNL     1      -6.328  -3.589 132.669  0.00  0.00    +0.000 A 
ATOM     14  C   UNL     1      -5.554  -4.637 132.251  0.00  0.00    +0.000 A 
ATOM     15  C   UNL     1      -5.547  -5.001 130.911  0.00  0.00    +0.000 A 
ATOM     16  C   UNL     1      -6.329  -4.292 129.990  0.00  0.00    +0.000 A 
ATOM     17  C   UNL     1      -7.135  -3.206 130.386  0.00  0.00    +0.000 A 
ENDBRANCH  10  17
ENDBRANCH   1  10
TORSDOF 2
ENDMDL
MODEL 6
REMARK VINA RESULT:      -6.2      2.342      3.174
REMARK  Name = Ticlopidine
REMARK  2 active torsions:
REMARK  status: ('A' for Active; 'I' for Inactive)
REMARK    1  A    between atoms: C_7  and  C_8
REMARK    2  A    between atoms: C_8  and  N_9
REMARK                            x       y       z     vdW  Elec       q    Type
REMARK                         _______ _______ _______ _____ _____    ______ ____
ROOT
ATOM      1  N   UNL     1      -9.378   6.424 131.695  0.00  0.00    +0.000 NA
ATOM      2  C   UNL     1     -10.720   5.908 132.020  0.00  0.00    +0.000 C 
ATOM      3  C   UNL     1     -11.888   6.807 131.601  0.00  0.00    +0.000 C 
ATOM      4  C   UNL     1     -11.594   7.492 130.306  0.00  0.00    +0.000 A 
ATOM      5  C   UNL     1     -10.336   7.598 129.749  0.00  0.00    +0.000 A 
ATOM      6  C   UNL     1      -9.113   7.012 130.368  0.00  0.00    +0.000 C 
ATOM      7  C   UNL     1     -10.396   8.177 128.443  0.00  0.00    +0.000 A 
ATOM      8  C   UNL     1     -11.673   8.567 128.110  0.00  0.00    +0.000 A 
ATOM      9  S   UNL     1     -12.805   8.179 129.334  0.00  0.00    +0.000 S 
ENDROOT
BRANCH   1  10
ATOM     10  C   UNL     1      -8.376   5.407 131.970  0.00  0.00    +0.000 C 
BRANCH  10  17
ATOM     11 CL   UNL     1      -4.896   6.292 132.058  0.00  0.00    +0.000 Cl
ATOM     12  C   UNL     1      -6.079   5.938 133.276  0.00  0.00    +0.000 A 
ATOM     13  C   UNL     1      -5.452   6.047 134.519  0.00  0.00    +0.000 A 
ATOM     14  C   UNL     1      -6.139   5.831 135.683  0.00  0.00    +0.000 A 
ATOM     15  C   UNL     1      -7.486   5.496 135.640  0.00  0.00    +0.000 A 
ATOM     16  C   UNL     1      -8.138   5.376 134.407  0.00  0.00    +0.000 A 
ATOM     17  C   UNL     1      -7.461   5.589 133.189  0.00  0.00    +0.000 A 
ENDBRANCH  10  17
ENDBRANCH   1  10
TORSDOF 2
ENDMDL
MODEL 7
REMARK VINA RESULT:      -6.0      9.288     11.000
REMARK  Name = Ticlopidine
REMARK  2 active torsions:
REMARK  status: ('A' for Active; 'I' for Inactive)
REMARK    1  A    between atoms: C_7  and  C_8
REMARK    2  A    between atoms: C_8  and  N_9
REMARK                            x       y       z     vdW  Elec       q    Type
REMARK                         _______ _______ _______ _____ _____    ______ ____
ROOT
ATOM      1  N   UNL     1      -6.536  -2.455 127.637  0.00  0.00    +0.000 NA
ATOM      2  C   UNL     1      -7.625  -2.346 128.624  0.00  0.00    +0.000 C 
ATOM      3  C   UNL     1      -7.515  -3.288 129.828  0.00  0.00    +0.000 C 
ATOM      4  C   UNL     1      -6.090  -3.464 130.237  0.00  0.00    +0.000 A 
ATOM      5  C   UNL     1      -5.006  -3.136 129.447  0.00  0.00    +0.000 A 
ATOM      6  C   UNL     1      -5.134  -2.537 128.088  0.00  0.00    +0.000 C 
ATOM      7  C   UNL     1      -3.778  -3.283 130.166  0.00  0.00    +0.000 A 
ATOM      8  C   UNL     1      -3.978  -3.800 131.425  0.00  0.00    +0.000 A 
ATOM      9  S   UNL     1      -5.637  -4.046 131.766  0.00  0.00    +0.000 S 
ENDROOT
BRANCH   1  10
ATOM     10  C   UNL     1      -6.654  -1.393 126.650  0.00  0.00    +0.000 C 
BRANCH  10  17
ATOM     11 CL   UNL     1      -9.763  -3.004 125.848  0.00  0.00    +0.000 Cl
ATOM     12  C   UNL     1      -8.456  -2.369 124.900  0.00  0.00    +0.000 A 
ATOM     13  C   UNL     1      -8.772  -2.571 123.555  0.00  0.00    +0.000 A 
ATOM     14  C   UNL     1      -7.928  -2.162 122.558  0.00  0.00    +0.000 A 
ATOM     15  C   UNL     1      -6.732  -1.534 122.877  0.00  0.00    +0.000 A 
ATOM     16  C   UNL     1      -6.388  -1.323 124.218  0.00  0.00    +0.000 A 
ATOM     17  C   UNL     1      -7.232  -1.733 125.270  0.00  0.00    +0.000 A 
ENDBRANCH  10  17
ENDBRANCH   1  10
TORSDOF 2
ENDMDL
MODEL 8
REMARK VINA RESULT:      -6.0      1.415      1.885
REMARK  Name = Ticlopidine
REMARK  2 active torsions:
REMARK  status: ('A' for Active; 'I' for Inactive)
REMARK    1  A    between atoms: C_7  and  C_8
REMARK    2  A    between atoms: C_8  and  N_9
REMARK                            x       y       z     vdW  Elec       q    Type
REMARK                         _______ _______ _______ _____ _____    ______ ____
ROOT
ATOM      1  N   UNL     1      -9.282   6.707 131.521  0.00  0.00    +0.000 NA
ATOM      2  C   UNL     1     -10.526   5.992 131.859  0.00  0.00    +0.000 C 
ATOM      3  C   UNL     1     -11.821   6.693 131.437  0.00  0.00    +0.000 C 
ATOM      4  C   UNL     1     -11.643   7.400 130.134  0.00  0.00    +0.000 A 
ATOM      5  C   UNL     1     -10.418   7.694 129.568  0.00  0.00    +0.000 A 
ATOM      6  C   UNL     1      -9.117   7.314 130.187  0.00  0.00    +0.000 C 
ATOM      7  C   UNL     1     -10.573   8.243 128.256  0.00  0.00    +0.000 A 
ATOM      8  C   UNL     1     -11.896   8.425 127.926  0.00  0.00    +0.000 A 
ATOM      9  S   UNL     1     -12.949   7.879 129.160  0.00  0.00    +0.000 S 
ENDROOT
BRANCH   1  10
ATOM     10  C   UNL     1      -8.133   5.862 131.802  0.00  0.00    +0.000 C 
BRANCH  10  17
ATOM     11 CL   UNL     1      -9.292   2.881 133.438  0.00  0.00    +0.000 Cl
ATOM     12  C   UNL     1      -8.582   3.206 131.888  0.00  0.00    +0.000 A 
ATOM     13  C   UNL     1      -8.484   1.992 131.205  0.00  0.00    +0.000 A 
ATOM     14  C   UNL     1      -7.967   1.929 129.940  0.00  0.00    +0.000 A 
ATOM     15  C   UNL     1      -7.527   3.087 129.313  0.00  0.00    +0.000 A 
ATOM     16  C   UNL     1      -7.610   4.317 129.977  0.00  0.00    +0.000 A 
ATOM     17  C   UNL     1      -8.135   4.418 131.281  0.00  0.00    +0.000 A 
ENDBRANCH  10  17
ENDBRANCH   1  10
TORSDOF 2
ENDMDL
MODEL 9
REMARK VINA RESULT:      -6.0      9.110     10.805
REMARK  Name = Ticlopidine
REMARK  2 active torsions:
REMARK  status: ('A' for Active; 'I' for Inactive)
REMARK    1  A    between atoms: C_7  and  C_8
REMARK    2  A    between atoms: C_8  and  N_9
REMARK                            x       y       z     vdW  Elec       q    Type
REMARK                         _______ _______ _______ _____ _____    ______ ____
ROOT
ATOM      1  N   UNL     1      -6.901  -2.409 127.614  0.00  0.00    +0.000 NA
ATOM      2  C   UNL     1      -7.837  -2.379 128.753  0.00  0.00    +0.000 C 
ATOM      3  C   UNL     1      -7.489  -3.318 129.913  0.00  0.00    +0.000 C 
ATOM      4  C   UNL     1      -6.010  -3.402 130.104  0.00  0.00    +0.000 A 
ATOM      5  C   UNL     1      -5.079  -2.998 129.168  0.00  0.00    +0.000 A 
ATOM      6  C   UNL     1      -5.446  -2.401 127.852  0.00  0.00    +0.000 C 
ATOM      7  C   UNL     1      -3.752  -3.067 129.695  0.00  0.00    +0.000 A 
ATOM      8  C   UNL     1      -3.728  -3.603 130.962  0.00  0.00    +0.000 A 
ATOM      9  S   UNL     1      -5.299  -3.961 131.540  0.00  0.00    +0.000 S 
ENDROOT
BRANCH   1  10
ATOM     10  C   UNL     1      -7.233  -1.352 126.672  0.00  0.00    +0.000 C 
BRANCH  10  17
ATOM     11 CL   UNL     1      -7.080   0.410 123.546  0.00  0.00    +0.000 Cl
ATOM     12  C   UNL     1      -7.818  -1.076 124.056  0.00  0.00    +0.000 A 
ATOM     13  C   UNL     1      -8.462  -1.631 122.948  0.00  0.00    +0.000 A 
ATOM     14  C   UNL     1      -9.131  -2.821 123.038  0.00  0.00    +0.000 A 
ATOM     15  C   UNL     1      -9.179  -3.498 124.249  0.00  0.00    +0.000 A 
ATOM     16  C   UNL     1      -8.546  -2.962 125.377  0.00  0.00    +0.000 A 
ATOM     17  C   UNL     1      -7.849  -1.738 125.320  0.00  0.00    +0.000 A 
ENDBRANCH  10  17
ENDBRANCH   1  10
TORSDOF 2
ENDMDL
