MODEL 1
REMARK VINA RESULT:      -8.1      0.000      0.000
REMARK  Name = Tigecycline
REMARK  18 active torsions:
REMARK  status: ('A' for Active; 'I' for Inactive)
REMARK    1  A    between atoms: C_6  and  O_7
REMARK    2  A    between atoms: C_8  and  N_9
REMARK    3  A    between atoms: C_10  and  C_12
REMARK    4  A    between atoms: C_12  and  N_13
REMARK    5  A    between atoms: N_13  and  C_14
REMARK    6  A    between atoms: C_14  and  C_15
REMARK    7  A    between atoms: C_14  and  C_16
REMARK    8  A    between atoms: C_14  and  C_17
REMARK    9  A    between atoms: C_19  and  N_20
REMARK   10  A    between atoms: N_20  and  C_21
REMARK   11  A    between atoms: N_20  and  C_22
REMARK   12  A    between atoms: C_26  and  O_27
REMARK   13  A    between atoms: C_28  and  O_29
REMARK   14  A    between atoms: C_32  and  C_33
REMARK   15  A    between atoms: C_36  and  O_37
REMARK   16  A    between atoms: C_38  and  N_39
REMARK   17  A    between atoms: N_39  and  C_40
REMARK   18  A    between atoms: N_39  and  C_41
REMARK                            x       y       z     vdW  Elec       q    Type
REMARK                         _______ _______ _______ _____ _____    ______ ____
ROOT
ATOM      1  C   UNL     1      -6.574   0.406 130.356  0.00  0.00    +0.000 C 
ATOM      2  C   UNL     1      -6.308   1.858 130.187  0.00  0.00    +0.000 C 
ATOM      3  C   UNL     1      -7.421   2.810 130.121  0.00  0.00    +0.000 A 
ATOM      4  C   UNL     1      -8.581   2.414 130.789  0.00  0.00    +0.000 A 
ATOM      5  C   UNL     1      -9.676   3.241 130.796  0.00  0.00    +0.000 A 
ATOM      6  C   UNL     1      -9.645   4.488 130.177  0.00  0.00    +0.000 A 
ATOM      7  C   UNL     1      -8.438   4.875 129.517  0.00  0.00    +0.000 A 
ATOM      8  C   UNL     1      -7.264   4.061 129.472  0.00  0.00    +0.000 A 
ATOM      9  C   UNL     1      -8.689   1.118 131.515  0.00  0.00    +0.000 C 
ATOM     10  O   UNL     1      -9.640   0.870 132.258  0.00  0.00    +0.000 OA
ATOM     11  C   UNL     1      -7.618   0.126 131.358  0.00  0.00    +0.000 C 
ATOM     12  C   UNL     1      -7.612  -0.994 132.099  0.00  0.00    +0.000 C 
ATOM     13  C   UNL     1      -6.539  -2.051 131.955  0.00  0.00    +0.000 C 
ATOM     14  C   UNL     1      -5.869  -2.395 133.268  0.00  0.00    +0.000 C 
ATOM     15  O   UNL     1      -5.881  -1.607 134.224  0.00  0.00    +0.000 OA
ATOM     16  C   UNL     1      -4.894  -3.540 133.280  0.00  0.00    +0.000 C 
ATOM     17  C   UNL     1      -3.812  -2.917 132.808  0.00  0.00    +0.000 C 
ATOM     18  C   UNL     1      -3.982  -2.390 131.195  0.00  0.00    +0.000 C 
ATOM     19  C   UNL     1      -5.369  -1.633 131.034  0.00  0.00    +0.000 C 
ATOM     20  C   UNL     1      -5.205  -0.168 130.747  0.00  0.00    +0.000 C 
ENDROOT
BRANCH  16  21
ATOM     21  C   UNL     1      -4.751  -4.745 132.389  0.00  0.00    +0.000 C 
ATOM     22  N   UNL     1      -5.862  -5.124 131.637  0.00  0.00    +0.000 N 
ATOM     23  O   UNL     1      -3.760  -5.482 132.395  0.00  0.00    +0.000 OA
ATOM     24  H   UNL     1      -6.769  -4.687 131.807  0.00  0.00    +0.000 HD
ATOM     25  H   UNL     1      -5.969  -6.124 131.513  0.00  0.00    +0.000 HD
ENDBRANCH  16  21
BRANCH   6  26
ATOM     26  N   UNL     1     -10.777   5.368 130.184  0.00  0.00    +0.000 N 
ATOM     27  C   UNL     1     -11.139   6.221 131.233  0.00  0.00    +0.000 C 
ATOM     28  O   UNL     1     -10.559   6.470 132.287  0.00  0.00    +0.000 OA
ATOM     29  H   UNL     1     -11.338   5.392 129.340  0.00  0.00    +0.000 HD
BRANCH  27  30
ATOM     30  C   UNL     1     -12.385   7.038 131.030  0.00  0.00    +0.000 C 
BRANCH  30  31
ATOM     31  N   UNL     1     -12.748   6.885 129.601  0.00  0.00    +0.000 NA
ATOM     32  H   UNL     1     -13.624   6.350 129.541  0.00  0.00    +0.000 HD
BRANCH  31  33
ATOM     33  C   UNL     1     -12.738   8.080 128.793  0.00  0.00    +0.000 C 
ATOM     34  C   UNL     1     -13.887   8.020 127.789  0.00  0.00    +0.000 C 
ATOM     35  C   UNL     1     -12.852   9.271 129.745  0.00  0.00    +0.000 C 
ATOM     36  C   UNL     1     -11.404   8.175 128.030  0.00  0.00    +0.000 C 
ENDBRANCH  31  33
ENDBRANCH  30  31
ENDBRANCH  27  30
ENDBRANCH   6  26
BRANCH   8  37
ATOM     37  N   UNL     1      -6.058   4.461 128.877  0.00  0.00    +0.000 N 
ATOM     38  C   UNL     1      -5.579   4.249 127.482  0.00  0.00    +0.000 C 
ATOM     39  C   UNL     1      -5.087   5.300 129.580  0.00  0.00    +0.000 C 
ENDBRANCH   8  37
BRANCH  18  40
ATOM     40  N   UNL     1      -3.926  -3.117 129.856  0.00  0.00    +0.000 NA
ATOM     41  C   UNL     1      -2.698  -3.664 129.186  0.00  0.00    +0.000 C 
ATOM     42  C   UNL     1      -4.898  -2.834 128.836  0.00  0.00    +0.000 C 
ENDBRANCH  18  40
BRANCH   5  43
ATOM     43  O   UNL     1     -10.804   2.749 131.349  0.00  0.00    +0.000 OA
ATOM     44  H   UNL     1     -11.436   2.348 130.725  0.00  0.00    +0.000 HD
ENDBRANCH   5  43
BRANCH  12  45
ATOM     45  O   UNL     1      -8.628  -1.318 132.987  0.00  0.00    +0.000 OA
ATOM     46  H   UNL     1      -9.475  -1.319 132.481  0.00  0.00    +0.000 HD
ENDBRANCH  12  45
BRANCH  13  47
ATOM     47  O   UNL     1      -7.252  -3.163 131.437  0.00  0.00    +0.000 OA
ATOM     48  H   UNL     1      -7.361  -2.988 130.482  0.00  0.00    +0.000 HD
ENDBRANCH  13  47
BRANCH  17  49
ATOM     49  O   UNL     1      -2.602  -3.307 133.491  0.00  0.00    +0.000 OA
ATOM     50  H   UNL     1      -2.557  -2.786 134.353  0.00  0.00    +0.000 HD
ENDBRANCH  17  49
TORSDOF 11
ENDMDL
MODEL 2
REMARK VINA RESULT:      -7.7      5.742      8.486
REMARK  Name = Tigecycline
REMARK  18 active torsions:
REMARK  status: ('A' for Active; 'I' for Inactive)
REMARK    1  A    between atoms: C_6  and  O_7
REMARK    2  A    between atoms: C_8  and  N_9
REMARK    3  A    between atoms: C_10  and  C_12
REMARK    4  A    between atoms: C_12  and  N_13
REMARK    5  A    between atoms: N_13  and  C_14
REMARK    6  A    between atoms: C_14  and  C_15
REMARK    7  A    between atoms: C_14  and  C_16
REMARK    8  A    between atoms: C_14  and  C_17
REMARK    9  A    between atoms: C_19  and  N_20
REMARK   10  A    between atoms: N_20  and  C_21
REMARK   11  A    between atoms: N_20  and  C_22
REMARK   12  A    between atoms: C_26  and  O_27
REMARK   13  A    between atoms: C_28  and  O_29
REMARK   14  A    between atoms: C_32  and  C_33
REMARK   15  A    between atoms: C_36  and  O_37
REMARK   16  A    between atoms: C_38  and  N_39
REMARK   17  A    between atoms: N_39  and  C_40
REMARK   18  A    between atoms: N_39  and  C_41
REMARK                            x       y       z     vdW  Elec       q    Type
REMARK                         _______ _______ _______ _____ _____    ______ ____
ROOT
ATOM      1  C   UNL     1      -6.899   2.475 128.554  0.00  0.00    +0.000 C 
ATOM      2  C   UNL     1      -7.274   3.002 129.892  0.00  0.00    +0.000 C 
ATOM      3  C   UNL     1      -6.369   3.905 130.611  0.00  0.00    +0.000 A 
ATOM      4  C   UNL     1      -5.527   4.670 129.801  0.00  0.00    +0.000 A 
ATOM      5  C   UNL     1      -4.651   5.553 130.377  0.00  0.00    +0.000 A 
ATOM      6  C   UNL     1      -4.605   5.732 131.757  0.00  0.00    +0.000 A 
ATOM      7  C   UNL     1      -5.492   4.950 132.560  0.00  0.00    +0.000 A 
ATOM      8  C   UNL     1      -6.426   4.011 132.023  0.00  0.00    +0.000 A 
ATOM      9  C   UNL     1      -5.539   4.577 128.314  0.00  0.00    +0.000 C 
ATOM     10  O   UNL     1      -4.937   5.390 127.611  0.00  0.00    +0.000 OA
ATOM     11  C   UNL     1      -6.311   3.503 127.676  0.00  0.00    +0.000 C 
ATOM     12  C   UNL     1      -6.457   3.468 126.342  0.00  0.00    +0.000 C 
ATOM     13  C   UNL     1      -7.227   2.369 125.643  0.00  0.00    +0.000 C 
ATOM     14  C   UNL     1      -8.309   2.898 124.726  0.00  0.00    +0.000 C 
ATOM     15  O   UNL     1      -8.786   4.031 124.878  0.00  0.00    +0.000 OA
ATOM     16  C   UNL     1      -9.040   1.909 123.860  0.00  0.00    +0.000 C 
ATOM     17  C   UNL     1      -9.921   1.443 124.747  0.00  0.00    +0.000 C 
ATOM     18  C   UNL     1      -9.198   0.581 126.031  0.00  0.00    +0.000 C 
ATOM     19  C   UNL     1      -7.981   1.423 126.607  0.00  0.00    +0.000 C 
ATOM     20  C   UNL     1      -8.217   1.910 128.007  0.00  0.00    +0.000 C 
ENDROOT
BRANCH  16  21
ATOM     21  C   UNL     1      -8.650   0.553 123.336  0.00  0.00    +0.000 C 
ATOM     22  N   UNL     1      -7.289   0.268 123.243  0.00  0.00    +0.000 N 
ATOM     23  O   UNL     1      -9.458  -0.253 122.864  0.00  0.00    +0.000 OA
ATOM     24  H   UNL     1      -6.599   1.007 123.384  0.00  0.00    +0.000 HD
ATOM     25  H   UNL     1      -7.030  -0.311 122.453  0.00  0.00    +0.000 HD
ENDBRANCH  16  21
BRANCH   6  26
ATOM     26  N   UNL     1      -3.702   6.659 132.374  0.00  0.00    +0.000 N 
ATOM     27  C   UNL     1      -2.311   6.516 132.445  0.00  0.00    +0.000 C 
ATOM     28  O   UNL     1      -1.576   5.668 131.946  0.00  0.00    +0.000 OA
ATOM     29  H   UNL     1      -4.111   7.502 132.761  0.00  0.00    +0.000 HD
BRANCH  27  30
ATOM     30  C   UNL     1      -1.564   7.604 133.166  0.00  0.00    +0.000 C 
BRANCH  30  31
ATOM     31  N   UNL     1      -2.270   8.868 132.847  0.00  0.00    +0.000 NA
ATOM     32  H   UNL     1      -3.282   8.707 132.925  0.00  0.00    +0.000 HD
BRANCH  31  33
ATOM     33  C   UNL     1      -1.816  10.059 133.522  0.00  0.00    +0.000 C 
ATOM     34  C   UNL     1      -2.154  11.281 132.672  0.00  0.00    +0.000 C 
ATOM     35  C   UNL     1      -2.496  10.089 134.891  0.00  0.00    +0.000 C 
ATOM     36  C   UNL     1      -0.291   9.988 133.723  0.00  0.00    +0.000 C 
ENDBRANCH  31  33
ENDBRANCH  30  31
ENDBRANCH  27  30
ENDBRANCH   6  26
BRANCH   8  37
ATOM     37  N   UNL     1      -7.339   3.284 132.802  0.00  0.00    +0.000 N 
ATOM     38  C   UNL     1      -7.195   1.931 133.408  0.00  0.00    +0.000 C 
ATOM     39  C   UNL     1      -8.610   3.859 133.245  0.00  0.00    +0.000 C 
ENDBRANCH   8  37
BRANCH  18  40
ATOM     40  N   UNL     1      -8.616  -0.824 126.137  0.00  0.00    +0.000 NA
ATOM     41  C   UNL     1      -9.333  -2.113 125.852  0.00  0.00    +0.000 C 
ATOM     42  C   UNL     1      -7.560  -1.102 127.071  0.00  0.00    +0.000 C 
ENDBRANCH  18  40
BRANCH   5  43
ATOM     43  O   UNL     1      -3.779   6.169 129.551  0.00  0.00    +0.000 OA
ATOM     44  H   UNL     1      -2.906   5.744 129.472  0.00  0.00    +0.000 HD
ENDBRANCH   5  43
BRANCH  12  45
ATOM     45  O   UNL     1      -5.843   4.376 125.491  0.00  0.00    +0.000 OA
ATOM     46  H   UNL     1      -5.288   3.862 124.858  0.00  0.00    +0.000 HD
ENDBRANCH  12  45
BRANCH  13  47
ATOM     47  O   UNL     1      -6.221   1.689 124.908  0.00  0.00    +0.000 OA
ATOM     48  H   UNL     1      -5.872   1.001 125.509  0.00  0.00    +0.000 HD
ENDBRANCH  13  47
BRANCH  17  49
ATOM     49  O   UNL     1     -11.236   1.256 124.184  0.00  0.00    +0.000 OA
ATOM     50  H   UNL     1     -11.623   0.416 124.587  0.00  0.00    +0.000 HD
ENDBRANCH  17  49
TORSDOF 11
ENDMDL
MODEL 3
REMARK VINA RESULT:      -7.6      2.502      2.950
REMARK  Name = Tigecycline
REMARK  18 active torsions:
REMARK  status: ('A' for Active; 'I' for Inactive)
REMARK    1  A    between atoms: C_6  and  O_7
REMARK    2  A    between atoms: C_8  and  N_9
REMARK    3  A    between atoms: C_10  and  C_12
REMARK    4  A    between atoms: C_12  and  N_13
REMARK    5  A    between atoms: N_13  and  C_14
REMARK    6  A    between atoms: C_14  and  C_15
REMARK    7  A    between atoms: C_14  and  C_16
REMARK    8  A    between atoms: C_14  and  C_17
REMARK    9  A    between atoms: C_19  and  N_20
REMARK   10  A    between atoms: N_20  and  C_21
REMARK   11  A    between atoms: N_20  and  C_22
REMARK   12  A    between atoms: C_26  and  O_27
REMARK   13  A    between atoms: C_28  and  O_29
REMARK   14  A    between atoms: C_32  and  C_33
REMARK   15  A    between atoms: C_36  and  O_37
REMARK   16  A    between atoms: C_38  and  N_39
REMARK   17  A    between atoms: N_39  and  C_40
REMARK   18  A    between atoms: N_39  and  C_41
REMARK                            x       y       z     vdW  Elec       q    Type
REMARK                         _______ _______ _______ _____ _____    ______ ____
ROOT
ATOM      1  C   UNL     1      -6.269   1.240 133.250  0.00  0.00    +0.000 C 
ATOM      2  C   UNL     1      -6.516   2.456 134.069  0.00  0.00    +0.000 C 
ATOM      3  C   UNL     1      -7.533   3.428 133.659  0.00  0.00    +0.000 A 
ATOM      4  C   UNL     1      -8.584   2.904 132.903  0.00  0.00    +0.000 A 
ATOM      5  C   UNL     1      -9.593   3.731 132.480  0.00  0.00    +0.000 A 
ATOM      6  C   UNL     1      -9.613   5.081 132.818  0.00  0.00    +0.000 A 
ATOM      7  C   UNL     1      -8.535   5.586 133.610  0.00  0.00    +0.000 A 
ATOM      8  C   UNL     1      -7.453   4.779 134.080  0.00  0.00    +0.000 A 
ATOM      9  C   UNL     1      -8.668   1.464 132.532  0.00  0.00    +0.000 C 
ATOM     10  O   UNL     1      -9.688   0.982 132.037  0.00  0.00    +0.000 OA
ATOM     11  C   UNL     1      -7.512   0.596 132.789  0.00  0.00    +0.000 C 
ATOM     12  C   UNL     1      -7.598  -0.730 132.595  0.00  0.00    +0.000 C 
ATOM     13  C   UNL     1      -6.425  -1.657 132.828  0.00  0.00    +0.000 C 
ATOM     14  C   UNL     1      -6.754  -2.800 133.764  0.00  0.00    +0.000 C 
ATOM     15  O   UNL     1      -7.694  -2.726 134.568  0.00  0.00    +0.000 OA
ATOM     16  C   UNL     1      -5.717  -3.873 133.954  0.00  0.00    +0.000 C 
ATOM     17  C   UNL     1      -4.932  -3.271 134.849  0.00  0.00    +0.000 C 
ATOM     18  C   UNL     1      -4.147  -1.884 134.239  0.00  0.00    +0.000 C 
ATOM     19  C   UNL     1      -5.206  -0.970 133.488  0.00  0.00    +0.000 C 
ATOM     20  C   UNL     1      -5.444   0.340 134.181  0.00  0.00    +0.000 C 
ENDROOT
BRANCH  16  21
ATOM     21  C   UNL     1      -4.584  -4.338 133.078  0.00  0.00    +0.000 C 
ATOM     22  N   UNL     1      -4.850  -4.514 131.722  0.00  0.00    +0.000 N 
ATOM     23  O   UNL     1      -3.487  -4.698 133.518  0.00  0.00    +0.000 OA
ATOM     24  H   UNL     1      -5.811  -4.472 131.379  0.00  0.00    +0.000 HD
ATOM     25  H   UNL     1      -4.354  -5.284 131.288  0.00  0.00    +0.000 HD
ENDBRANCH  16  21
BRANCH   6  26
ATOM     26  N   UNL     1     -10.667   5.956 132.393  0.00  0.00    +0.000 N 
ATOM     27  C   UNL     1     -11.020   6.218 131.064  0.00  0.00    +0.000 C 
ATOM     28  O   UNL     1     -10.602   5.721 130.021  0.00  0.00    +0.000 OA
ATOM     29  H   UNL     1     -11.217   6.393 133.123  0.00  0.00    +0.000 HD
BRANCH  27  30
ATOM     30  C   UNL     1     -12.145   7.195 130.852  0.00  0.00    +0.000 C 
BRANCH  30  31
ATOM     31  N   UNL     1     -12.585   7.013 129.448  0.00  0.00    +0.000 NA
ATOM     32  H   UNL     1     -13.440   6.441 129.444  0.00  0.00    +0.000 HD
BRANCH  31  33
ATOM     33  C   UNL     1     -12.675   8.200 128.633  0.00  0.00    +0.000 C 
ATOM     34  C   UNL     1     -13.887   8.089 127.712  0.00  0.00    +0.000 C 
ATOM     35  C   UNL     1     -12.766   9.395 129.582  0.00  0.00    +0.000 C 
ATOM     36  C   UNL     1     -11.401   8.336 127.779  0.00  0.00    +0.000 C 
ENDBRANCH  31  33
ENDBRANCH  30  31
ENDBRANCH  27  30
ENDBRANCH   6  26
BRANCH   8  37
ATOM     37  N   UNL     1      -6.424   5.256 134.905  0.00  0.00    +0.000 N 
ATOM     38  C   UNL     1      -6.315   5.226 136.391  0.00  0.00    +0.000 C 
ATOM     39  C   UNL     1      -5.176   5.790 134.358  0.00  0.00    +0.000 C 
ENDBRANCH   8  37
BRANCH  18  40
ATOM     40  N   UNL     1      -2.943  -1.694 133.323  0.00  0.00    +0.000 NA
ATOM     41  C   UNL     1      -1.526  -1.436 133.750  0.00  0.00    +0.000 C 
ATOM     42  C   UNL     1      -3.115  -1.149 132.005  0.00  0.00    +0.000 C 
ENDBRANCH  18  40
BRANCH   5  43
ATOM     43  O   UNL     1     -10.511   3.192 131.649  0.00  0.00    +0.000 OA
ATOM     44  H   UNL     1     -10.495   3.526 130.735  0.00  0.00    +0.000 HD
ENDBRANCH   5  43
BRANCH  12  45
ATOM     45  O   UNL     1      -8.729  -1.346 132.081  0.00  0.00    +0.000 OA
ATOM     46  H   UNL     1      -9.106  -0.750 131.393  0.00  0.00    +0.000 HD
ENDBRANCH  12  45
BRANCH  13  47
ATOM     47  O   UNL     1      -6.127  -2.132 131.525  0.00  0.00    +0.000 OA
ATOM     48  H   UNL     1      -5.358  -1.610 131.221  0.00  0.00    +0.000 HD
ENDBRANCH  13  47
BRANCH  17  49
ATOM     49  O   UNL     1      -4.473  -4.167 135.882  0.00  0.00    +0.000 OA
ATOM     50  H   UNL     1      -4.440  -5.095 135.487  0.00  0.00    +0.000 HD
ENDBRANCH  17  49
TORSDOF 11
ENDMDL
MODEL 4
REMARK VINA RESULT:      -7.5      5.378      6.903
REMARK  Name = Tigecycline
REMARK  18 active torsions:
REMARK  status: ('A' for Active; 'I' for Inactive)
REMARK    1  A    between atoms: C_6  and  O_7
REMARK    2  A    between atoms: C_8  and  N_9
REMARK    3  A    between atoms: C_10  and  C_12
REMARK    4  A    between atoms: C_12  and  N_13
REMARK    5  A    between atoms: N_13  and  C_14
REMARK    6  A    between atoms: C_14  and  C_15
REMARK    7  A    between atoms: C_14  and  C_16
REMARK    8  A    between atoms: C_14  and  C_17
REMARK    9  A    between atoms: C_19  and  N_20
REMARK   10  A    between atoms: N_20  and  C_21
REMARK   11  A    between atoms: N_20  and  C_22
REMARK   12  A    between atoms: C_26  and  O_27
REMARK   13  A    between atoms: C_28  and  O_29
REMARK   14  A    between atoms: C_32  and  C_33
REMARK   15  A    between atoms: C_36  and  O_37
REMARK   16  A    between atoms: C_38  and  N_39
REMARK   17  A    between atoms: N_39  and  C_40
REMARK   18  A    between atoms: N_39  and  C_41
REMARK                            x       y       z     vdW  Elec       q    Type
REMARK                         _______ _______ _______ _____ _____    ______ ____
ROOT
ATOM      1  C   UNL     1      -6.628  -1.505 128.848  0.00  0.00    +0.000 C 
ATOM      2  C   UNL     1      -6.932  -2.060 127.503  0.00  0.00    +0.000 C 
ATOM      3  C   UNL     1      -7.055  -1.167 126.347  0.00  0.00    +0.000 A 
ATOM      4  C   UNL     1      -6.325   0.020 126.433  0.00  0.00    +0.000 A 
ATOM      5  C   UNL     1      -6.364   0.918 125.398  0.00  0.00    +0.000 A 
ATOM      6  C   UNL     1      -7.092   0.657 124.240  0.00  0.00    +0.000 A 
ATOM      7  C   UNL     1      -7.814  -0.574 124.171  0.00  0.00    +0.000 A 
ATOM      8  C   UNL     1      -7.817  -1.551 125.214  0.00  0.00    +0.000 A 
ATOM      9  C   UNL     1      -5.483   0.362 127.614  0.00  0.00    +0.000 C 
ATOM     10  O   UNL     1      -4.697   1.311 127.595  0.00  0.00    +0.000 OA
ATOM     11  C   UNL     1      -5.578  -0.471 128.819  0.00  0.00    +0.000 C 
ATOM     12  C   UNL     1      -4.740  -0.278 129.850  0.00  0.00    +0.000 C 
ATOM     13  C   UNL     1      -4.817  -1.100 131.118  0.00  0.00    +0.000 C 
ATOM     14  C   UNL     1      -3.496  -1.741 131.486  0.00  0.00    +0.000 C 
ATOM     15  O   UNL     1      -2.614  -1.935 130.638  0.00  0.00    +0.000 OA
ATOM     16  C   UNL     1      -3.407  -2.458 132.805  0.00  0.00    +0.000 C 
ATOM     17  C   UNL     1      -3.959  -3.623 132.465  0.00  0.00    +0.000 C 
ATOM     18  C   UNL     1      -5.609  -3.496 132.048  0.00  0.00    +0.000 C 
ATOM     19  C   UNL     1      -5.801  -2.290 131.032  0.00  0.00    +0.000 C 
ATOM     20  C   UNL     1      -6.222  -2.742 129.663  0.00  0.00    +0.000 C 
ENDROOT
BRANCH  16  21
ATOM     21  C   UNL     1      -4.190  -2.308 134.082  0.00  0.00    +0.000 C 
ATOM     22  N   UNL     1      -4.736  -1.056 134.359  0.00  0.00    +0.000 N 
ATOM     23  O   UNL     1      -4.255  -3.187 134.948  0.00  0.00    +0.000 OA
ATOM     24  H   UNL     1      -4.481  -0.249 133.789  0.00  0.00    +0.000 HD
ATOM     25  H   UNL     1      -4.747  -0.806 135.341  0.00  0.00    +0.000 HD
ENDBRANCH  16  21
BRANCH   6  26
ATOM     26  N   UNL     1      -7.135   1.580 123.144  0.00  0.00    +0.000 N 
ATOM     27  C   UNL     1      -8.051   2.629 122.999  0.00  0.00    +0.000 C 
ATOM     28  O   UNL     1      -8.916   3.037 123.770  0.00  0.00    +0.000 OA
ATOM     29  H   UNL     1      -6.418   1.478 122.435  0.00  0.00    +0.000 HD
BRANCH  27  30
ATOM     30  C   UNL     1      -7.925   3.458 121.750  0.00  0.00    +0.000 C 
BRANCH  30  31
ATOM     31  N   UNL     1      -6.676   4.242 121.903  0.00  0.00    +0.000 NA
ATOM     32  H   UNL     1      -6.243   3.995 122.803  0.00  0.00    +0.000 HD
BRANCH  31  33
ATOM     33  C   UNL     1      -5.757   4.230 120.792  0.00  0.00    +0.000 C 
ATOM     34  C   UNL     1      -4.646   5.247 121.044  0.00  0.00    +0.000 C 
ATOM     35  C   UNL     1      -5.226   2.802 120.660  0.00  0.00    +0.000 C 
ATOM     36  C   UNL     1      -6.505   4.606 119.500  0.00  0.00    +0.000 C 
ENDBRANCH  31  33
ENDBRANCH  30  31
ENDBRANCH  27  30
ENDBRANCH   6  26
BRANCH   8  37
ATOM     37  N   UNL     1      -8.476  -2.786 125.128  0.00  0.00    +0.000 N 
ATOM     38  C   UNL     1      -8.036  -4.046 124.466  0.00  0.00    +0.000 C 
ATOM     39  C   UNL     1      -9.735  -3.043 125.829  0.00  0.00    +0.000 C 
ENDBRANCH   8  37
BRANCH  18  40
ATOM     40  N   UNL     1      -6.878  -3.341 132.878  0.00  0.00    +0.000 NA
ATOM     41  C   UNL     1      -7.689  -2.088 133.047  0.00  0.00    +0.000 C 
ATOM     42  C   UNL     1      -7.093  -4.166 134.035  0.00  0.00    +0.000 C 
ENDBRANCH  18  40
BRANCH   5  43
ATOM     43  O   UNL     1      -5.740   2.099 125.594  0.00  0.00    +0.000 OA
ATOM     44  H   UNL     1      -5.097   2.352 124.909  0.00  0.00    +0.000 HD
ENDBRANCH   5  43
BRANCH  12  45
ATOM     45  O   UNL     1      -3.802   0.744 129.879  0.00  0.00    +0.000 OA
ATOM     46  H   UNL     1      -3.569   0.908 130.823  0.00  0.00    +0.000 HD
ENDBRANCH  12  45
BRANCH  13  47
ATOM     47  O   UNL     1      -5.214  -0.150 132.094  0.00  0.00    +0.000 OA
ATOM     48  H   UNL     1      -4.422   0.014 132.643  0.00  0.00    +0.000 HD
ENDBRANCH  13  47
BRANCH  17  49
ATOM     49  O   UNL     1      -3.276  -4.755 133.043  0.00  0.00    +0.000 OA
ATOM     50  H   UNL     1      -3.697  -5.590 132.666  0.00  0.00    +0.000 HD
ENDBRANCH  17  49
TORSDOF 11
ENDMDL
MODEL 5
REMARK VINA RESULT:      -7.3      5.072      7.806
REMARK  Name = Tigecycline
REMARK  18 active torsions:
REMARK  status: ('A' for Active; 'I' for Inactive)
REMARK    1  A    between atoms: C_6  and  O_7
REMARK    2  A    between atoms: C_8  and  N_9
REMARK    3  A    between atoms: C_10  and  C_12
REMARK    4  A    between atoms: C_12  and  N_13
REMARK    5  A    between atoms: N_13  and  C_14
REMARK    6  A    between atoms: C_14  and  C_15
REMARK    7  A    between atoms: C_14  and  C_16
REMARK    8  A    between atoms: C_14  and  C_17
REMARK    9  A    between atoms: C_19  and  N_20
REMARK   10  A    between atoms: N_20  and  C_21
REMARK   11  A    between atoms: N_20  and  C_22
REMARK   12  A    between atoms: C_26  and  O_27
REMARK   13  A    between atoms: C_28  and  O_29
REMARK   14  A    between atoms: C_32  and  C_33
REMARK   15  A    between atoms: C_36  and  O_37
REMARK   16  A    between atoms: C_38  and  N_39
REMARK   17  A    between atoms: N_39  and  C_40
REMARK   18  A    between atoms: N_39  and  C_41
REMARK                            x       y       z     vdW  Elec       q    Type
REMARK                         _______ _______ _______ _____ _____    ______ ____
ROOT
ATOM      1  C   UNL     1      -6.774   1.576 128.829  0.00  0.00    +0.000 C 
ATOM      2  C   UNL     1      -7.509   2.576 129.646  0.00  0.00    +0.000 C 
ATOM      3  C   UNL     1      -6.797   3.713 130.238  0.00  0.00    +0.000 A 
ATOM      4  C   UNL     1      -5.653   4.121 129.549  0.00  0.00    +0.000 A 
ATOM      5  C   UNL     1      -4.923   5.184 130.016  0.00  0.00    +0.000 A 
ATOM      6  C   UNL     1      -5.318   5.892 131.148  0.00  0.00    +0.000 A 
ATOM      7  C   UNL     1      -6.503   5.465 131.821  0.00  0.00    +0.000 A 
ATOM      8  C   UNL     1      -7.307   4.365 131.389  0.00  0.00    +0.000 A 
ATOM      9  C   UNL     1      -5.182   3.450 128.305  0.00  0.00    +0.000 C 
ATOM     10  O   UNL     1      -4.292   3.937 127.606  0.00  0.00    +0.000 OA
ATOM     11  C   UNL     1      -5.816   2.192 127.894  0.00  0.00    +0.000 C 
ATOM     12  C   UNL     1      -5.513   1.630 126.712  0.00  0.00    +0.000 C 
ATOM     13  C   UNL     1      -6.128   0.324 126.258  0.00  0.00    +0.000 C 
ATOM     14  C   UNL     1      -6.776   0.419 124.894  0.00  0.00    +0.000 C 
ATOM     15  O   UNL     1      -7.145   1.507 124.430  0.00  0.00    +0.000 OA
ATOM     16  C   UNL     1      -7.287  -0.850 124.269  0.00  0.00    +0.000 C 
ATOM     17  C   UNL     1      -8.459  -0.954 124.898  0.00  0.00    +0.000 C 
ATOM     18  C   UNL     1      -8.306  -1.221 126.576  0.00  0.00    +0.000 C 
ATOM     19  C   UNL     1      -7.261  -0.187 127.178  0.00  0.00    +0.000 C 
ATOM     20  C   UNL     1      -7.892   0.805 128.113  0.00  0.00    +0.000 C 
ENDROOT
BRANCH  16  21
ATOM     21  C   UNL     1      -6.902  -2.291 124.468  0.00  0.00    +0.000 C 
ATOM     22  N   UNL     1      -5.590  -2.558 124.855  0.00  0.00    +0.000 N 
ATOM     23  O   UNL     1      -7.638  -3.239 124.178  0.00  0.00    +0.000 OA
ATOM     24  H   UNL     1      -4.893  -1.813 124.852  0.00  0.00    +0.000 HD
ATOM     25  H   UNL     1      -5.198  -3.409 124.468  0.00  0.00    +0.000 HD
ENDBRANCH  16  21
BRANCH   6  26
ATOM     26  N   UNL     1      -4.571   7.012 131.643  0.00  0.00    +0.000 N 
ATOM     27  C   UNL     1      -3.271   6.959 132.158  0.00  0.00    +0.000 C 
ATOM     28  O   UNL     1      -2.479   6.021 132.216  0.00  0.00    +0.000 OA
ATOM     29  H   UNL     1      -5.019   7.919 131.581  0.00  0.00    +0.000 HD
BRANCH  27  30
ATOM     30  C   UNL     1      -2.692   8.260 132.646  0.00  0.00    +0.000 C 
BRANCH  30  31
ATOM     31  N   UNL     1      -1.227   8.048 132.734  0.00  0.00    +0.000 NA
ATOM     32  H   UNL     1      -0.800   8.342 131.846  0.00  0.00    +0.000 HD
BRANCH  31  33
ATOM     33  C   UNL     1      -0.561   8.571 133.902  0.00  0.00    +0.000 C 
ATOM     34  C   UNL     1       0.305   9.762 133.499  0.00  0.00    +0.000 C 
ATOM     35  C   UNL     1      -1.647   8.949 134.910  0.00  0.00    +0.000 C 
ATOM     36  C   UNL     1       0.333   7.479 134.518  0.00  0.00    +0.000 C 
ENDBRANCH  31  33
ENDBRANCH  30  31
ENDBRANCH  27  30
ENDBRANCH   6  26
BRANCH   8  37
ATOM     37  N   UNL     1      -8.503   3.979 132.012  0.00  0.00    +0.000 N 
ATOM     38  C   UNL     1      -8.718   3.011 133.125  0.00  0.00    +0.000 C 
ATOM     39  C   UNL     1      -9.783   4.612 131.693  0.00  0.00    +0.000 C 
ENDBRANCH   8  37
BRANCH  18  40
ATOM     40  N   UNL     1      -7.956  -2.454 127.402  0.00  0.00    +0.000 NA
ATOM     41  C   UNL     1      -8.824  -3.661 127.617  0.00  0.00    +0.000 C 
ATOM     42  C   UNL     1      -7.060  -2.348 128.520  0.00  0.00    +0.000 C 
ENDBRANCH  18  40
BRANCH   5  43
ATOM     43  O   UNL     1      -3.762   5.448 129.380  0.00  0.00    +0.000 OA
ATOM     44  H   UNL     1      -3.827   5.543 128.413  0.00  0.00    +0.000 HD
ENDBRANCH   5  43
BRANCH  12  45
ATOM     45  O   UNL     1      -4.553   2.147 125.854  0.00  0.00    +0.000 OA
ATOM     46  H   UNL     1      -4.500   3.118 126.016  0.00  0.00    +0.000 HD
ENDBRANCH  12  45
BRANCH  13  47
ATOM     47  O   UNL     1      -5.019  -0.562 126.237  0.00  0.00    +0.000 OA
ATOM     48  H   UNL     1      -4.937  -0.906 127.148  0.00  0.00    +0.000 HD
ENDBRANCH  13  47
BRANCH  17  49
ATOM     49  O   UNL     1      -9.524  -1.383 124.026  0.00  0.00    +0.000 OA
ATOM     50  H   UNL     1      -9.167  -2.134 123.455  0.00  0.00    +0.000 HD
ENDBRANCH  17  49
TORSDOF 11
ENDMDL
MODEL 6
REMARK VINA RESULT:      -7.1      4.058      5.594
REMARK  Name = Tigecycline
REMARK  18 active torsions:
REMARK  status: ('A' for Active; 'I' for Inactive)
REMARK    1  A    between atoms: C_6  and  O_7
REMARK    2  A    between atoms: C_8  and  N_9
REMARK    3  A    between atoms: C_10  and  C_12
REMARK    4  A    between atoms: C_12  and  N_13
REMARK    5  A    between atoms: N_13  and  C_14
REMARK    6  A    between atoms: C_14  and  C_15
REMARK    7  A    between atoms: C_14  and  C_16
REMARK    8  A    between atoms: C_14  and  C_17
REMARK    9  A    between atoms: C_19  and  N_20
REMARK   10  A    between atoms: N_20  and  C_21
REMARK   11  A    between atoms: N_20  and  C_22
REMARK   12  A    between atoms: C_26  and  O_27
REMARK   13  A    between atoms: C_28  and  O_29
REMARK   14  A    between atoms: C_32  and  C_33
REMARK   15  A    between atoms: C_36  and  O_37
REMARK   16  A    between atoms: C_38  and  N_39
REMARK   17  A    between atoms: N_39  and  C_40
REMARK   18  A    between atoms: N_39  and  C_41
REMARK                            x       y       z     vdW  Elec       q    Type
REMARK                         _______ _______ _______ _____ _____    ______ ____
ROOT
ATOM      1  C   UNL     1      -5.830  -0.928 131.633  0.00  0.00    +0.000 C 
ATOM      2  C   UNL     1      -7.080  -0.135 131.505  0.00  0.00    +0.000 C 
ATOM      3  C   UNL     1      -7.466   0.430 130.209  0.00  0.00    +0.000 A 
ATOM      4  C   UNL     1      -6.998  -0.268 129.093  0.00  0.00    +0.000 A 
ATOM      5  C   UNL     1      -7.314   0.174 127.834  0.00  0.00    +0.000 A 
ATOM      6  C   UNL     1      -8.126   1.289 127.641  0.00  0.00    +0.000 A 
ATOM      7  C   UNL     1      -8.607   1.972 128.801  0.00  0.00    +0.000 A 
ATOM      8  C   UNL     1      -8.313   1.565 130.138  0.00  0.00    +0.000 A 
ATOM      9  C   UNL     1      -6.161  -1.495 129.206  0.00  0.00    +0.000 C 
ATOM     10  O   UNL     1      -5.920  -2.205 128.228  0.00  0.00    +0.000 OA
ATOM     11  C   UNL     1      -5.635  -1.877 130.522  0.00  0.00    +0.000 C 
ATOM     12  C   UNL     1      -4.994  -3.046 130.688  0.00  0.00    +0.000 C 
ATOM     13  C   UNL     1      -4.418  -3.469 132.022  0.00  0.00    +0.000 C 
ATOM     14  C   UNL     1      -4.896  -4.835 132.463  0.00  0.00    +0.000 C 
ATOM     15  O   UNL     1      -5.946  -5.325 132.023  0.00  0.00    +0.000 OA
ATOM     16  C   UNL     1      -4.277  -5.430 133.698  0.00  0.00    +0.000 C 
ATOM     17  C   UNL     1      -4.990  -4.800 134.633  0.00  0.00    +0.000 C 
ATOM     18  C   UNL     1      -4.719  -3.115 134.671  0.00  0.00    +0.000 C 
ATOM     19  C   UNL     1      -4.807  -2.538 133.193  0.00  0.00    +0.000 C 
ATOM     20  C   UNL     1      -5.984  -1.627 132.991  0.00  0.00    +0.000 C 
ENDROOT
BRANCH  16  21
ATOM     21  C   UNL     1      -2.948  -5.197 134.365  0.00  0.00    +0.000 C 
ATOM     22  N   UNL     1      -1.877  -4.829 133.553  0.00  0.00    +0.000 N 
ATOM     23  O   UNL     1      -2.732  -5.444 135.556  0.00  0.00    +0.000 OA
ATOM     24  H   UNL     1      -1.967  -4.869 132.537  0.00  0.00    +0.000 HD
ATOM     25  H   UNL     1      -0.979  -5.200 133.842  0.00  0.00    +0.000 HD
ENDBRANCH  16  21
BRANCH   6  26
ATOM     26  N   UNL     1      -8.475   1.758 126.331  0.00  0.00    +0.000 N 
ATOM     27  C   UNL     1      -9.426   1.176 125.485  0.00  0.00    +0.000 C 
ATOM     28  O   UNL     1     -10.202   0.244 125.688  0.00  0.00    +0.000 OA
ATOM     29  H   UNL     1      -8.012   2.601 126.013  0.00  0.00    +0.000 HD
BRANCH  27  30
ATOM     30  C   UNL     1      -9.609   1.824 124.140  0.00  0.00    +0.000 C 
BRANCH  30  31
ATOM     31  N   UNL     1      -8.649   2.952 124.095  0.00  0.00    +0.000 NA
ATOM     32  H   UNL     1      -8.288   3.114 125.044  0.00  0.00    +0.000 HD
BRANCH  31  33
ATOM     33  C   UNL     1      -7.622   2.896 123.084  0.00  0.00    +0.000 C 
ATOM     34  C   UNL     1      -7.072   1.474 123.001  0.00  0.00    +0.000 C 
ATOM     35  C   UNL     1      -8.254   3.358 121.771  0.00  0.00    +0.000 C 
ATOM     36  C   UNL     1      -6.480   3.860 123.454  0.00  0.00    +0.000 C 
ENDBRANCH  31  33
ENDBRANCH  30  31
ENDBRANCH  27  30
ENDBRANCH   6  26
BRANCH   8  37
ATOM     37  N   UNL     1      -8.831   2.196 131.279  0.00  0.00    +0.000 N 
ATOM     38  C   UNL     1      -8.353   3.422 131.978  0.00  0.00    +0.000 C 
ATOM     39  C   UNL     1     -10.073   1.753 131.914  0.00  0.00    +0.000 C 
ENDBRANCH   8  37
BRANCH  18  40
ATOM     40  N   UNL     1      -3.581  -2.261 135.217  0.00  0.00    +0.000 NA
ATOM     41  C   UNL     1      -3.273  -2.000 136.664  0.00  0.00    +0.000 C 
ATOM     42  C   UNL     1      -3.070  -1.159 134.450  0.00  0.00    +0.000 C 
ENDBRANCH  18  40
BRANCH   5  43
ATOM     43  O   UNL     1      -6.728  -0.467 126.801  0.00  0.00    +0.000 OA
ATOM     44  H   UNL     1      -6.739  -1.439 126.852  0.00  0.00    +0.000 HD
ENDBRANCH   5  43
BRANCH  12  45
ATOM     45  O   UNL     1      -4.725  -3.914 129.640  0.00  0.00    +0.000 OA
ATOM     46  H   UNL     1      -5.583  -4.300 129.346  0.00  0.00    +0.000 HD
ENDBRANCH  12  45
BRANCH  13  47
ATOM     47  O   UNL     1      -3.020  -3.468 131.783  0.00  0.00    +0.000 OA
ATOM     48  H   UNL     1      -2.779  -4.400 131.610  0.00  0.00    +0.000 HD
ENDBRANCH  13  47
BRANCH  17  49
ATOM     49  O   UNL     1      -5.362  -5.662 135.727  0.00  0.00    +0.000 OA
ATOM     50  H   UNL     1      -4.590  -6.288 135.899  0.00  0.00    +0.000 HD
ENDBRANCH  17  49
TORSDOF 11
ENDMDL
MODEL 7
REMARK VINA RESULT:      -7.1      5.940      9.888
REMARK  Name = Tigecycline
REMARK  18 active torsions:
REMARK  status: ('A' for Active; 'I' for Inactive)
REMARK    1  A    between atoms: C_6  and  O_7
REMARK    2  A    between atoms: C_8  and  N_9
REMARK    3  A    between atoms: C_10  and  C_12
REMARK    4  A    between atoms: C_12  and  N_13
REMARK    5  A    between atoms: N_13  and  C_14
REMARK    6  A    between atoms: C_14  and  C_15
REMARK    7  A    between atoms: C_14  and  C_16
REMARK    8  A    between atoms: C_14  and  C_17
REMARK    9  A    between atoms: C_19  and  N_20
REMARK   10  A    between atoms: N_20  and  C_21
REMARK   11  A    between atoms: N_20  and  C_22
REMARK   12  A    between atoms: C_26  and  O_27
REMARK   13  A    between atoms: C_28  and  O_29
REMARK   14  A    between atoms: C_32  and  C_33
REMARK   15  A    between atoms: C_36  and  O_37
REMARK   16  A    between atoms: C_38  and  N_39
REMARK   17  A    between atoms: N_39  and  C_40
REMARK   18  A    between atoms: N_39  and  C_41
REMARK                            x       y       z     vdW  Elec       q    Type
REMARK                         _______ _______ _______ _____ _____    ______ ____
ROOT
ATOM      1  C   UNL     1      -3.768   4.072 131.760  0.00  0.00    +0.000 C 
ATOM      2  C   UNL     1      -3.744   2.590 131.652  0.00  0.00    +0.000 C 
ATOM      3  C   UNL     1      -4.179   1.933 130.415  0.00  0.00    +0.000 A 
ATOM      4  C   UNL     1      -4.025   2.693 129.254  0.00  0.00    +0.000 A 
ATOM      5  C   UNL     1      -4.392   2.162 128.043  0.00  0.00    +0.000 A 
ATOM      6  C   UNL     1      -4.884   0.864 127.941  0.00  0.00    +0.000 A 
ATOM      7  C   UNL     1      -5.012   0.103 129.144  0.00  0.00    +0.000 A 
ATOM      8  C   UNL     1      -4.650   0.596 130.435  0.00  0.00    +0.000 A 
ATOM      9  C   UNL     1      -3.466   4.073 129.264  0.00  0.00    +0.000 C 
ATOM     10  O   UNL     1      -3.156   4.653 128.221  0.00  0.00    +0.000 OA
ATOM     11  C   UNL     1      -3.256   4.745 130.552  0.00  0.00    +0.000 C 
ATOM     12  C   UNL     1      -2.630   5.931 130.609  0.00  0.00    +0.000 C 
ATOM     13  C   UNL     1      -2.411   6.667 131.913  0.00  0.00    +0.000 C 
ATOM     14  C   UNL     1      -0.962   7.040 132.144  0.00  0.00    +0.000 C 
ATOM     15  O   UNL     1      -0.042   6.435 131.576  0.00  0.00    +0.000 OA
ATOM     16  C   UNL     1      -0.641   7.906 133.331  0.00  0.00    +0.000 C 
ATOM     17  C   UNL     1      -0.630   6.978 134.289  0.00  0.00    +0.000 C 
ATOM     18  C   UNL     1      -2.156   6.264 134.560  0.00  0.00    +0.000 C 
ATOM     19  C   UNL     1      -2.792   5.844 133.166  0.00  0.00    +0.000 C 
ATOM     20  C   UNL     1      -2.916   4.357 133.005  0.00  0.00    +0.000 C 
ENDROOT
BRANCH  16  21
ATOM     21  C   UNL     1      -1.474   8.890 134.109  0.00  0.00    +0.000 C 
ATOM     22  N   UNL     1      -2.471   9.576 133.418  0.00  0.00    +0.000 N 
ATOM     23  O   UNL     1      -1.231   9.214 135.276  0.00  0.00    +0.000 OA
ATOM     24  H   UNL     1      -2.523   9.516 132.400  0.00  0.00    +0.000 HD
ATOM     25  H   UNL     1      -2.618  10.531 133.724  0.00  0.00    +0.000 HD
ENDBRANCH  16  21
BRANCH   6  26
ATOM     26  N   UNL     1      -5.263   0.291 126.682  0.00  0.00    +0.000 N 
ATOM     27  C   UNL     1      -6.508   0.443 126.060  0.00  0.00    +0.000 C 
ATOM     28  O   UNL     1      -7.473   1.134 126.378  0.00  0.00    +0.000 OA
ATOM     29  H   UNL     1      -4.552  -0.240 126.193  0.00  0.00    +0.000 HD
BRANCH  27  30
ATOM     30  C   UNL     1      -6.692  -0.272 124.749  0.00  0.00    +0.000 C 
BRANCH  30  31
ATOM     31  N   UNL     1      -5.740  -1.409 124.766  0.00  0.00    +0.000 NA
ATOM     32  H   UNL     1      -5.641  -1.739 125.735  0.00  0.00    +0.000 HD
BRANCH  31  33
ATOM     33  C   UNL     1      -5.968  -2.466 123.812  0.00  0.00    +0.000 C 
ATOM     34  C   UNL     1      -7.058  -3.396 124.339  0.00  0.00    +0.000 C 
ATOM     35  C   UNL     1      -6.351  -1.805 122.487  0.00  0.00    +0.000 C 
ATOM     36  C   UNL     1      -4.670  -3.269 123.612  0.00  0.00    +0.000 C 
ENDBRANCH  31  33
ENDBRANCH  30  31
ENDBRANCH  27  30
ENDBRANCH   6  26
BRANCH   8  37
ATOM     37  N   UNL     1      -4.718  -0.167 131.611  0.00  0.00    +0.000 N 
ATOM     38  C   UNL     1      -5.832  -0.291 132.592  0.00  0.00    +0.000 C 
ATOM     39  C   UNL     1      -3.655  -1.097 131.993  0.00  0.00    +0.000 C 
ENDBRANCH   8  37
BRANCH  18  40
ATOM     40  N   UNL     1      -3.409   6.741 135.284  0.00  0.00    +0.000 NA
ATOM     41  C   UNL     1      -3.536   7.036 136.752  0.00  0.00    +0.000 C 
ATOM     42  C   UNL     1      -4.711   6.388 134.790  0.00  0.00    +0.000 C 
ENDBRANCH  18  40
BRANCH   5  43
ATOM     43  O   UNL     1      -4.338   2.989 126.978  0.00  0.00    +0.000 OA
ATOM     44  H   UNL     1      -3.990   2.594 126.159  0.00  0.00    +0.000 HD
ENDBRANCH   5  43
BRANCH  12  45
ATOM     45  O   UNL     1      -2.216   6.621 129.479  0.00  0.00    +0.000 OA
ATOM     46  H   UNL     1      -2.893   7.312 129.287  0.00  0.00    +0.000 HD
ENDBRANCH  12  45
BRANCH  13  47
ATOM     47  O   UNL     1      -3.220   7.823 131.769  0.00  0.00    +0.000 OA
ATOM     48  H   UNL     1      -3.446   7.873 130.819  0.00  0.00    +0.000 HD
ENDBRANCH  13  47
BRANCH  17  49
ATOM     49  O   UNL     1       0.440   7.168 135.238  0.00  0.00    +0.000 OA
ATOM     50  H   UNL     1       0.433   6.380 135.867  0.00  0.00    +0.000 HD
ENDBRANCH  17  49
TORSDOF 11
ENDMDL
MODEL 8
REMARK VINA RESULT:      -6.9      5.894      8.776
REMARK  Name = Tigecycline
REMARK  18 active torsions:
REMARK  status: ('A' for Active; 'I' for Inactive)
REMARK    1  A    between atoms: C_6  and  O_7
REMARK    2  A    between atoms: C_8  and  N_9
REMARK    3  A    between atoms: C_10  and  C_12
REMARK    4  A    between atoms: C_12  and  N_13
REMARK    5  A    between atoms: N_13  and  C_14
REMARK    6  A    between atoms: C_14  and  C_15
REMARK    7  A    between atoms: C_14  and  C_16
REMARK    8  A    between atoms: C_14  and  C_17
REMARK    9  A    between atoms: C_19  and  N_20
REMARK   10  A    between atoms: N_20  and  C_21
REMARK   11  A    between atoms: N_20  and  C_22
REMARK   12  A    between atoms: C_26  and  O_27
REMARK   13  A    between atoms: C_28  and  O_29
REMARK   14  A    between atoms: C_32  and  C_33
REMARK   15  A    between atoms: C_36  and  O_37
REMARK   16  A    between atoms: C_38  and  N_39
REMARK   17  A    between atoms: N_39  and  C_40
REMARK   18  A    between atoms: N_39  and  C_41
REMARK                            x       y       z     vdW  Elec       q    Type
REMARK                         _______ _______ _______ _____ _____    ______ ____
ROOT
ATOM      1  C   UNL     1      -4.462   2.847 130.061  0.00  0.00    +0.000 C 
ATOM      2  C   UNL     1      -4.642   3.580 131.341  0.00  0.00    +0.000 C 
ATOM      3  C   UNL     1      -3.630   4.543 131.789  0.00  0.00    +0.000 A 
ATOM      4  C   UNL     1      -2.893   5.146 130.768  0.00  0.00    +0.000 A 
ATOM      5  C   UNL     1      -1.929   6.070 131.082  0.00  0.00    +0.000 A 
ATOM      6  C   UNL     1      -1.692   6.449 132.401  0.00  0.00    +0.000 A 
ATOM      7  C   UNL     1      -2.476   5.830 133.423  0.00  0.00    +0.000 A 
ATOM      8  C   UNL     1      -3.492   4.860 133.164  0.00  0.00    +0.000 A 
ATOM      9  C   UNL     1      -3.109   4.835 129.328  0.00  0.00    +0.000 C 
ATOM     10  O   UNL     1      -2.593   5.510 128.435  0.00  0.00    +0.000 OA
ATOM     11  C   UNL     1      -3.981   3.710 128.968  0.00  0.00    +0.000 C 
ATOM     12  C   UNL     1      -4.308   3.483 127.685  0.00  0.00    +0.000 C 
ATOM     13  C   UNL     1      -5.187   2.324 127.269  0.00  0.00    +0.000 C 
ATOM     14  C   UNL     1      -6.373   2.753 126.433  0.00  0.00    +0.000 C 
ATOM     15  O   UNL     1      -6.804   3.914 126.473  0.00  0.00    +0.000 OA
ATOM     16  C   UNL     1      -7.235   1.677 125.832  0.00  0.00    +0.000 C 
ATOM     17  C   UNL     1      -7.994   1.382 126.888  0.00  0.00    +0.000 C 
ATOM     18  C   UNL     1      -7.120   0.692 128.181  0.00  0.00    +0.000 C 
ATOM     19  C   UNL     1      -5.820   1.561 128.456  0.00  0.00    +0.000 C 
ATOM     20  C   UNL     1      -5.854   2.259 129.786  0.00  0.00    +0.000 C 
ENDROOT
BRANCH  16  21
ATOM     21  C   UNL     1      -6.945   0.244 125.473  0.00  0.00    +0.000 C 
ATOM     22  N   UNL     1      -7.989  -0.672 125.589  0.00  0.00    +0.000 N 
ATOM     23  O   UNL     1      -5.813  -0.179 125.219  0.00  0.00    +0.000 OA
ATOM     24  H   UNL     1      -8.863  -0.398 126.041  0.00  0.00    +0.000 HD
ATOM     25  H   UNL     1      -7.710  -1.598 125.891  0.00  0.00    +0.000 HD
ENDBRANCH  16  21
BRANCH   6  26
ATOM     26  N   UNL     1      -0.696   7.421 132.746  0.00  0.00    +0.000 N 
ATOM     27  C   UNL     1      -0.946   8.755 133.089  0.00  0.00    +0.000 C 
ATOM     28  O   UNL     1      -2.011   9.344 133.257  0.00  0.00    +0.000 OA
ATOM     29  H   UNL     1       0.264   7.098 132.772  0.00  0.00    +0.000 HD
BRANCH  27  30
ATOM     30  C   UNL     1       0.259   9.605 133.389  0.00  0.00    +0.000 C 
BRANCH  30  31
ATOM     31  N   UNL     1      -0.250  10.982 133.592  0.00  0.00    +0.000 NA
ATOM     32  H   UNL     1      -0.463  11.109 134.590  0.00  0.00    +0.000 HD
BRANCH  31  33
ATOM     33  C   UNL     1       0.524  12.056 133.020  0.00  0.00    +0.000 C 
ATOM     34  C   UNL     1       0.674  13.174 134.048  0.00  0.00    +0.000 C 
ATOM     35  C   UNL     1       1.869  11.466 132.593  0.00  0.00    +0.000 C 
ATOM     36  C   UNL     1      -0.198  12.606 131.776  0.00  0.00    +0.000 C 
ENDBRANCH  31  33
ENDBRANCH  30  31
ENDBRANCH  27  30
ENDBRANCH   6  26
BRANCH   8  37
ATOM     37  N   UNL     1      -4.304   4.292 134.158  0.00  0.00    +0.000 N 
ATOM     38  C   UNL     1      -5.676   4.679 134.590  0.00  0.00    +0.000 C 
ATOM     39  C   UNL     1      -3.913   3.080 134.879  0.00  0.00    +0.000 C 
ENDBRANCH   8  37
BRANCH  18  40
ATOM     40  N   UNL     1      -6.556  -0.704 128.422  0.00  0.00    +0.000 NA
ATOM     41  C   UNL     1      -7.316  -1.903 128.913  0.00  0.00    +0.000 C 
ATOM     42  C   UNL     1      -5.176  -0.875 128.785  0.00  0.00    +0.000 C 
ENDBRANCH  18  40
BRANCH   5  43
ATOM     43  O   UNL     1      -1.167   6.521 130.064  0.00  0.00    +0.000 OA
ATOM     44  H   UNL     1      -1.222   7.478 129.892  0.00  0.00    +0.000 HD
ENDBRANCH   5  43
BRANCH  12  45
ATOM     45  O   UNL     1      -3.799   4.230 126.633  0.00  0.00    +0.000 OA
ATOM     46  H   UNL     1      -3.316   4.998 127.019  0.00  0.00    +0.000 HD
ENDBRANCH  12  45
BRANCH  13  47
ATOM     47  O   UNL     1      -4.303   1.504 126.520  0.00  0.00    +0.000 OA
ATOM     48  H   UNL     1      -3.526   2.063 126.321  0.00  0.00    +0.000 HD
ENDBRANCH  13  47
BRANCH  17  49
ATOM     49  O   UNL     1      -9.377   1.165 126.538  0.00  0.00    +0.000 OA
ATOM     50  H   UNL     1      -9.406   0.889 125.569  0.00  0.00    +0.000 HD
ENDBRANCH  17  49
TORSDOF 11
ENDMDL
MODEL 9
REMARK VINA RESULT:      -6.8      4.745      6.829
REMARK  Name = Tigecycline
REMARK  18 active torsions:
REMARK  status: ('A' for Active; 'I' for Inactive)
REMARK    1  A    between atoms: C_6  and  O_7
REMARK    2  A    between atoms: C_8  and  N_9
REMARK    3  A    between atoms: C_10  and  C_12
REMARK    4  A    between atoms: C_12  and  N_13
REMARK    5  A    between atoms: N_13  and  C_14
REMARK    6  A    between atoms: C_14  and  C_15
REMARK    7  A    between atoms: C_14  and  C_16
REMARK    8  A    between atoms: C_14  and  C_17
REMARK    9  A    between atoms: C_19  and  N_20
REMARK   10  A    between atoms: N_20  and  C_21
REMARK   11  A    between atoms: N_20  and  C_22
REMARK   12  A    between atoms: C_26  and  O_27
REMARK   13  A    between atoms: C_28  and  O_29
REMARK   14  A    between atoms: C_32  and  C_33
REMARK   15  A    between atoms: C_36  and  O_37
REMARK   16  A    between atoms: C_38  and  N_39
REMARK   17  A    between atoms: N_39  and  C_40
REMARK   18  A    between atoms: N_39  and  C_41
REMARK                            x       y       z     vdW  Elec       q    Type
REMARK                         _______ _______ _______ _____ _____    ______ ____
ROOT
ATOM      1  C   UNL     1      -4.516   1.953 130.833  0.00  0.00    +0.000 C 
ATOM      2  C   UNL     1      -3.781   3.067 130.181  0.00  0.00    +0.000 C 
ATOM      3  C   UNL     1      -3.410   4.258 130.951  0.00  0.00    +0.000 A 
ATOM      4  C   UNL     1      -3.232   4.048 132.320  0.00  0.00    +0.000 A 
ATOM      5  C   UNL     1      -2.872   5.098 133.126  0.00  0.00    +0.000 A 
ATOM      6  C   UNL     1      -2.646   6.368 132.603  0.00  0.00    +0.000 A 
ATOM      7  C   UNL     1      -2.817   6.549 131.195  0.00  0.00    +0.000 A 
ATOM      8  C   UNL     1      -3.192   5.499 130.301  0.00  0.00    +0.000 A 
ATOM      9  C   UNL     1      -3.408   2.714 132.958  0.00  0.00    +0.000 C 
ATOM     10  O   UNL     1      -3.061   2.503 134.121  0.00  0.00    +0.000 OA
ATOM     11  C   UNL     1      -3.988   1.620 132.169  0.00  0.00    +0.000 C 
ATOM     12  C   UNL     1      -4.037   0.373 132.664  0.00  0.00    +0.000 C 
ATOM     13  C   UNL     1      -4.644  -0.778 131.892  0.00  0.00    +0.000 C 
ATOM     14  C   UNL     1      -3.707  -1.960 131.762  0.00  0.00    +0.000 C 
ATOM     15  O   UNL     1      -2.480  -1.825 131.872  0.00  0.00    +0.000 OA
ATOM     16  C   UNL     1      -4.249  -3.221 131.149  0.00  0.00    +0.000 C 
ATOM     17  C   UNL     1      -4.146  -2.905 129.857  0.00  0.00    +0.000 C 
ATOM     18  C   UNL     1      -5.163  -1.617 129.391  0.00  0.00    +0.000 C 
ATOM     19  C   UNL     1      -5.012  -0.427 130.432  0.00  0.00    +0.000 C 
ATOM     20  C   UNL     1      -4.377   0.795 129.834  0.00  0.00    +0.000 C 
ENDROOT
BRANCH  16  21
ATOM     21  C   UNL     1      -5.650  -3.762 131.041  0.00  0.00    +0.000 C 
ATOM     22  N   UNL     1      -6.554  -3.410 132.041  0.00  0.00    +0.000 N 
ATOM     23  O   UNL     1      -5.994  -4.599 130.199  0.00  0.00    +0.000 OA
ATOM     24  H   UNL     1      -6.227  -2.932 132.882  0.00  0.00    +0.000 HD
ATOM     25  H   UNL     1      -7.222  -4.133 132.284  0.00  0.00    +0.000 HD
ENDBRANCH  16  21
BRANCH   6  26
ATOM     26  N   UNL     1      -2.260   7.474 133.430  0.00  0.00    +0.000 N 
ATOM     27  C   UNL     1      -0.956   7.958 133.585  0.00  0.00    +0.000 C 
ATOM     28  O   UNL     1       0.083   7.632 133.014  0.00  0.00    +0.000 OA
ATOM     29  H   UNL     1      -3.005   7.960 133.915  0.00  0.00    +0.000 HD
BRANCH  27  30
ATOM     30  C   UNL     1      -0.780   9.116 134.529  0.00  0.00    +0.000 C 
BRANCH  30  31
ATOM     31  N   UNL     1      -0.231  10.227 133.716  0.00  0.00    +0.000 NA
ATOM     32  H   UNL     1       0.113   9.844 132.826  0.00  0.00    +0.000 HD
BRANCH  31  33
ATOM     33  C   UNL     1      -1.060  11.398 133.563  0.00  0.00    +0.000 C 
ATOM     34  C   UNL     1      -1.687  11.751 134.909  0.00  0.00    +0.000 C 
ATOM     35  C   UNL     1      -0.169  12.515 133.019  0.00  0.00    +0.000 C 
ATOM     36  C   UNL     1      -2.177  11.109 132.544  0.00  0.00    +0.000 C 
ENDBRANCH  31  33
ENDBRANCH  30  31
ENDBRANCH  27  30
ENDBRANCH   6  26
BRANCH   8  37
ATOM     37  N   UNL     1      -3.304   5.658 128.912  0.00  0.00    +0.000 N 
ATOM     38  C   UNL     1      -4.404   5.238 128.000  0.00  0.00    +0.000 C 
ATOM     39  C   UNL     1      -2.321   6.417 128.137  0.00  0.00    +0.000 C 
ENDBRANCH   8  37
BRANCH  18  40
ATOM     40  N   UNL     1      -6.659  -1.528 129.109  0.00  0.00    +0.000 NA
ATOM     41  C   UNL     1      -7.375  -2.062 127.902  0.00  0.00    +0.000 C 
ATOM     42  C   UNL     1      -7.431  -0.436 129.634  0.00  0.00    +0.000 C 
ENDBRANCH  18  40
BRANCH   5  43
ATOM     43  O   UNL     1      -2.839   4.859 134.454  0.00  0.00    +0.000 OA
ATOM     44  H   UNL     1      -2.146   4.244 134.751  0.00  0.00    +0.000 HD
ENDBRANCH   5  43
BRANCH  12  45
ATOM     45  O   UNL     1      -3.624   0.054 133.950  0.00  0.00    +0.000 OA
ATOM     46  H   UNL     1      -4.273   0.450 134.577  0.00  0.00    +0.000 HD
ENDBRANCH  12  45
BRANCH  13  47
ATOM     47  O   UNL     1      -5.787  -1.115 132.663  0.00  0.00    +0.000 OA
ATOM     48  H   UNL     1      -6.413  -0.373 132.547  0.00  0.00    +0.000 HD
ENDBRANCH  13  47
BRANCH  17  49
ATOM     49  O   UNL     1      -3.683  -4.006 129.048  0.00  0.00    +0.000 OA
ATOM     50  H   UNL     1      -2.837  -4.358 129.468  0.00  0.00    +0.000 HD
ENDBRANCH  17  49
TORSDOF 11
ENDMDL
