MODEL 1
REMARK VINA RESULT:      -5.7      0.000      0.000
REMARK  Name = Tilarginine
REMARK  8 active torsions:
REMARK  status: ('A' for Active; 'I' for Inactive)
REMARK    1  A    between atoms: C_1  and  N_2
REMARK    2  A    between atoms: N_5  and  C_6
REMARK    3  A    between atoms: C_6  and  C_7
REMARK    4  A    between atoms: C_7  and  C_8
REMARK    5  A    between atoms: C_8  and  C_9
REMARK    6  A    between atoms: C_9  and  N_10
REMARK    7  A    between atoms: C_9  and  C_11
REMARK    8  A    between atoms: C_11  and  O_12
REMARK                            x       y       z     vdW  Elec       q    Type
REMARK                         _______ _______ _______ _____ _____    ______ ____
ROOT
ATOM      1  C   UNK     1     -12.736   6.506 129.468  0.00  0.00    +0.000 C 
ENDROOT
BRANCH   1   2
ATOM      2  C   UNK     1     -12.442   7.173 130.806  0.00  0.00    +0.000 C 
BRANCH   2   7
ATOM      3  C   UNK     1      -8.820   4.981 133.311  0.00  0.00    +0.000 C 
ATOM      4  N   UNK     1     -10.198   5.234 132.945  0.00  0.00    +0.000 N 
ATOM      5  C   UNK     1     -10.588   6.136 132.011  0.00  0.00    +0.000 C 
ATOM      6  N   UNK     1      -9.770   6.875 131.342  0.00  0.00    +0.000 NA
ATOM      7  N   UNK     1     -11.926   6.236 131.800  0.00  0.00    +0.000 N 
ATOM      8  H   UNK     1     -10.895   4.685 133.429  0.00  0.00    +0.000 HD
ATOM      9  H   UNK     1      -8.817   6.668 131.627  0.00  0.00    +0.000 HD
ATOM     10  H   UNK     1     -12.585   5.659 132.301  0.00  0.00    +0.000 HD
ENDBRANCH   2   7
ENDBRANCH   1   2
BRANCH   1  11
ATOM     11  C   UNK     1     -13.005   7.540 128.360  0.00  0.00    +0.000 C 
BRANCH  11  12
ATOM     12  C   UNK     1     -11.915   7.659 127.269  0.00  0.00    +0.000 C 
BRANCH  12  13
ATOM     13  N   UNK     1     -12.202   6.686 126.191  0.00  0.00    +0.000 NA
ATOM     14  H   UNK     1     -12.462   7.139 125.318  0.00  0.00    +0.000 HD
ATOM     15  H   UNK     1     -12.861   5.967 126.477  0.00  0.00    +0.000 HD
ENDBRANCH  12  13
BRANCH  12  16
ATOM     16  C   UNK     1     -10.474   7.524 127.801  0.00  0.00    +0.000 C 
ATOM     17  O   UNK     1      -9.947   8.339 128.553  0.00  0.00    +0.000 OA
BRANCH  16  18
ATOM     18  O   UNK     1      -9.809   6.421 127.391  0.00  0.00    +0.000 OA
ATOM     19  H   UNK     1     -10.089   6.125 126.507  0.00  0.00    +0.000 HD
ENDBRANCH  16  18
ENDBRANCH  12  16
ENDBRANCH  11  12
ENDBRANCH   1  11
TORSDOF 7
ENDMDL
MODEL 2
REMARK VINA RESULT:      -5.3      1.771      1.939
REMARK  Name = Tilarginine
REMARK  8 active torsions:
REMARK  status: ('A' for Active; 'I' for Inactive)
REMARK    1  A    between atoms: C_1  and  N_2
REMARK    2  A    between atoms: N_5  and  C_6
REMARK    3  A    between atoms: C_6  and  C_7
REMARK    4  A    between atoms: C_7  and  C_8
REMARK    5  A    between atoms: C_8  and  C_9
REMARK    6  A    between atoms: C_9  and  N_10
REMARK    7  A    between atoms: C_9  and  C_11
REMARK    8  A    between atoms: C_11  and  O_12
REMARK                            x       y       z     vdW  Elec       q    Type
REMARK                         _______ _______ _______ _____ _____    ______ ____
ROOT
ATOM      1  C   UNK     1     -12.791   7.408 129.943  0.00  0.00    +0.000 C 
ENDROOT
BRANCH   1   2
ATOM      2  C   UNK     1     -12.135   6.456 130.936  0.00  0.00    +0.000 C 
BRANCH   2   7
ATOM      3  C   UNK     1      -8.586   3.294 129.666  0.00  0.00    +0.000 C 
ATOM      4  N   UNK     1      -9.135   4.597 129.978  0.00  0.00    +0.000 N 
ATOM      5  C   UNK     1     -10.431   4.823 130.304  0.00  0.00    +0.000 C 
ATOM      6  N   UNK     1     -11.326   3.898 130.369  0.00  0.00    +0.000 NA
ATOM      7  N   UNK     1     -10.764   6.114 130.566  0.00  0.00    +0.000 N 
ATOM      8  H   UNK     1      -8.486   5.371 129.950  0.00  0.00    +0.000 HD
ATOM      9  H   UNK     1     -10.903   3.002 130.143  0.00  0.00    +0.000 HD
ATOM     10  H   UNK     1     -10.079   6.853 130.535  0.00  0.00    +0.000 HD
ENDBRANCH   2   7
ENDBRANCH   1   2
BRANCH   1  11
ATOM     11  C   UNK     1     -12.924   6.776 128.546  0.00  0.00    +0.000 C 
BRANCH  11  12
ATOM     12  C   UNK     1     -12.082   7.432 127.427  0.00  0.00    +0.000 C 
BRANCH  12  13
ATOM     13  N   UNK     1     -12.326   6.715 126.155  0.00  0.00    +0.000 NA
ATOM     14  H   UNK     1     -12.048   5.738 126.200  0.00  0.00    +0.000 HD
ATOM     15  H   UNK     1     -11.940   7.201 125.350  0.00  0.00    +0.000 HD
ENDBRANCH  12  13
BRANCH  12  16
ATOM     16  C   UNK     1     -10.578   7.541 127.750  0.00  0.00    +0.000 C 
ATOM     17  O   UNK     1     -10.065   8.524 128.275  0.00  0.00    +0.000 OA
BRANCH  16  18
ATOM     18  O   UNK     1      -9.839   6.458 127.423  0.00  0.00    +0.000 OA
ATOM     19  H   UNK     1      -9.817   6.298 126.463  0.00  0.00    +0.000 HD
ENDBRANCH  16  18
ENDBRANCH  12  16
ENDBRANCH  11  12
ENDBRANCH   1  11
TORSDOF 7
ENDMDL
MODEL 3
REMARK VINA RESULT:      -5.1      1.665      2.127
REMARK  Name = Tilarginine
REMARK  8 active torsions:
REMARK  status: ('A' for Active; 'I' for Inactive)
REMARK    1  A    between atoms: C_1  and  N_2
REMARK    2  A    between atoms: N_5  and  C_6
REMARK    3  A    between atoms: C_6  and  C_7
REMARK    4  A    between atoms: C_7  and  C_8
REMARK    5  A    between atoms: C_8  and  C_9
REMARK    6  A    between atoms: C_9  and  N_10
REMARK    7  A    between atoms: C_9  and  C_11
REMARK    8  A    between atoms: C_11  and  O_12
REMARK                            x       y       z     vdW  Elec       q    Type
REMARK                         _______ _______ _______ _____ _____    ______ ____
ROOT
ATOM      1  C   UNK     1     -12.533   7.259 131.288  0.00  0.00    +0.000 C 
ENDROOT
BRANCH   1   2
ATOM      2  C   UNK     1     -11.646   6.025 131.387  0.00  0.00    +0.000 C 
BRANCH   2   7
ATOM      3  C   UNK     1      -7.187   5.598 133.421  0.00  0.00    +0.000 C 
ATOM      4  N   UNK     1      -8.161   6.128 132.490  0.00  0.00    +0.000 N 
ATOM      5  C   UNK     1      -9.462   5.751 132.447  0.00  0.00    +0.000 C 
ATOM      6  N   UNK     1      -9.980   4.871 133.234  0.00  0.00    +0.000 NA
ATOM      7  N   UNK     1     -10.229   6.357 131.504  0.00  0.00    +0.000 N 
ATOM      8  H   UNK     1      -7.823   6.828 131.843  0.00  0.00    +0.000 HD
ATOM      9  H   UNK     1      -9.267   4.525 133.869  0.00  0.00    +0.000 HD
ATOM     10  H   UNK     1      -9.850   7.059 130.886  0.00  0.00    +0.000 HD
ENDBRANCH   2   7
ENDBRANCH   1   2
BRANCH   1  11
ATOM     11  C   UNK     1     -12.865   7.610 129.826  0.00  0.00    +0.000 C 
BRANCH  11  12
ATOM     12  C   UNK     1     -12.100   8.815 129.231  0.00  0.00    +0.000 C 
BRANCH  12  13
ATOM     13  N   UNK     1     -13.057   9.691 128.519  0.00  0.00    +0.000 NA
ATOM     14  H   UNK     1     -12.628  10.180 127.737  0.00  0.00    +0.000 HD
ATOM     15  H   UNK     1     -13.563  10.311 129.146  0.00  0.00    +0.000 HD
ENDBRANCH  12  13
BRANCH  12  16
ATOM     16  C   UNK     1     -10.901   8.425 128.343  0.00  0.00    +0.000 C 
ATOM     17  O   UNK     1     -10.924   8.457 127.117  0.00  0.00    +0.000 OA
BRANCH  16  18
ATOM     18  O   UNK     1      -9.789   8.046 129.011  0.00  0.00    +0.000 OA
ATOM     19  H   UNK     1      -9.162   8.780 129.139  0.00  0.00    +0.000 HD
ENDBRANCH  16  18
ENDBRANCH  12  16
ENDBRANCH  11  12
ENDBRANCH   1  11
TORSDOF 7
ENDMDL
MODEL 4
REMARK VINA RESULT:      -4.9      1.988      2.158
REMARK  Name = Tilarginine
REMARK  8 active torsions:
REMARK  status: ('A' for Active; 'I' for Inactive)
REMARK    1  A    between atoms: C_1  and  N_2
REMARK    2  A    between atoms: N_5  and  C_6
REMARK    3  A    between atoms: C_6  and  C_7
REMARK    4  A    between atoms: C_7  and  C_8
REMARK    5  A    between atoms: C_8  and  C_9
REMARK    6  A    between atoms: C_9  and  N_10
REMARK    7  A    between atoms: C_9  and  C_11
REMARK    8  A    between atoms: C_11  and  O_12
REMARK                            x       y       z     vdW  Elec       q    Type
REMARK                         _______ _______ _______ _____ _____    ______ ____
ROOT
ATOM      1  C   UNK     1     -12.889   7.285 130.479  0.00  0.00    +0.000 C 
ENDROOT
BRANCH   1   2
ATOM      2  C   UNK     1     -11.636   6.867 131.239  0.00  0.00    +0.000 C 
BRANCH   2   7
ATOM      3  C   UNK     1      -9.376   2.534 130.675  0.00  0.00    +0.000 C 
ATOM      4  N   UNK     1     -10.440   3.414 131.111  0.00  0.00    +0.000 N 
ATOM      5  C   UNK     1     -10.448   4.757 130.924  0.00  0.00    +0.000 C 
ATOM      6  N   UNK     1      -9.500   5.404 130.336  0.00  0.00    +0.000 NA
ATOM      7  N   UNK     1     -11.533   5.420 131.402  0.00  0.00    +0.000 N 
ATOM      8  H   UNK     1     -11.220   2.972 131.578  0.00  0.00    +0.000 HD
ATOM      9  H   UNK     1      -8.776   4.754 130.047  0.00  0.00    +0.000 HD
ATOM     10  H   UNK     1     -12.293   4.934 131.853  0.00  0.00    +0.000 HD
ENDBRANCH   2   7
ENDBRANCH   1   2
BRANCH   1  11
ATOM     11  C   UNK     1     -12.798   6.926 128.985  0.00  0.00    +0.000 C 
BRANCH  11  12
ATOM     12  C   UNK     1     -11.584   7.510 128.224  0.00  0.00    +0.000 C 
BRANCH  12  13
ATOM     13  N   UNK     1     -11.677   8.987 128.226  0.00  0.00    +0.000 NA
ATOM     14  H   UNK     1     -11.102   9.414 127.504  0.00  0.00    +0.000 HD
ATOM     15  H   UNK     1     -11.522   9.389 129.147  0.00  0.00    +0.000 HD
ENDBRANCH  12  13
BRANCH  12  16
ATOM     16  C   UNK     1     -11.400   6.944 126.801  0.00  0.00    +0.000 C 
ATOM     17  O   UNK     1     -10.305   6.745 126.285  0.00  0.00    +0.000 OA
BRANCH  16  18
ATOM     18  O   UNK     1     -12.545   6.660 126.142  0.00  0.00    +0.000 OA
ATOM     19  H   UNK     1     -12.386   6.380 125.223  0.00  0.00    +0.000 HD
ENDBRANCH  16  18
ENDBRANCH  12  16
ENDBRANCH  11  12
ENDBRANCH   1  11
TORSDOF 7
ENDMDL
MODEL 5
REMARK VINA RESULT:      -4.8      2.411      3.179
REMARK  Name = Tilarginine
REMARK  8 active torsions:
REMARK  status: ('A' for Active; 'I' for Inactive)
REMARK    1  A    between atoms: C_1  and  N_2
REMARK    2  A    between atoms: N_5  and  C_6
REMARK    3  A    between atoms: C_6  and  C_7
REMARK    4  A    between atoms: C_7  and  C_8
REMARK    5  A    between atoms: C_8  and  C_9
REMARK    6  A    between atoms: C_9  and  N_10
REMARK    7  A    between atoms: C_9  and  C_11
REMARK    8  A    between atoms: C_11  and  O_12
REMARK                            x       y       z     vdW  Elec       q    Type
REMARK                         _______ _______ _______ _____ _____    ______ ____
ROOT
ATOM      1  C   UNK     1     -11.791   6.249 131.350  0.00  0.00    +0.000 C 
ENDROOT
BRANCH   1   2
ATOM      2  C   UNK     1     -10.304   6.580 131.328  0.00  0.00    +0.000 C 
BRANCH   2   7
ATOM      3  C   UNK     1      -7.821   4.050 127.917  0.00  0.00    +0.000 C 
ATOM      4  N   UNK     1      -8.338   4.306 129.244  0.00  0.00    +0.000 N 
ATOM      5  C   UNK     1      -9.088   5.386 129.578  0.00  0.00    +0.000 C 
ATOM      6  N   UNK     1      -9.424   6.311 128.745  0.00  0.00    +0.000 NA
ATOM      7  N   UNK     1      -9.484   5.459 130.875  0.00  0.00    +0.000 N 
ATOM      8  H   UNK     1      -8.116   3.618 129.949  0.00  0.00    +0.000 HD
ATOM      9  H   UNK     1      -9.043   6.095 127.829  0.00  0.00    +0.000 HD
ATOM     10  H   UNK     1      -9.246   4.741 131.542  0.00  0.00    +0.000 HD
ENDBRANCH   2   7
ENDBRANCH   1   2
BRANCH   1  11
ATOM     11  C   UNK     1     -12.649   7.443 130.895  0.00  0.00    +0.000 C 
BRANCH  11  12
ATOM     12  C   UNK     1     -12.918   7.540 129.375  0.00  0.00    +0.000 C 
BRANCH  12  13
ATOM     13  N   UNK     1     -12.578   6.247 128.741  0.00  0.00    +0.000 NA
ATOM     14  H   UNK     1     -11.612   5.976 128.904  0.00  0.00    +0.000 HD
ATOM     15  H   UNK     1     -12.840   6.210 127.759  0.00  0.00    +0.000 HD
ENDBRANCH  12  13
BRANCH  12  16
ATOM     16  C   UNK     1     -12.215   8.726 128.685  0.00  0.00    +0.000 C 
ATOM     17  O   UNK     1     -11.180   8.618 128.034  0.00  0.00    +0.000 OA
BRANCH  16  18
ATOM     18  O   UNK     1     -12.825   9.922 128.831  0.00  0.00    +0.000 OA
ATOM     19  H   UNK     1     -13.714   9.842 129.222  0.00  0.00    +0.000 HD
ENDBRANCH  16  18
ENDBRANCH  12  16
ENDBRANCH  11  12
ENDBRANCH   1  11
TORSDOF 7
ENDMDL
MODEL 6
REMARK VINA RESULT:      -4.7      2.248      2.428
REMARK  Name = Tilarginine
REMARK  8 active torsions:
REMARK  status: ('A' for Active; 'I' for Inactive)
REMARK    1  A    between atoms: C_1  and  N_2
REMARK    2  A    between atoms: N_5  and  C_6
REMARK    3  A    between atoms: C_6  and  C_7
REMARK    4  A    between atoms: C_7  and  C_8
REMARK    5  A    between atoms: C_8  and  C_9
REMARK    6  A    between atoms: C_9  and  N_10
REMARK    7  A    between atoms: C_9  and  C_11
REMARK    8  A    between atoms: C_11  and  O_12
REMARK                            x       y       z     vdW  Elec       q    Type
REMARK                         _______ _______ _______ _____ _____    ______ ____
ROOT
ATOM      1  C   UNK     1     -12.203   6.684 130.835  0.00  0.00    +0.000 C 
ENDROOT
BRANCH   1   2
ATOM      2  C   UNK     1     -11.779   5.320 130.305  0.00  0.00    +0.000 C 
BRANCH   2   7
ATOM      3  C   UNK     1      -7.089   3.878 130.672  0.00  0.00    +0.000 C 
ATOM      4  N   UNK     1      -8.437   4.100 131.152  0.00  0.00    +0.000 N 
ATOM      5  C   UNK     1      -9.437   4.633 130.408  0.00  0.00    +0.000 C 
ATOM      6  N   UNK     1      -9.297   5.007 129.182  0.00  0.00    +0.000 NA
ATOM      7  N   UNK     1     -10.638   4.765 131.028  0.00  0.00    +0.000 N 
ATOM      8  H   UNK     1      -8.620   3.825 132.107  0.00  0.00    +0.000 HD
ATOM      9  H   UNK     1      -8.342   4.836 128.883  0.00  0.00    +0.000 HD
ATOM     10  H   UNK     1     -10.776   4.467 131.982  0.00  0.00    +0.000 HD
ENDBRANCH   2   7
ENDBRANCH   1   2
BRANCH   1  11
ATOM     11  C   UNK     1     -12.863   7.543 129.741  0.00  0.00    +0.000 C 
BRANCH  11  12
ATOM     12  C   UNK     1     -12.046   8.765 129.259  0.00  0.00    +0.000 C 
BRANCH  12  13
ATOM     13  N   UNK     1     -12.966   9.749 128.645  0.00  0.00    +0.000 NA
ATOM     14  H   UNK     1     -13.275  10.457 129.306  0.00  0.00    +0.000 HD
ATOM     15  H   UNK     1     -13.734   9.309 128.146  0.00  0.00    +0.000 HD
ENDBRANCH  12  13
BRANCH  12  16
ATOM     16  C   UNK     1     -10.871   8.410 128.326  0.00  0.00    +0.000 C 
ATOM     17  O   UNK     1     -10.943   8.438 127.101  0.00  0.00    +0.000 OA
BRANCH  16  18
ATOM     18  O   UNK     1      -9.723   8.068 128.950  0.00  0.00    +0.000 OA
ATOM     19  H   UNK     1      -9.737   8.282 129.900  0.00  0.00    +0.000 HD
ENDBRANCH  16  18
ENDBRANCH  12  16
ENDBRANCH  11  12
ENDBRANCH   1  11
TORSDOF 7
ENDMDL
MODEL 7
REMARK VINA RESULT:      -4.5      3.522      5.656
REMARK  Name = Tilarginine
REMARK  8 active torsions:
REMARK  status: ('A' for Active; 'I' for Inactive)
REMARK    1  A    between atoms: C_1  and  N_2
REMARK    2  A    between atoms: N_5  and  C_6
REMARK    3  A    between atoms: C_6  and  C_7
REMARK    4  A    between atoms: C_7  and  C_8
REMARK    5  A    between atoms: C_8  and  C_9
REMARK    6  A    between atoms: C_9  and  N_10
REMARK    7  A    between atoms: C_9  and  C_11
REMARK    8  A    between atoms: C_11  and  O_12
REMARK                            x       y       z     vdW  Elec       q    Type
REMARK                         _______ _______ _______ _____ _____    ______ ____
ROOT
ATOM      1  C   UNK     1     -10.858   6.890 130.590  0.00  0.00    +0.000 C 
ENDROOT
BRANCH   1   2
ATOM      2  C   UNK     1     -12.230   7.263 130.042  0.00  0.00    +0.000 C 
BRANCH   2   7
ATOM      3  C   UNK     1     -13.761  11.933 129.805  0.00  0.00    +0.000 C 
ATOM      4  N   UNK     1     -13.457  10.682 130.467  0.00  0.00    +0.000 N 
ATOM      5  C   UNK     1     -12.980   9.579 129.839  0.00  0.00    +0.000 C 
ATOM      6  N   UNK     1     -12.744   9.521 128.573  0.00  0.00    +0.000 NA
ATOM      7  N   UNK     1     -12.754   8.495 130.626  0.00  0.00    +0.000 N 
ATOM      8  H   UNK     1     -13.615  10.657 131.465  0.00  0.00    +0.000 HD
ATOM      9  H   UNK     1     -12.969  10.414 128.146  0.00  0.00    +0.000 HD
ATOM     10  H   UNK     1     -12.917   8.520 131.621  0.00  0.00    +0.000 HD
ENDBRANCH   2   7
ENDBRANCH   1   2
BRANCH   1  11
ATOM     11  C   UNK     1     -10.949   6.309 132.013  0.00  0.00    +0.000 C 
BRANCH  11  12
ATOM     12  C   UNK     1      -9.602   5.938 132.677  0.00  0.00    +0.000 C 
BRANCH  12  13
ATOM     13  N   UNK     1      -8.497   6.536 131.894  0.00  0.00    +0.000 NA
ATOM     14  H   UNK     1      -8.712   6.598 130.903  0.00  0.00    +0.000 HD
ATOM     15  H   UNK     1      -7.601   6.093 132.080  0.00  0.00    +0.000 HD
ENDBRANCH  12  13
BRANCH  12  16
ATOM     16  C   UNK     1      -9.403   4.425 132.897  0.00  0.00    +0.000 C 
ATOM     17  O   UNK     1      -8.898   3.678 132.066  0.00  0.00    +0.000 OA
BRANCH  16  18
ATOM     18  O   UNK     1      -9.818   3.958 134.096  0.00  0.00    +0.000 OA
ATOM     19  H   UNK     1      -9.432   3.090 134.311  0.00  0.00    +0.000 HD
ENDBRANCH  16  18
ENDBRANCH  12  16
ENDBRANCH  11  12
ENDBRANCH   1  11
TORSDOF 7
ENDMDL
MODEL 8
REMARK VINA RESULT:      -4.5      3.084      4.143
REMARK  Name = Tilarginine
REMARK  8 active torsions:
REMARK  status: ('A' for Active; 'I' for Inactive)
REMARK    1  A    between atoms: C_1  and  N_2
REMARK    2  A    between atoms: N_5  and  C_6
REMARK    3  A    between atoms: C_6  and  C_7
REMARK    4  A    between atoms: C_7  and  C_8
REMARK    5  A    between atoms: C_8  and  C_9
REMARK    6  A    between atoms: C_9  and  N_10
REMARK    7  A    between atoms: C_9  and  C_11
REMARK    8  A    between atoms: C_11  and  O_12
REMARK                            x       y       z     vdW  Elec       q    Type
REMARK                         _______ _______ _______ _____ _____    ______ ____
ROOT
ATOM      1  C   UNK     1     -10.142   3.049 130.469  0.00  0.00    +0.000 C 
ENDROOT
BRANCH   1   2
ATOM      2  C   UNK     1      -9.683   2.503 131.816  0.00  0.00    +0.000 C 
BRANCH   2   7
ATOM      3  C   UNK     1      -7.673   5.015 135.537  0.00  0.00    +0.000 C 
ATOM      4  N   UNK     1      -8.726   4.660 134.609  0.00  0.00    +0.000 N 
ATOM      5  C   UNK     1      -8.612   3.710 133.650  0.00  0.00    +0.000 C 
ATOM      6  N   UNK     1      -7.544   3.013 133.454  0.00  0.00    +0.000 NA
ATOM      7  N   UNK     1      -9.706   3.513 132.870  0.00  0.00    +0.000 N 
ATOM      8  H   UNK     1      -9.595   5.166 134.708  0.00  0.00    +0.000 HD
ATOM      9  H   UNK     1      -6.832   3.291 134.123  0.00  0.00    +0.000 HD
ATOM     10  H   UNK     1     -10.557   4.036 133.013  0.00  0.00    +0.000 HD
ENDBRANCH   2   7
ENDBRANCH   1   2
BRANCH   1  11
ATOM     11  C   UNK     1     -10.123   4.588 130.438  0.00  0.00    +0.000 C 
BRANCH  11  12
ATOM     12  C   UNK     1     -11.505   5.278 130.364  0.00  0.00    +0.000 C 
BRANCH  12  13
ATOM     13  N   UNK     1     -11.621   5.988 129.070  0.00  0.00    +0.000 NA
ATOM     14  H   UNK     1     -10.941   5.665 128.387  0.00  0.00    +0.000 HD
ATOM     15  H   UNK     1     -11.628   6.999 129.177  0.00  0.00    +0.000 HD
ENDBRANCH  12  13
BRANCH  12  16
ATOM     16  C   UNK     1     -11.815   6.200 131.560  0.00  0.00    +0.000 C 
ATOM     17  O   UNK     1     -12.762   6.979 131.591  0.00  0.00    +0.000 OA
BRANCH  16  18
ATOM     18  O   UNK     1     -10.967   6.090 132.607  0.00  0.00    +0.000 OA
ATOM     19  H   UNK     1     -10.192   5.538 132.402  0.00  0.00    +0.000 HD
ENDBRANCH  16  18
ENDBRANCH  12  16
ENDBRANCH  11  12
ENDBRANCH   1  11
TORSDOF 7
ENDMDL
MODEL 9
REMARK VINA RESULT:      -4.5      2.368      4.739
REMARK  Name = Tilarginine
REMARK  8 active torsions:
REMARK  status: ('A' for Active; 'I' for Inactive)
REMARK    1  A    between atoms: C_1  and  N_2
REMARK    2  A    between atoms: N_5  and  C_6
REMARK    3  A    between atoms: C_6  and  C_7
REMARK    4  A    between atoms: C_7  and  C_8
REMARK    5  A    between atoms: C_8  and  C_9
REMARK    6  A    between atoms: C_9  and  N_10
REMARK    7  A    between atoms: C_9  and  C_11
REMARK    8  A    between atoms: C_11  and  O_12
REMARK                            x       y       z     vdW  Elec       q    Type
REMARK                         _______ _______ _______ _____ _____    ______ ____
ROOT
ATOM      1  C   UNK     1      -9.180   6.282 130.742  0.00  0.00    +0.000 C 
ENDROOT
BRANCH   1   2
ATOM      2  C   UNK     1      -8.964   7.539 129.908  0.00  0.00    +0.000 C 
BRANCH   2   7
ATOM      3  C   UNK     1     -12.133   7.289 126.153  0.00  0.00    +0.000 C 
ATOM      4  N   UNK     1     -11.619   7.799 127.407  0.00  0.00    +0.000 N 
ATOM      5  C   UNK     1     -10.493   7.349 128.013  0.00  0.00    +0.000 C 
ATOM      6  N   UNK     1      -9.751   6.407 127.538  0.00  0.00    +0.000 NA
ATOM      7  N   UNK     1     -10.165   7.949 129.186  0.00  0.00    +0.000 N 
ATOM      8  H   UNK     1     -12.151   8.545 127.835  0.00  0.00    +0.000 HD
ATOM      9  H   UNK     1     -10.144   6.077 126.661  0.00  0.00    +0.000 HD
ATOM     10  H   UNK     1     -10.722   8.697 129.571  0.00  0.00    +0.000 HD
ENDBRANCH   2   7
ENDBRANCH   1   2
BRANCH   1  11
ATOM     11  C   UNK     1     -10.352   6.444 131.727  0.00  0.00    +0.000 C 
BRANCH  11  12
ATOM     12  C   UNK     1     -11.713   5.881 131.254  0.00  0.00    +0.000 C 
BRANCH  12  13
ATOM     13  N   UNK     1     -11.496   5.033 130.061  0.00  0.00    +0.000 NA
ATOM     14  H   UNK     1     -11.866   5.454 129.212  0.00  0.00    +0.000 HD
ATOM     15  H   UNK     1     -11.809   4.075 130.198  0.00  0.00    +0.000 HD
ENDBRANCH  12  13
BRANCH  12  16
ATOM     16  C   UNK     1     -12.790   6.958 131.011  0.00  0.00    +0.000 C 
ATOM     17  O   UNK     1     -13.200   7.718 131.882  0.00  0.00    +0.000 OA
BRANCH  16  18
ATOM     18  O   UNK     1     -13.260   7.027 129.746  0.00  0.00    +0.000 OA
ATOM     19  H   UNK     1     -14.231   7.094 129.712  0.00  0.00    +0.000 HD
ENDBRANCH  16  18
ENDBRANCH  12  16
ENDBRANCH  11  12
ENDBRANCH   1  11
TORSDOF 7
ENDMDL
