MODEL 1
REMARK VINA RESULT:      -6.0      0.000      0.000
REMARK  Name = Tilbroquinol
REMARK  2 active torsions:
REMARK  status: ('A' for Active; 'I' for Inactive)
REMARK    1  A    between atoms: C_1  and  C_2
REMARK    2  A    between atoms: C_9  and  O_10
REMARK                            x       y       z     vdW  Elec       q    Type
REMARK                         _______ _______ _______ _____ _____    ______ ____
ROOT
ATOM      1  C   UNL     1     -13.071   7.567 131.434  0.00  0.00    +0.000 C 
ATOM      2  C   UNL     1     -11.779   7.027 130.871  0.00  0.00    +0.000 A 
ATOM      3  C   UNL     1     -11.463   7.041 129.492  0.00  0.00    +0.000 A 
ATOM      4  C   UNL     1     -12.314   7.593 128.525  0.00  0.00    +0.000 A 
ATOM      5  C   UNL     1     -11.879   7.787 127.228  0.00  0.00    +0.000 A 
ATOM      6  C   UNL     1     -10.673   7.221 126.868  0.00  0.00    +0.000 A 
ATOM      7  N   UNL     1      -9.850   6.585 127.734  0.00  0.00    +0.000 NA
ATOM      8  C   UNL     1     -10.207   6.551 129.037  0.00  0.00    +0.000 A 
ATOM      9  C   UNL     1      -9.304   6.066 129.985  0.00  0.00    +0.000 A 
ATOM     10  C   UNL     1      -9.594   6.079 131.348  0.00  0.00    +0.000 A 
ATOM     11 BR   UNL     1      -8.345   5.494 132.648  0.00  0.00    +0.000 Br
ATOM     12  C   UNL     1     -10.827   6.559 131.787  0.00  0.00    +0.000 A 
ENDROOT
BRANCH   9  13
ATOM     13  O   UNL     1      -8.076   5.599 129.559  0.00  0.00    +0.000 OA
ATOM     14  H   UNL     1      -7.838   4.886 130.186  0.00  0.00    +0.000 HD
ENDBRANCH   9  13
TORSDOF 1
ENDMDL
MODEL 2
REMARK VINA RESULT:      -5.6      9.547     10.721
REMARK  Name = Tilbroquinol
REMARK  2 active torsions:
REMARK  status: ('A' for Active; 'I' for Inactive)
REMARK    1  A    between atoms: C_1  and  C_2
REMARK    2  A    between atoms: C_9  and  O_10
REMARK                            x       y       z     vdW  Elec       q    Type
REMARK                         _______ _______ _______ _____ _____    ______ ____
ROOT
ATOM      1  C   UNL     1      -5.399  -0.729 125.448  0.00  0.00    +0.000 C 
ATOM      2  C   UNL     1      -6.670  -0.579 124.648  0.00  0.00    +0.000 A 
ATOM      3  C   UNL     1      -7.554  -1.649 124.378  0.00  0.00    +0.000 A 
ATOM      4  C   UNL     1      -7.343  -2.947 124.862  0.00  0.00    +0.000 A 
ATOM      5  C   UNL     1      -8.331  -3.907 124.766  0.00  0.00    +0.000 A 
ATOM      6  C   UNL     1      -9.432  -3.615 123.989  0.00  0.00    +0.000 A 
ATOM      7  N   UNL     1      -9.647  -2.411 123.408  0.00  0.00    +0.000 NA
ATOM      8  C   UNL     1      -8.757  -1.424 123.651  0.00  0.00    +0.000 A 
ATOM      9  C   UNL     1      -9.035  -0.125 123.221  0.00  0.00    +0.000 A 
ATOM     10  C   UNL     1      -8.187   0.941 123.511  0.00  0.00    +0.000 A 
ATOM     11 BR   UNL     1      -8.595   2.720 122.999  0.00  0.00    +0.000 Br
ATOM     12  C   UNL     1      -7.009   0.713 124.223  0.00  0.00    +0.000 A 
ENDROOT
BRANCH   9  13
ATOM     13  O   UNL     1     -10.204   0.111 122.525  0.00  0.00    +0.000 OA
ATOM     14  H   UNL     1      -9.930   0.250 121.596  0.00  0.00    +0.000 HD
ENDBRANCH   9  13
TORSDOF 1
ENDMDL
MODEL 3
REMARK VINA RESULT:      -5.6      2.302      3.175
REMARK  Name = Tilbroquinol
REMARK  2 active torsions:
REMARK  status: ('A' for Active; 'I' for Inactive)
REMARK    1  A    between atoms: C_1  and  C_2
REMARK    2  A    between atoms: C_9  and  O_10
REMARK                            x       y       z     vdW  Elec       q    Type
REMARK                         _______ _______ _______ _____ _____    ______ ____
ROOT
ATOM      1  C   UNL     1      -7.236   6.698 131.473  0.00  0.00    +0.000 C 
ATOM      2  C   UNL     1      -8.470   5.891 131.152  0.00  0.00    +0.000 A 
ATOM      3  C   UNL     1      -9.527   6.369 130.343  0.00  0.00    +0.000 A 
ATOM      4  C   UNL     1      -9.505   7.632 129.736  0.00  0.00    +0.000 A 
ATOM      5  C   UNL     1     -10.444   7.975 128.782  0.00  0.00    +0.000 A 
ATOM      6  C   UNL     1     -11.520   7.129 128.614  0.00  0.00    +0.000 A 
ATOM      7  N   UNL     1     -11.652   5.940 129.246  0.00  0.00    +0.000 NA
ATOM      8  C   UNL     1     -10.642   5.535 130.049  0.00  0.00    +0.000 A 
ATOM      9  C   UNL     1     -10.657   4.242 130.574  0.00  0.00    +0.000 A 
ATOM     10  C   UNL     1      -9.605   3.752 131.344  0.00  0.00    +0.000 A 
ATOM     11 BR   UNL     1      -9.580   1.972 131.997  0.00  0.00    +0.000 Br
ATOM     12  C   UNL     1      -8.515   4.574 131.630  0.00  0.00    +0.000 A 
ENDROOT
BRANCH   9  13
ATOM     13  O   UNL     1     -11.727   3.418 130.287  0.00  0.00    +0.000 OA
ATOM     14  H   UNL     1     -11.494   2.974 129.447  0.00  0.00    +0.000 HD
ENDBRANCH   9  13
TORSDOF 1
ENDMDL
MODEL 4
REMARK VINA RESULT:      -5.4      7.946      8.949
REMARK  Name = Tilbroquinol
REMARK  2 active torsions:
REMARK  status: ('A' for Active; 'I' for Inactive)
REMARK    1  A    between atoms: C_1  and  C_2
REMARK    2  A    between atoms: C_9  and  O_10
REMARK                            x       y       z     vdW  Elec       q    Type
REMARK                         _______ _______ _______ _____ _____    ______ ____
ROOT
ATOM      1  C   UNL     1      -4.779   3.833 125.105  0.00  0.00    +0.000 C 
ATOM      2  C   UNL     1      -5.993   3.465 124.287  0.00  0.00    +0.000 A 
ATOM      3  C   UNL     1      -6.138   3.785 122.917  0.00  0.00    +0.000 A 
ATOM      4  C   UNL     1      -5.144   4.448 122.184  0.00  0.00    +0.000 A 
ATOM      5  C   UNL     1      -5.226   4.545 120.809  0.00  0.00    +0.000 A 
ATOM      6  C   UNL     1      -6.412   4.172 120.212  0.00  0.00    +0.000 A 
ATOM      7  N   UNL     1      -7.452   3.618 120.880  0.00  0.00    +0.000 NA
ATOM      8  C   UNL     1      -7.295   3.369 122.199  0.00  0.00    +0.000 A 
ATOM      9  C   UNL     1      -8.269   2.638 122.882  0.00  0.00    +0.000 A 
ATOM     10  C   UNL     1      -8.118   2.290 124.222  0.00  0.00    +0.000 A 
ATOM     11 BR   UNL     1      -9.399   1.233 125.137  0.00  0.00    +0.000 Br
ATOM     12  C   UNL     1      -6.984   2.702 124.921  0.00  0.00    +0.000 A 
ENDROOT
BRANCH   9  13
ATOM     13  O   UNL     1      -9.390   2.218 122.195  0.00  0.00    +0.000 OA
ATOM     14  H   UNL     1      -9.228   1.276 121.986  0.00  0.00    +0.000 HD
ENDBRANCH   9  13
TORSDOF 1
ENDMDL
MODEL 5
REMARK VINA RESULT:      -5.4      2.763      4.142
REMARK  Name = Tilbroquinol
REMARK  2 active torsions:
REMARK  status: ('A' for Active; 'I' for Inactive)
REMARK    1  A    between atoms: C_1  and  C_2
REMARK    2  A    between atoms: C_9  and  O_10
REMARK                            x       y       z     vdW  Elec       q    Type
REMARK                         _______ _______ _______ _____ _____    ______ ____
ROOT
ATOM      1  C   UNL     1      -6.171   7.223 130.740  0.00  0.00    +0.000 C 
ATOM      2  C   UNL     1      -7.204   6.504 131.574  0.00  0.00    +0.000 A 
ATOM      3  C   UNL     1      -8.596   6.599 131.344  0.00  0.00    +0.000 A 
ATOM      4  C   UNL     1      -9.142   7.348 130.292  0.00  0.00    +0.000 A 
ATOM      5  C   UNL     1     -10.479   7.240 129.967  0.00  0.00    +0.000 A 
ATOM      6  C   UNL     1     -11.295   6.552 130.840  0.00  0.00    +0.000 A 
ATOM      7  N   UNL     1     -10.844   5.890 131.932  0.00  0.00    +0.000 NA
ATOM      8  C   UNL     1      -9.510   5.860 132.146  0.00  0.00    +0.000 A 
ATOM      9  C   UNL     1      -8.994   5.042 133.153  0.00  0.00    +0.000 A 
ATOM     10  C   UNL     1      -7.623   4.917 133.364  0.00  0.00    +0.000 A 
ATOM     11 BR   UNL     1      -6.910   3.751 134.678  0.00  0.00    +0.000 Br
ATOM     12  C   UNL     1      -6.732   5.645 132.576  0.00  0.00    +0.000 A 
ENDROOT
BRANCH   9  13
ATOM     13  O   UNL     1      -9.868   4.309 133.931  0.00  0.00    +0.000 OA
ATOM     14  H   UNL     1      -9.436   4.233 134.805  0.00  0.00    +0.000 HD
ENDBRANCH   9  13
TORSDOF 1
ENDMDL
MODEL 6
REMARK VINA RESULT:      -5.3      2.790      4.108
REMARK  Name = Tilbroquinol
REMARK  2 active torsions:
REMARK  status: ('A' for Active; 'I' for Inactive)
REMARK    1  A    between atoms: C_1  and  C_2
REMARK    2  A    between atoms: C_9  and  O_10
REMARK                            x       y       z     vdW  Elec       q    Type
REMARK                         _______ _______ _______ _____ _____    ______ ____
ROOT
ATOM      1  C   UNL     1      -8.536   4.443 134.217  0.00  0.00    +0.000 C 
ATOM      2  C   UNL     1      -7.898   5.273 133.129  0.00  0.00    +0.000 A 
ATOM      3  C   UNL     1      -8.628   5.882 132.083  0.00  0.00    +0.000 A 
ATOM      4  C   UNL     1     -10.024   5.796 131.982  0.00  0.00    +0.000 A 
ATOM      5  C   UNL     1     -10.717   6.580 131.081  0.00  0.00    +0.000 A 
ATOM      6  C   UNL     1      -9.983   7.276 130.143  0.00  0.00    +0.000 A 
ATOM      7  N   UNL     1      -8.630   7.318 130.124  0.00  0.00    +0.000 NA
ATOM      8  C   UNL     1      -7.963   6.685 131.114  0.00  0.00    +0.000 A 
ATOM      9  C   UNL     1      -6.583   6.855 131.232  0.00  0.00    +0.000 A 
ATOM     10  C   UNL     1      -5.861   6.286 132.279  0.00  0.00    +0.000 A 
ATOM     11 BR   UNL     1      -3.999   6.575 132.491  0.00  0.00    +0.000 Br
ATOM     12  C   UNL     1      -6.518   5.499 133.224  0.00  0.00    +0.000 A 
ENDROOT
BRANCH   9  13
ATOM     13  O   UNL     1      -5.926   7.642 130.307  0.00  0.00    +0.000 OA
ATOM     14  H   UNL     1      -6.156   8.564 130.540  0.00  0.00    +0.000 HD
ENDBRANCH   9  13
TORSDOF 1
ENDMDL
MODEL 7
REMARK VINA RESULT:      -5.3      8.818      9.696
REMARK  Name = Tilbroquinol
REMARK  2 active torsions:
REMARK  status: ('A' for Active; 'I' for Inactive)
REMARK    1  A    between atoms: C_1  and  C_2
REMARK    2  A    between atoms: C_9  and  O_10
REMARK                            x       y       z     vdW  Elec       q    Type
REMARK                         _______ _______ _______ _____ _____    ______ ____
ROOT
ATOM      1  C   UNL     1      -5.508  -0.315 125.671  0.00  0.00    +0.000 C 
ATOM      2  C   UNL     1      -6.777  -0.287 124.855  0.00  0.00    +0.000 A 
ATOM      3  C   UNL     1      -7.291   0.883 124.250  0.00  0.00    +0.000 A 
ATOM      4  C   UNL     1      -6.644   2.124 124.330  0.00  0.00    +0.000 A 
ATOM      5  C   UNL     1      -7.055   3.187 123.549  0.00  0.00    +0.000 A 
ATOM      6  C   UNL     1      -8.246   3.055 122.866  0.00  0.00    +0.000 A 
ATOM      7  N   UNL     1      -8.972   1.913 122.831  0.00  0.00    +0.000 NA
ATOM      8  C   UNL     1      -8.472   0.826 123.459  0.00  0.00    +0.000 A 
ATOM      9  C   UNL     1      -9.098  -0.412 123.296  0.00  0.00    +0.000 A 
ATOM     10  C   UNL     1      -8.580  -1.575 123.859  0.00  0.00    +0.000 A 
ATOM     11 BR   UNL     1      -9.379  -3.272 123.579  0.00  0.00    +0.000 Br
ATOM     12  C   UNL     1      -7.423  -1.512 124.635  0.00  0.00    +0.000 A 
ENDROOT
BRANCH   9  13
ATOM     13  O   UNL     1     -10.238  -0.485 122.520  0.00  0.00    +0.000 OA
ATOM     14  H   UNL     1     -10.746   0.325 122.728  0.00  0.00    +0.000 HD
ENDBRANCH   9  13
TORSDOF 1
ENDMDL
MODEL 8
REMARK VINA RESULT:      -5.2      3.830      6.124
REMARK  Name = Tilbroquinol
REMARK  2 active torsions:
REMARK  status: ('A' for Active; 'I' for Inactive)
REMARK    1  A    between atoms: C_1  and  C_2
REMARK    2  A    between atoms: C_9  and  O_10
REMARK                            x       y       z     vdW  Elec       q    Type
REMARK                         _______ _______ _______ _____ _____    ______ ____
ROOT
ATOM      1  C   UNL     1      -5.600   7.160 130.863  0.00  0.00    +0.000 C 
ATOM      2  C   UNL     1      -6.888   6.648 131.460  0.00  0.00    +0.000 A 
ATOM      3  C   UNL     1      -6.958   5.967 132.697  0.00  0.00    +0.000 A 
ATOM      4  C   UNL     1      -5.833   5.735 133.500  0.00  0.00    +0.000 A 
ATOM      5  C   UNL     1      -5.971   5.267 134.792  0.00  0.00    +0.000 A 
ATOM      6  C   UNL     1      -7.219   4.829 135.183  0.00  0.00    +0.000 A 
ATOM      7  N   UNL     1      -8.329   4.932 134.415  0.00  0.00    +0.000 NA
ATOM      8  C   UNL     1      -8.215   5.548 133.218  0.00  0.00    +0.000 A 
ATOM      9  C   UNL     1      -9.365   5.834 132.479  0.00  0.00    +0.000 A 
ATOM     10  C   UNL     1      -9.307   6.534 131.276  0.00  0.00    +0.000 A 
ATOM     11 BR   UNL     1     -10.869   6.994 130.304  0.00  0.00    +0.000 Br
ATOM     12  C   UNL     1      -8.073   6.940 130.770  0.00  0.00    +0.000 A 
ENDROOT
BRANCH   9  13
ATOM     13  O   UNL     1     -10.592   5.445 132.978  0.00  0.00    +0.000 OA
ATOM     14  H   UNL     1     -10.474   5.396 133.947  0.00  0.00    +0.000 HD
ENDBRANCH   9  13
TORSDOF 1
ENDMDL
MODEL 9
REMARK VINA RESULT:      -5.1     10.550     10.989
REMARK  Name = Tilbroquinol
REMARK  2 active torsions:
REMARK  status: ('A' for Active; 'I' for Inactive)
REMARK    1  A    between atoms: C_1  and  C_2
REMARK    2  A    between atoms: C_9  and  O_10
REMARK                            x       y       z     vdW  Elec       q    Type
REMARK                         _______ _______ _______ _____ _____    ______ ____
ROOT
ATOM      1  C   UNL     1      -9.628  -4.204 128.223  0.00  0.00    +0.000 C 
ATOM      2  C   UNL     1      -8.714  -3.412 127.321  0.00  0.00    +0.000 A 
ATOM      3  C   UNL     1      -7.490  -2.849 127.751  0.00  0.00    +0.000 A 
ATOM      4  C   UNL     1      -6.999  -3.006 129.054  0.00  0.00    +0.000 A 
ATOM      5  C   UNL     1      -5.708  -2.634 129.374  0.00  0.00    +0.000 A 
ATOM      6  C   UNL     1      -5.004  -1.906 128.437  0.00  0.00    +0.000 A 
ATOM      7  N   UNL     1      -5.463  -1.632 127.194  0.00  0.00    +0.000 NA
ATOM      8  C   UNL     1      -6.658  -2.148 126.833  0.00  0.00    +0.000 A 
ATOM      9  C   UNL     1      -7.082  -2.041 125.507  0.00  0.00    +0.000 A 
ATOM     10  C   UNL     1      -8.269  -2.622 125.068  0.00  0.00    +0.000 A 
ATOM     11 BR   UNL     1      -8.815  -2.547 123.253  0.00  0.00    +0.000 Br
ATOM     12  C   UNL     1      -9.081  -3.305 125.973  0.00  0.00    +0.000 A 
ENDROOT
BRANCH   9  13
ATOM     13  O   UNL     1      -6.279  -1.375 124.602  0.00  0.00    +0.000 OA
ATOM     14  H   UNL     1      -5.684  -2.057 124.232  0.00  0.00    +0.000 HD
ENDBRANCH   9  13
TORSDOF 1
ENDMDL
