MODEL 1
REMARK VINA RESULT:      -6.4      0.000      0.000
REMARK  Name = Tiludronic acid
REMARK  8 active torsions:
REMARK  status: ('A' for Active; 'I' for Inactive)
REMARK    1  A    between atoms: O_1  and  P_2
REMARK    2  A    between atoms: P_2  and  O_3
REMARK    3  A    between atoms: P_2  and  C_5
REMARK    4  A    between atoms: C_5  and  S_6
REMARK    5  A    between atoms: C_5  and  P_14
REMARK    6  A    between atoms: S_6  and  C_7
REMARK    7  A    between atoms: P_14  and  O_15
REMARK    8  A    between atoms: P_14  and  O_16
REMARK                            x       y       z     vdW  Elec       q    Type
REMARK                         _______ _______ _______ _____ _____    ______ ____
ROOT
ATOM      1  C   UNL     1      -8.052   1.281 123.860  0.00  0.00    +0.000 C 
ENDROOT
BRANCH   1   2
ATOM      2  P   UNL     1      -8.126   3.037 124.368  0.00  0.00    +0.000 P 
ATOM      3  O   UNL     1      -6.637   3.144 124.693  0.00  0.00    +0.000 OA
BRANCH   2   4
ATOM      4  O   UNL     1      -8.195   4.698 124.849  0.00  0.00    +0.000 OA
ATOM      5  H   UNL     1      -8.538   4.669 125.770  0.00  0.00    +0.000 HD
ENDBRANCH   2   4
BRANCH   2   6
ATOM      6  O   UNL     1      -8.323   3.675 122.882  0.00  0.00    +0.000 OA
ATOM      7  H   UNL     1      -8.632   4.604 122.951  0.00  0.00    +0.000 HD
ENDBRANCH   2   6
ENDBRANCH   1   2
BRANCH   1   8
ATOM      8  P   UNL     1      -9.670   0.778 123.168  0.00  0.00    +0.000 P 
ATOM      9  O   UNL     1     -11.039   0.353 122.582  0.00  0.00    +0.000 OA
BRANCH   8  10
ATOM     10  O   UNL     1      -9.694  -0.452 124.279  0.00  0.00    +0.000 OA
ATOM     11  H   UNL     1      -9.119  -0.271 125.054  0.00  0.00    +0.000 HD
ENDBRANCH   8  10
BRANCH   8  12
ATOM     12  O   UNL     1     -10.372   1.961 124.085  0.00  0.00    +0.000 OA
ATOM     13  H   UNL     1     -10.408   1.636 125.018  0.00  0.00    +0.000 HD
ENDBRANCH   8  12
ENDBRANCH   1   8
BRANCH   1  14
ATOM     14  S   UNL     1      -7.569   0.132 125.264  0.00  0.00    +0.000 S 
BRANCH  14  15
ATOM     15  C   UNL     1      -6.532  -1.139 124.603  0.00  0.00    +0.000 A 
ATOM     16  C   UNL     1      -6.391  -1.429 123.243  0.00  0.00    +0.000 A 
ATOM     17  C   UNL     1      -5.650  -2.548 122.850  0.00  0.00    +0.000 A 
ATOM     18  C   UNL     1      -5.057  -3.372 123.797  0.00  0.00    +0.000 A 
ATOM     19 CL   UNL     1      -4.232  -4.796 123.301  0.00  0.00    +0.000 Cl
ATOM     20  C   UNL     1      -5.148  -3.065 125.155  0.00  0.00    +0.000 A 
ATOM     21  C   UNL     1      -5.878  -1.943 125.544  0.00  0.00    +0.000 A 
ENDBRANCH  14  15
ENDBRANCH   1  14
TORSDOF 8
ENDMDL
MODEL 2
REMARK VINA RESULT:      -6.2      8.770     10.094
REMARK  Name = Tiludronic acid
REMARK  8 active torsions:
REMARK  status: ('A' for Active; 'I' for Inactive)
REMARK    1  A    between atoms: O_1  and  P_2
REMARK    2  A    between atoms: P_2  and  O_3
REMARK    3  A    between atoms: P_2  and  C_5
REMARK    4  A    between atoms: C_5  and  S_6
REMARK    5  A    between atoms: C_5  and  P_14
REMARK    6  A    between atoms: S_6  and  C_7
REMARK    7  A    between atoms: P_14  and  O_15
REMARK    8  A    between atoms: P_14  and  O_16
REMARK                            x       y       z     vdW  Elec       q    Type
REMARK                         _______ _______ _______ _____ _____    ______ ____
ROOT
ATOM      1  C   UNL     1     -11.504   7.901 128.795  0.00  0.00    +0.000 C 
ENDROOT
BRANCH   1   2
ATOM      2  P   UNL     1     -12.605   9.343 129.036  0.00  0.00    +0.000 P 
ATOM      3  O   UNL     1     -13.745   8.783 128.188  0.00  0.00    +0.000 OA
BRANCH   2   4
ATOM      4  O   UNL     1     -13.645  10.707 129.263  0.00  0.00    +0.000 OA
ATOM      5  H   UNL     1     -13.564  10.916 130.221  0.00  0.00    +0.000 HD
ENDBRANCH   2   4
BRANCH   2   6
ATOM      6  O   UNL     1     -12.995   9.049 130.590  0.00  0.00    +0.000 OA
ATOM      7  H   UNL     1     -13.680   9.683 130.892  0.00  0.00    +0.000 HD
ENDBRANCH   2   6
ENDBRANCH   1   2
BRANCH   1   8
ATOM      8  P   UNL     1     -11.078   7.748 127.022  0.00  0.00    +0.000 P 
ATOM      9  O   UNL     1     -10.717   7.619 125.522  0.00  0.00    +0.000 OA
BRANCH   8  10
ATOM     10  O   UNL     1      -9.889   6.681 127.464  0.00  0.00    +0.000 OA
ATOM     11  H   UNL     1      -9.468   6.918 128.319  0.00  0.00    +0.000 HD
ENDBRANCH   8  10
BRANCH   8  12
ATOM     12  O   UNL     1     -12.330   6.681 126.866  0.00  0.00    +0.000 OA
ATOM     13  H   UNL     1     -12.787   6.623 127.741  0.00  0.00    +0.000 HD
ENDBRANCH   8  12
ENDBRANCH   1   8
BRANCH   1  14
ATOM     14  S   UNL     1     -12.254   6.297 129.417  0.00  0.00    +0.000 S 
BRANCH  14  15
ATOM     15  C   UNL     1     -11.102   5.543 130.527  0.00  0.00    +0.000 A 
ATOM     16  C   UNL     1     -10.697   4.206 130.474  0.00  0.00    +0.000 A 
ATOM     17  C   UNL     1      -9.888   3.690 131.490  0.00  0.00    +0.000 A 
ATOM     18  C   UNL     1      -9.486   4.491 132.550  0.00  0.00    +0.000 A 
ATOM     19 CL   UNL     1      -8.571   3.816 133.839  0.00  0.00    +0.000 Cl
ATOM     20  C   UNL     1      -9.840   5.840 132.588  0.00  0.00    +0.000 A 
ATOM     21  C   UNL     1     -10.638   6.356 131.568  0.00  0.00    +0.000 A 
ENDBRANCH  14  15
ENDBRANCH   1  14
TORSDOF 8
ENDMDL
MODEL 3
REMARK VINA RESULT:      -6.2      2.492      3.514
REMARK  Name = Tiludronic acid
REMARK  8 active torsions:
REMARK  status: ('A' for Active; 'I' for Inactive)
REMARK    1  A    between atoms: O_1  and  P_2
REMARK    2  A    between atoms: P_2  and  O_3
REMARK    3  A    between atoms: P_2  and  C_5
REMARK    4  A    between atoms: C_5  and  S_6
REMARK    5  A    between atoms: C_5  and  P_14
REMARK    6  A    between atoms: S_6  and  C_7
REMARK    7  A    between atoms: P_14  and  O_15
REMARK    8  A    between atoms: P_14  and  O_16
REMARK                            x       y       z     vdW  Elec       q    Type
REMARK                         _______ _______ _______ _____ _____    ______ ____
ROOT
ATOM      1  C   UNL     1      -6.751   2.937 124.989  0.00  0.00    +0.000 C 
ENDROOT
BRANCH   1   2
ATOM      2  P   UNL     1      -7.655   4.038 126.137  0.00  0.00    +0.000 P 
ATOM      3  O   UNL     1      -8.817   4.302 125.182  0.00  0.00    +0.000 OA
BRANCH   2   4
ATOM      4  O   UNL     1      -8.510   5.079 127.223  0.00  0.00    +0.000 OA
ATOM      5  H   UNL     1      -9.175   5.528 126.655  0.00  0.00    +0.000 HD
ENDBRANCH   2   4
BRANCH   2   6
ATOM      6  O   UNL     1      -8.160   2.886 127.174  0.00  0.00    +0.000 OA
ATOM      7  H   UNL     1      -7.400   2.336 127.462  0.00  0.00    +0.000 HD
ENDBRANCH   2   6
ENDBRANCH   1   2
BRANCH   1   8
ATOM      8  P   UNL     1      -5.923   3.944 123.704  0.00  0.00    +0.000 P 
ATOM      9  O   UNL     1      -5.222   4.795 122.618  0.00  0.00    +0.000 OA
BRANCH   8  10
ATOM     10  O   UNL     1      -7.289   3.778 122.781  0.00  0.00    +0.000 OA
ATOM     11  H   UNL     1      -7.112   3.335 121.923  0.00  0.00    +0.000 HD
ENDBRANCH   8  10
BRANCH   8  12
ATOM     12  O   UNL     1      -6.355   5.293 124.556  0.00  0.00    +0.000 OA
ATOM     13  H   UNL     1      -6.155   5.124 125.509  0.00  0.00    +0.000 HD
ENDBRANCH   8  12
ENDBRANCH   1   8
BRANCH   1  14
ATOM     14  S   UNL     1      -7.857   1.652 124.184  0.00  0.00    +0.000 S 
BRANCH  14  15
ATOM     15  C   UNL     1      -7.008   0.101 124.208  0.00  0.00    +0.000 A 
ATOM     16  C   UNL     1      -6.172  -0.337 125.240  0.00  0.00    +0.000 A 
ATOM     17  C   UNL     1      -5.445  -1.521 125.084  0.00  0.00    +0.000 A 
ATOM     18  C   UNL     1      -5.545  -2.263 123.914  0.00  0.00    +0.000 A 
ATOM     19 CL   UNL     1      -4.573  -3.664 123.699  0.00  0.00    +0.000 Cl
ATOM     20  C   UNL     1      -6.414  -1.864 122.898  0.00  0.00    +0.000 A 
ATOM     21  C   UNL     1      -7.146  -0.689 123.061  0.00  0.00    +0.000 A 
ENDBRANCH  14  15
ENDBRANCH   1  14
TORSDOF 8
ENDMDL
MODEL 4
REMARK VINA RESULT:      -6.1      8.062      9.114
REMARK  Name = Tiludronic acid
REMARK  8 active torsions:
REMARK  status: ('A' for Active; 'I' for Inactive)
REMARK    1  A    between atoms: O_1  and  P_2
REMARK    2  A    between atoms: P_2  and  O_3
REMARK    3  A    between atoms: P_2  and  C_5
REMARK    4  A    between atoms: C_5  and  S_6
REMARK    5  A    between atoms: C_5  and  P_14
REMARK    6  A    between atoms: S_6  and  C_7
REMARK    7  A    between atoms: P_14  and  O_15
REMARK    8  A    between atoms: P_14  and  O_16
REMARK                            x       y       z     vdW  Elec       q    Type
REMARK                         _______ _______ _______ _____ _____    ______ ____
ROOT
ATOM      1  C   UNL     1     -11.155   6.988 128.715  0.00  0.00    +0.000 C 
ENDROOT
BRANCH   1   2
ATOM      2  P   UNL     1     -10.942   7.483 126.966  0.00  0.00    +0.000 P 
ATOM      3  O   UNL     1      -9.772   6.536 126.702  0.00  0.00    +0.000 OA
BRANCH   2   4
ATOM      4  O   UNL     1     -10.740   7.950 125.313  0.00  0.00    +0.000 OA
ATOM      5  H   UNL     1     -11.094   8.867 125.275  0.00  0.00    +0.000 HD
ENDBRANCH   2   4
BRANCH   2   6
ATOM      6  O   UNL     1     -12.274   6.749 126.380  0.00  0.00    +0.000 OA
ATOM      7  H   UNL     1     -12.071   5.817 126.148  0.00  0.00    +0.000 HD
ENDBRANCH   2   6
ENDBRANCH   1   2
BRANCH   1   8
ATOM      8  P   UNL     1     -12.228   8.203 129.566  0.00  0.00    +0.000 P 
ATOM      9  O   UNL     1     -13.135   9.230 130.285  0.00  0.00    +0.000 OA
BRANCH   8  10
ATOM     10  O   UNL     1     -12.100   9.165 128.221  0.00  0.00    +0.000 OA
ATOM     11  H   UNL     1     -12.396  10.086 128.388  0.00  0.00    +0.000 HD
ENDBRANCH   8  10
BRANCH   8  12
ATOM     12  O   UNL     1     -13.531   7.297 129.104  0.00  0.00    +0.000 OA
ATOM     13  H   UNL     1     -13.670   6.598 129.790  0.00  0.00    +0.000 HD
ENDBRANCH   8  12
ENDBRANCH   1   8
BRANCH   1  14
ATOM     14  S   UNL     1      -9.526   6.817 129.631  0.00  0.00    +0.000 S 
BRANCH  14  15
ATOM     15  C   UNL     1      -9.503   5.236 130.423  0.00  0.00    +0.000 A 
ATOM     16  C   UNL     1      -8.395   4.684 131.075  0.00  0.00    +0.000 A 
ATOM     17  C   UNL     1      -8.455   3.368 131.542  0.00  0.00    +0.000 A 
ATOM     18  C   UNL     1      -9.602   2.606 131.363  0.00  0.00    +0.000 A 
ATOM     19 CL   UNL     1      -9.626   0.960 131.858  0.00  0.00    +0.000 Cl
ATOM     20  C   UNL     1     -10.731   3.161 130.762  0.00  0.00    +0.000 A 
ATOM     21  C   UNL     1     -10.673   4.477 130.305  0.00  0.00    +0.000 A 
ENDBRANCH  14  15
ENDBRANCH   1  14
TORSDOF 8
ENDMDL
MODEL 5
REMARK VINA RESULT:      -6.1      4.755      5.671
REMARK  Name = Tiludronic acid
REMARK  8 active torsions:
REMARK  status: ('A' for Active; 'I' for Inactive)
REMARK    1  A    between atoms: O_1  and  P_2
REMARK    2  A    between atoms: P_2  and  O_3
REMARK    3  A    between atoms: P_2  and  C_5
REMARK    4  A    between atoms: C_5  and  S_6
REMARK    5  A    between atoms: C_5  and  P_14
REMARK    6  A    between atoms: S_6  and  C_7
REMARK    7  A    between atoms: P_14  and  O_15
REMARK    8  A    between atoms: P_14  and  O_16
REMARK                            x       y       z     vdW  Elec       q    Type
REMARK                         _______ _______ _______ _____ _____    ______ ____
ROOT
ATOM      1  C   UNL     1      -8.179   2.865 124.225  0.00  0.00    +0.000 C 
ENDROOT
BRANCH   1   2
ATOM      2  P   UNL     1      -7.684   3.917 125.638  0.00  0.00    +0.000 P 
ATOM      3  O   UNL     1      -6.450   4.496 124.948  0.00  0.00    +0.000 OA
BRANCH   2   4
ATOM      4  O   UNL     1      -7.216   4.912 126.974  0.00  0.00    +0.000 OA
ATOM      5  H   UNL     1      -8.000   5.484 127.137  0.00  0.00    +0.000 HD
ENDBRANCH   2   4
BRANCH   2   6
ATOM      6  O   UNL     1      -8.864   5.032 125.490  0.00  0.00    +0.000 OA
ATOM      7  H   UNL     1      -9.714   4.668 125.817  0.00  0.00    +0.000 HD
ENDBRANCH   2   6
ENDBRANCH   1   2
BRANCH   1   8
ATOM      8  P   UNL     1      -9.070   1.391 124.845  0.00  0.00    +0.000 P 
ATOM      9  O   UNL     1      -9.822   0.144 125.369  0.00  0.00    +0.000 OA
BRANCH   8  10
ATOM     10  O   UNL     1      -9.010   2.067 126.358  0.00  0.00    +0.000 OA
ATOM     11  H   UNL     1      -9.260   1.433 127.064  0.00  0.00    +0.000 HD
ENDBRANCH   8  10
BRANCH   8  12
ATOM     12  O   UNL     1     -10.475   2.082 124.315  0.00  0.00    +0.000 OA
ATOM     13  H   UNL     1     -11.222   1.657 124.803  0.00  0.00    +0.000 HD
ENDBRANCH   8  12
ENDBRANCH   1   8
BRANCH   1  14
ATOM     14  S   UNL     1      -6.726   2.338 123.160  0.00  0.00    +0.000 S 
BRANCH  14  15
ATOM     15  C   UNL     1      -6.665   3.400 121.748  0.00  0.00    +0.000 A 
ATOM     16  C   UNL     1      -7.705   3.569 120.828  0.00  0.00    +0.000 A 
ATOM     17  C   UNL     1      -7.488   4.329 119.675  0.00  0.00    +0.000 A 
ATOM     18  C   UNL     1      -6.252   4.913 119.434  0.00  0.00    +0.000 A 
ATOM     19 CL   UNL     1      -5.975   5.762 117.966  0.00  0.00    +0.000 Cl
ATOM     20  C   UNL     1      -5.222   4.795 120.367  0.00  0.00    +0.000 A 
ATOM     21  C   UNL     1      -5.443   4.046 121.522  0.00  0.00    +0.000 A 
ENDBRANCH  14  15
ENDBRANCH   1  14
TORSDOF 8
ENDMDL
MODEL 6
REMARK VINA RESULT:      -6.0      9.362     11.049
REMARK  Name = Tiludronic acid
REMARK  8 active torsions:
REMARK  status: ('A' for Active; 'I' for Inactive)
REMARK    1  A    between atoms: O_1  and  P_2
REMARK    2  A    between atoms: P_2  and  O_3
REMARK    3  A    between atoms: P_2  and  C_5
REMARK    4  A    between atoms: C_5  and  S_6
REMARK    5  A    between atoms: C_5  and  P_14
REMARK    6  A    between atoms: S_6  and  C_7
REMARK    7  A    between atoms: P_14  and  O_15
REMARK    8  A    between atoms: P_14  and  O_16
REMARK                            x       y       z     vdW  Elec       q    Type
REMARK                         _______ _______ _______ _____ _____    ______ ____
ROOT
ATOM      1  C   UNL     1      -9.724   4.548 131.395  0.00  0.00    +0.000 C 
ENDROOT
BRANCH   1   2
ATOM      2  P   UNL     1      -9.025   5.049 133.010  0.00  0.00    +0.000 P 
ATOM      3  O   UNL     1      -9.740   6.398 133.052  0.00  0.00    +0.000 OA
BRANCH   2   4
ATOM      4  O   UNL     1      -8.365   5.522 134.538  0.00  0.00    +0.000 OA
ATOM      5  H   UNL     1      -7.906   4.716 134.864  0.00  0.00    +0.000 HD
ENDBRANCH   2   4
BRANCH   2   6
ATOM      6  O   UNL     1      -9.899   4.033 133.938  0.00  0.00    +0.000 OA
ATOM      7  H   UNL     1      -9.878   4.328 134.873  0.00  0.00    +0.000 HD
ENDBRANCH   2   6
ENDBRANCH   1   2
BRANCH   1   8
ATOM      8  P   UNL     1      -9.228   2.826 131.024  0.00  0.00    +0.000 P 
ATOM      9  O   UNL     1      -8.809   1.369 130.710  0.00  0.00    +0.000 OA
BRANCH   8  10
ATOM     10  O   UNL     1     -10.659   2.334 131.701  0.00  0.00    +0.000 OA
ATOM     11  H   UNL     1     -11.430   2.838 131.360  0.00  0.00    +0.000 HD
ENDBRANCH   8  10
BRANCH   8  12
ATOM     12  O   UNL     1      -9.751   3.065 129.474  0.00  0.00    +0.000 OA
ATOM     13  H   UNL     1      -8.953   3.123 128.893  0.00  0.00    +0.000 HD
ENDBRANCH   8  12
ENDBRANCH   1   8
BRANCH   1  14
ATOM     14  S   UNL     1      -9.208   5.682 129.991  0.00  0.00    +0.000 S 
BRANCH  14  15
ATOM     15  C   UNL     1     -10.497   6.865 129.736  0.00  0.00    +0.000 A 
ATOM     16  C   UNL     1     -11.741   6.843 130.374  0.00  0.00    +0.000 A 
ATOM     17  C   UNL     1     -12.731   7.751 129.987  0.00  0.00    +0.000 A 
ATOM     18  C   UNL     1     -12.490   8.671 128.975  0.00  0.00    +0.000 A 
ATOM     19 CL   UNL     1     -13.749   9.715 128.447  0.00  0.00    +0.000 Cl
ATOM     20  C   UNL     1     -11.238   8.738 128.366  0.00  0.00    +0.000 A 
ATOM     21  C   UNL     1     -10.248   7.838 128.761  0.00  0.00    +0.000 A 
ENDBRANCH  14  15
ENDBRANCH   1  14
TORSDOF 8
ENDMDL
MODEL 7
REMARK VINA RESULT:      -5.9      2.517      3.860
REMARK  Name = Tiludronic acid
REMARK  8 active torsions:
REMARK  status: ('A' for Active; 'I' for Inactive)
REMARK    1  A    between atoms: O_1  and  P_2
REMARK    2  A    between atoms: P_2  and  O_3
REMARK    3  A    between atoms: P_2  and  C_5
REMARK    4  A    between atoms: C_5  and  S_6
REMARK    5  A    between atoms: C_5  and  P_14
REMARK    6  A    between atoms: S_6  and  C_7
REMARK    7  A    between atoms: P_14  and  O_15
REMARK    8  A    between atoms: P_14  and  O_16
REMARK                            x       y       z     vdW  Elec       q    Type
REMARK                         _______ _______ _______ _____ _____    ______ ____
ROOT
ATOM      1  C   UNL     1      -8.258   1.342 123.953  0.00  0.00    +0.000 C 
ENDROOT
BRANCH   1   2
ATOM      2  P   UNL     1     -10.087   1.328 123.933  0.00  0.00    +0.000 P 
ATOM      3  O   UNL     1     -10.201   0.219 122.888  0.00  0.00    +0.000 OA
BRANCH   2   4
ATOM      4  O   UNL     1     -11.817   1.315 123.914  0.00  0.00    +0.000 OA
ATOM      5  H   UNL     1     -12.063   0.718 124.656  0.00  0.00    +0.000 HD
ENDBRANCH   2   4
BRANCH   2   6
ATOM      6  O   UNL     1     -10.305   0.622 125.385  0.00  0.00    +0.000 OA
ATOM      7  H   UNL     1     -11.176   0.171 125.413  0.00  0.00    +0.000 HD
ENDBRANCH   2   6
ENDBRANCH   1   2
BRANCH   1   8
ATOM      8  P   UNL     1      -7.645   2.668 122.849  0.00  0.00    +0.000 P 
ATOM      9  O   UNL     1      -7.127   3.789 121.916  0.00  0.00    +0.000 OA
BRANCH   8  10
ATOM     10  O   UNL     1      -9.076   2.553 122.020  0.00  0.00    +0.000 OA
ATOM     11  H   UNL     1      -8.958   2.647 121.050  0.00  0.00    +0.000 HD
ENDBRANCH   8  10
BRANCH   8  12
ATOM     12  O   UNL     1      -8.106   3.764 123.997  0.00  0.00    +0.000 OA
ATOM     13  H   UNL     1      -7.417   4.472 124.031  0.00  0.00    +0.000 HD
ENDBRANCH   8  12
ENDBRANCH   1   8
BRANCH   1  14
ATOM     14  S   UNL     1      -7.508  -0.306 123.456  0.00  0.00    +0.000 S 
BRANCH  14  15
ATOM     15  C   UNL     1      -7.869  -1.481 124.726  0.00  0.00    +0.000 A 
ATOM     16  C   UNL     1      -8.708  -2.590 124.575  0.00  0.00    +0.000 A 
ATOM     17  C   UNL     1      -9.027  -3.370 125.691  0.00  0.00    +0.000 A 
ATOM     18  C   UNL     1      -8.521  -3.052 126.944  0.00  0.00    +0.000 A 
ATOM     19 CL   UNL     1      -9.000  -3.964 128.320  0.00  0.00    +0.000 Cl
ATOM     20  C   UNL     1      -7.643  -1.980 127.099  0.00  0.00    +0.000 A 
ATOM     21  C   UNL     1      -7.317  -1.209 125.984  0.00  0.00    +0.000 A 
ENDBRANCH  14  15
ENDBRANCH   1  14
TORSDOF 8
ENDMDL
MODEL 8
REMARK VINA RESULT:      -5.8      5.054      6.245
REMARK  Name = Tiludronic acid
REMARK  8 active torsions:
REMARK  status: ('A' for Active; 'I' for Inactive)
REMARK    1  A    between atoms: O_1  and  P_2
REMARK    2  A    between atoms: P_2  and  O_3
REMARK    3  A    between atoms: P_2  and  C_5
REMARK    4  A    between atoms: C_5  and  S_6
REMARK    5  A    between atoms: C_5  and  P_14
REMARK    6  A    between atoms: S_6  and  C_7
REMARK    7  A    between atoms: P_14  and  O_15
REMARK    8  A    between atoms: P_14  and  O_16
REMARK                            x       y       z     vdW  Elec       q    Type
REMARK                         _______ _______ _______ _____ _____    ______ ____
ROOT
ATOM      1  C   UNL     1      -6.604   3.312 125.087  0.00  0.00    +0.000 C 
ENDROOT
BRANCH   1   2
ATOM      2  P   UNL     1      -5.783   2.150 126.238  0.00  0.00    +0.000 P 
ATOM      3  O   UNL     1      -5.917   0.937 125.319  0.00  0.00    +0.000 OA
BRANCH   2   4
ATOM      4  O   UNL     1      -5.007   1.052 127.326  0.00  0.00    +0.000 OA
ATOM      5  H   UNL     1      -5.740   0.706 127.884  0.00  0.00    +0.000 HD
ENDBRANCH   2   4
BRANCH   2   6
ATOM      6  O   UNL     1      -4.265   2.710 126.049  0.00  0.00    +0.000 OA
ATOM      7  H   UNL     1      -3.630   2.133 126.526  0.00  0.00    +0.000 HD
ENDBRANCH   2   6
ENDBRANCH   1   2
BRANCH   1   8
ATOM      8  P   UNL     1      -7.701   4.433 126.031  0.00  0.00    +0.000 P 
ATOM      9  O   UNL     1      -8.629   5.380 126.829  0.00  0.00    +0.000 OA
BRANCH   8  10
ATOM     10  O   UNL     1      -7.147   5.674 125.081  0.00  0.00    +0.000 OA
ATOM     11  H   UNL     1      -6.170   5.669 124.987  0.00  0.00    +0.000 HD
ENDBRANCH   8  10
BRANCH   8  12
ATOM     12  O   UNL     1      -8.953   3.925 125.078  0.00  0.00    +0.000 OA
ATOM     13  H   UNL     1      -9.758   4.435 125.341  0.00  0.00    +0.000 HD
ENDBRANCH   8  12
ENDBRANCH   1   8
BRANCH   1  14
ATOM     14  S   UNL     1      -7.579   2.442 123.740  0.00  0.00    +0.000 S 
BRANCH  14  15
ATOM     15  C   UNL     1      -7.103   3.130 122.182  0.00  0.00    +0.000 A 
ATOM     16  C   UNL     1      -5.795   3.470 121.824  0.00  0.00    +0.000 A 
ATOM     17  C   UNL     1      -5.561   4.136 120.618  0.00  0.00    +0.000 A 
ATOM     18  C   UNL     1      -6.614   4.464 119.775  0.00  0.00    +0.000 A 
ATOM     19 CL   UNL     1      -6.320   5.366 118.342  0.00  0.00    +0.000 Cl
ATOM     20  C   UNL     1      -7.918   4.085 120.095  0.00  0.00    +0.000 A 
ATOM     21  C   UNL     1      -8.148   3.412 121.295  0.00  0.00    +0.000 A 
ENDBRANCH  14  15
ENDBRANCH   1  14
TORSDOF 8
ENDMDL
MODEL 9
REMARK VINA RESULT:      -5.8      9.428     11.399
REMARK  Name = Tiludronic acid
REMARK  8 active torsions:
REMARK  status: ('A' for Active; 'I' for Inactive)
REMARK    1  A    between atoms: O_1  and  P_2
REMARK    2  A    between atoms: P_2  and  O_3
REMARK    3  A    between atoms: P_2  and  C_5
REMARK    4  A    between atoms: C_5  and  S_6
REMARK    5  A    between atoms: C_5  and  P_14
REMARK    6  A    between atoms: S_6  and  C_7
REMARK    7  A    between atoms: P_14  and  O_15
REMARK    8  A    between atoms: P_14  and  O_16
REMARK                            x       y       z     vdW  Elec       q    Type
REMARK                         _______ _______ _______ _____ _____    ______ ____
ROOT
ATOM      1  C   UNL     1      -9.475   5.517 130.682  0.00  0.00    +0.000 C 
ENDROOT
BRANCH   1   2
ATOM      2  P   UNL     1      -8.499   4.572 129.456  0.00  0.00    +0.000 P 
ATOM      3  O   UNL     1      -9.410   3.347 129.476  0.00  0.00    +0.000 OA
BRANCH   2   4
ATOM      4  O   UNL     1      -7.577   3.680 128.296  0.00  0.00    +0.000 OA
ATOM      5  H   UNL     1      -7.055   3.046 128.838  0.00  0.00    +0.000 HD
ENDBRANCH   2   4
BRANCH   2   6
ATOM      6  O   UNL     1      -8.920   5.441 128.143  0.00  0.00    +0.000 OA
ATOM      7  H   UNL     1      -8.426   6.289 128.127  0.00  0.00    +0.000 HD
ENDBRANCH   2   6
ENDBRANCH   1   2
BRANCH   1   8
ATOM      8  P   UNL     1      -8.974   5.023 132.372  0.00  0.00    +0.000 P 
ATOM      9  O   UNL     1      -8.550   4.605 133.800  0.00  0.00    +0.000 OA
BRANCH   8  10
ATOM     10  O   UNL     1      -9.952   6.231 132.949  0.00  0.00    +0.000 OA
ATOM     11  H   UNL     1      -9.444   7.013 133.253  0.00  0.00    +0.000 HD
ENDBRANCH   8  10
BRANCH   8  12
ATOM     12  O   UNL     1     -10.093   3.808 132.292  0.00  0.00    +0.000 OA
ATOM     13  H   UNL     1     -10.926   4.190 131.920  0.00  0.00    +0.000 HD
ENDBRANCH   8  12
ENDBRANCH   1   8
BRANCH   1  14
ATOM     14  S   UNL     1     -11.327   5.297 130.471  0.00  0.00    +0.000 S 
BRANCH  14  15
ATOM     15  C   UNL     1     -12.030   6.874 130.093  0.00  0.00    +0.000 A 
ATOM     16  C   UNL     1     -11.912   7.529 128.863  0.00  0.00    +0.000 A 
ATOM     17  C   UNL     1     -12.392   8.835 128.728  0.00  0.00    +0.000 A 
ATOM     18  C   UNL     1     -12.983   9.486 129.802  0.00  0.00    +0.000 A 
ATOM     19 CL   UNL     1     -13.482  11.123 129.646  0.00  0.00    +0.000 Cl
ATOM     20  C   UNL     1     -13.154   8.826 131.019  0.00  0.00    +0.000 A 
ATOM     21  C   UNL     1     -12.683   7.520 131.149  0.00  0.00    +0.000 A 
ENDBRANCH  14  15
ENDBRANCH   1  14
TORSDOF 8
ENDMDL
