MODEL 1
REMARK VINA RESULT:      -6.1      0.000      0.000
REMARK  Name = Timolol
REMARK  10 active torsions:
REMARK  status: ('A' for Active; 'I' for Inactive)
REMARK    1  A    between atoms: C_2  and  O_3
REMARK    2  A    between atoms: C_2  and  C_4
REMARK    3  A    between atoms: C_2  and  C_10
REMARK    4  A    between atoms: C_4  and  N_5
REMARK    5  A    between atoms: N_5  and  C_6
REMARK    6  A    between atoms: C_6  and  C_7
REMARK    7  A    between atoms: C_6  and  C_8
REMARK    8  A    between atoms: C_6  and  C_9
REMARK    9  A    between atoms: C_10  and  O_11
REMARK   10  A    between atoms: O_11  and  C_12
REMARK                            x       y       z     vdW  Elec       q    Type
REMARK                         _______ _______ _______ _____ _____    ______ ____
ROOT
ATOM      1  O   UNL     1      -8.471   6.166 130.178  0.00  0.00    +0.000 OA
ENDROOT
BRANCH   1   2
ATOM      2  C   UNL     1      -7.265   6.064 130.790  0.00  0.00    +0.000 A 
ATOM      3  N   UNL     1      -6.444   7.082 130.560  0.00  0.00    +0.000 NA
ATOM      4  S   UNL     1      -5.064   6.681 131.421  0.00  0.00    +0.000 S 
ATOM      5  N   UNL     1      -5.540   5.232 132.116  0.00  0.00    +0.000 NA
ATOM      6  C   UNL     1      -6.753   4.970 131.610  0.00  0.00    +0.000 A 
ATOM      7  N   UNL     1      -7.450   3.822 131.834  0.00  0.00    +0.000 N 
ATOM      8  C   UNL     1      -7.885   2.956 130.733  0.00  0.00    +0.000 C 
ATOM      9  C   UNL     1      -9.357   2.543 130.920  0.00  0.00    +0.000 C 
ATOM     10  O   UNL     1      -9.621   2.037 132.241  0.00  0.00    +0.000 OA
ATOM     11  C   UNL     1      -9.208   2.954 133.273  0.00  0.00    +0.000 C 
ATOM     12  C   UNL     1      -7.703   3.283 133.167  0.00  0.00    +0.000 C 
ENDBRANCH   1   2
BRANCH   1  13
ATOM     13  C   UNL     1      -9.444   6.830 130.981  0.00  0.00    +0.000 C 
BRANCH  13  14
ATOM     14  C   UNL     1     -10.588   5.865 131.317  0.00  0.00    +0.000 C 
BRANCH  14  15
ATOM     15  O   UNL     1     -10.914   5.938 132.710  0.00  0.00    +0.000 OA
ATOM     16  H   UNL     1     -10.874   5.041 133.081  0.00  0.00    +0.000 HD
ENDBRANCH  14  15
BRANCH  14  17
ATOM     17  C   UNL     1     -11.759   6.291 130.449  0.00  0.00    +0.000 C 
BRANCH  17  18
ATOM     18  N   UNL     1     -11.492   6.248 129.015  0.00  0.00    +0.000 NA
ATOM     19  H   UNL     1     -11.923   5.414 128.612  0.00  0.00    +0.000 HD
BRANCH  18  20
ATOM     20  C   UNL     1     -11.951   7.472 128.330  0.00  0.00    +0.000 C 
ATOM     21  C   UNL     1     -10.779   8.204 127.650  0.00  0.00    +0.000 C 
ATOM     22  C   UNL     1     -13.043   7.132 127.297  0.00  0.00    +0.000 C 
ATOM     23  C   UNL     1     -12.560   8.399 129.391  0.00  0.00    +0.000 C 
ENDBRANCH  18  20
ENDBRANCH  17  18
ENDBRANCH  14  17
ENDBRANCH  13  14
ENDBRANCH   1  13
TORSDOF 7
ENDMDL
MODEL 2
REMARK VINA RESULT:      -6.0      1.964      2.319
REMARK  Name = Timolol
REMARK  10 active torsions:
REMARK  status: ('A' for Active; 'I' for Inactive)
REMARK    1  A    between atoms: C_2  and  O_3
REMARK    2  A    between atoms: C_2  and  C_4
REMARK    3  A    between atoms: C_2  and  C_10
REMARK    4  A    between atoms: C_4  and  N_5
REMARK    5  A    between atoms: N_5  and  C_6
REMARK    6  A    between atoms: C_6  and  C_7
REMARK    7  A    between atoms: C_6  and  C_8
REMARK    8  A    between atoms: C_6  and  C_9
REMARK    9  A    between atoms: C_10  and  O_11
REMARK   10  A    between atoms: O_11  and  C_12
REMARK                            x       y       z     vdW  Elec       q    Type
REMARK                         _______ _______ _______ _____ _____    ______ ____
ROOT
ATOM      1  O   UNL     1      -9.809   4.862 129.623  0.00  0.00    +0.000 OA
ENDROOT
BRANCH   1   2
ATOM      2  C   UNL     1      -8.653   4.404 129.081  0.00  0.00    +0.000 A 
ATOM      3  N   UNL     1      -8.424   4.821 127.841  0.00  0.00    +0.000 NA
ATOM      4  S   UNL     1      -6.963   4.105 127.446  0.00  0.00    +0.000 S 
ATOM      5  N   UNL     1      -6.610   3.304 128.875  0.00  0.00    +0.000 NA
ATOM      6  C   UNL     1      -7.678   3.488 129.664  0.00  0.00    +0.000 A 
ATOM      7  N   UNL     1      -7.845   2.904 130.882  0.00  0.00    +0.000 N 
ATOM      8  C   UNL     1      -9.003   2.053 131.178  0.00  0.00    +0.000 C 
ATOM      9  C   UNL     1      -9.616   2.430 132.540  0.00  0.00    +0.000 C 
ATOM     10  O   UNL     1      -8.629   2.506 133.583  0.00  0.00    +0.000 OA
ATOM     11  C   UNL     1      -7.541   3.390 133.246  0.00  0.00    +0.000 C 
ATOM     12  C   UNL     1      -6.840   2.952 131.941  0.00  0.00    +0.000 C 
ENDBRANCH   1   2
BRANCH   1  13
ATOM     13  C   UNL     1      -9.600   5.891 130.586  0.00  0.00    +0.000 C 
BRANCH  13  14
ATOM     14  C   UNL     1     -10.764   5.914 131.585  0.00  0.00    +0.000 C 
BRANCH  14  15
ATOM     15  O   UNL     1     -10.324   6.402 132.858  0.00  0.00    +0.000 OA
ATOM     16  H   UNL     1      -9.411   6.720 132.765  0.00  0.00    +0.000 HD
ENDBRANCH  14  15
BRANCH  14  17
ATOM     17  C   UNL     1     -11.817   6.823 130.976  0.00  0.00    +0.000 C 
BRANCH  17  18
ATOM     18  N   UNL     1     -12.087   6.568 129.564  0.00  0.00    +0.000 NA
ATOM     19  H   UNL     1     -12.875   5.923 129.478  0.00  0.00    +0.000 HD
BRANCH  18  20
ATOM     20  C   UNL     1     -12.331   7.815 128.814  0.00  0.00    +0.000 C 
ATOM     21  C   UNL     1     -12.706   8.971 129.759  0.00  0.00    +0.000 C 
ATOM     22  C   UNL     1     -11.094   8.189 127.975  0.00  0.00    +0.000 C 
ATOM     23  C   UNL     1     -13.505   7.561 127.858  0.00  0.00    +0.000 C 
ENDBRANCH  18  20
ENDBRANCH  17  18
ENDBRANCH  14  17
ENDBRANCH  13  14
ENDBRANCH   1  13
TORSDOF 7
ENDMDL
MODEL 3
REMARK VINA RESULT:      -5.9      7.966      9.409
REMARK  Name = Timolol
REMARK  10 active torsions:
REMARK  status: ('A' for Active; 'I' for Inactive)
REMARK    1  A    between atoms: C_2  and  O_3
REMARK    2  A    between atoms: C_2  and  C_4
REMARK    3  A    between atoms: C_2  and  C_10
REMARK    4  A    between atoms: C_4  and  N_5
REMARK    5  A    between atoms: N_5  and  C_6
REMARK    6  A    between atoms: C_6  and  C_7
REMARK    7  A    between atoms: C_6  and  C_8
REMARK    8  A    between atoms: C_6  and  C_9
REMARK    9  A    between atoms: C_10  and  O_11
REMARK   10  A    between atoms: O_11  and  C_12
REMARK                            x       y       z     vdW  Elec       q    Type
REMARK                         _______ _______ _______ _____ _____    ______ ____
ROOT
ATOM      1  O   UNL     1      -7.440   1.860 122.663  0.00  0.00    +0.000 OA
ENDROOT
BRANCH   1   2
ATOM      2  C   UNL     1      -6.590   2.881 122.388  0.00  0.00    +0.000 A 
ATOM      3  N   UNL     1      -6.242   2.978 121.110  0.00  0.00    +0.000 NA
ATOM      4  S   UNL     1      -5.209   4.295 121.079  0.00  0.00    +0.000 S 
ATOM      5  N   UNL     1      -5.247   4.761 122.688  0.00  0.00    +0.000 NA
ATOM      6  C   UNL     1      -5.986   3.834 123.314  0.00  0.00    +0.000 A 
ATOM      7  N   UNL     1      -6.174   3.779 124.661  0.00  0.00    +0.000 N 
ATOM      8  C   UNL     1      -5.803   2.597 125.445  0.00  0.00    +0.000 C 
ATOM      9  C   UNL     1      -6.936   2.215 126.416  0.00  0.00    +0.000 C 
ATOM     10  O   UNL     1      -7.401   3.339 127.184  0.00  0.00    +0.000 OA
ATOM     11  C   UNL     1      -7.789   4.450 126.352  0.00  0.00    +0.000 C 
ATOM     12  C   UNL     1      -6.621   4.920 125.457  0.00  0.00    +0.000 C 
ENDBRANCH   1   2
BRANCH   1  13
ATOM     13  C   UNL     1      -8.793   2.286 122.792  0.00  0.00    +0.000 C 
BRANCH  13  14
ATOM     14  C   UNL     1      -9.655   1.127 123.311  0.00  0.00    +0.000 C 
BRANCH  14  15
ATOM     15  O   UNL     1     -10.442   0.572 122.250  0.00  0.00    +0.000 OA
ATOM     16  H   UNL     1     -10.778  -0.293 122.538  0.00  0.00    +0.000 HD
ENDBRANCH  14  15
BRANCH  14  17
ATOM     17  C   UNL     1      -8.683   0.105 123.874  0.00  0.00    +0.000 C 
BRANCH  17  18
ATOM     18  N   UNL     1      -9.313  -1.114 124.368  0.00  0.00    +0.000 NA
ATOM     19  H   UNL     1     -10.294  -1.134 124.081  0.00  0.00    +0.000 HD
BRANCH  18  20
ATOM     20  C   UNL     1      -8.600  -2.326 123.919  0.00  0.00    +0.000 C 
ATOM     21  C   UNL     1      -7.755  -2.930 125.055  0.00  0.00    +0.000 C 
ATOM     22  C   UNL     1      -9.599  -3.369 123.381  0.00  0.00    +0.000 C 
ATOM     23  C   UNL     1      -7.663  -1.917 122.774  0.00  0.00    +0.000 C 
ENDBRANCH  18  20
ENDBRANCH  17  18
ENDBRANCH  14  17
ENDBRANCH  13  14
ENDBRANCH   1  13
TORSDOF 7
ENDMDL
MODEL 4
REMARK VINA RESULT:      -5.8      2.329      3.046
REMARK  Name = Timolol
REMARK  10 active torsions:
REMARK  status: ('A' for Active; 'I' for Inactive)
REMARK    1  A    between atoms: C_2  and  O_3
REMARK    2  A    between atoms: C_2  and  C_4
REMARK    3  A    between atoms: C_2  and  C_10
REMARK    4  A    between atoms: C_4  and  N_5
REMARK    5  A    between atoms: N_5  and  C_6
REMARK    6  A    between atoms: C_6  and  C_7
REMARK    7  A    between atoms: C_6  and  C_8
REMARK    8  A    between atoms: C_6  and  C_9
REMARK    9  A    between atoms: C_10  and  O_11
REMARK   10  A    between atoms: O_11  and  C_12
REMARK                            x       y       z     vdW  Elec       q    Type
REMARK                         _______ _______ _______ _____ _____    ______ ____
ROOT
ATOM      1  O   UNL     1     -10.051   3.651 129.963  0.00  0.00    +0.000 OA
ENDROOT
BRANCH   1   2
ATOM      2  C   UNL     1      -9.020   2.820 129.671  0.00  0.00    +0.000 A 
ATOM      3  N   UNL     1      -9.033   2.340 128.433  0.00  0.00    +0.000 NA
ATOM      4  S   UNL     1      -7.673   1.365 128.371  0.00  0.00    +0.000 S 
ATOM      5  N   UNL     1      -7.052   1.596 129.911  0.00  0.00    +0.000 NA
ATOM      6  C   UNL     1      -7.949   2.360 130.550  0.00  0.00    +0.000 A 
ATOM      7  N   UNL     1      -7.879   2.689 131.869  0.00  0.00    +0.000 N 
ATOM      8  C   UNL     1      -8.957   2.357 132.806  0.00  0.00    +0.000 C 
ATOM      9  C   UNL     1      -9.299   3.571 133.689  0.00  0.00    +0.000 C 
ATOM     10  O   UNL     1      -8.130   4.163 134.284  0.00  0.00    +0.000 OA
ATOM     11  C   UNL     1      -7.129   4.503 133.305  0.00  0.00    +0.000 C 
ATOM     12  C   UNL     1      -6.690   3.266 132.491  0.00  0.00    +0.000 C 
ENDBRANCH   1   2
BRANCH   1  13
ATOM     13  C   UNL     1      -9.682   5.026 129.924  0.00  0.00    +0.000 C 
BRANCH  13  14
ATOM     14  C   UNL     1     -10.319   5.769 131.106  0.00  0.00    +0.000 C 
BRANCH  14  15
ATOM     15  O   UNL     1      -9.460   6.820 131.561  0.00  0.00    +0.000 OA
ATOM     16  H   UNL     1      -9.688   7.633 131.081  0.00  0.00    +0.000 HD
ENDBRANCH  14  15
BRANCH  14  17
ATOM     17  C   UNL     1     -11.639   6.316 130.590  0.00  0.00    +0.000 C 
BRANCH  17  18
ATOM     18  N   UNL     1     -11.817   6.194 129.146  0.00  0.00    +0.000 NA
ATOM     19  H   UNL     1     -12.568   5.530 128.949  0.00  0.00    +0.000 HD
BRANCH  18  20
ATOM     20  C   UNL     1     -12.073   7.500 128.509  0.00  0.00    +0.000 C 
ATOM     21  C   UNL     1     -12.681   8.500 129.509  0.00  0.00    +0.000 C 
ATOM     22  C   UNL     1     -10.774   8.068 127.905  0.00  0.00    +0.000 C 
ATOM     23  C   UNL     1     -13.077   7.273 127.370  0.00  0.00    +0.000 C 
ENDBRANCH  18  20
ENDBRANCH  17  18
ENDBRANCH  14  17
ENDBRANCH  13  14
ENDBRANCH   1  13
TORSDOF 7
ENDMDL
MODEL 5
REMARK VINA RESULT:      -5.7      7.832     10.074
REMARK  Name = Timolol
REMARK  10 active torsions:
REMARK  status: ('A' for Active; 'I' for Inactive)
REMARK    1  A    between atoms: C_2  and  O_3
REMARK    2  A    between atoms: C_2  and  C_4
REMARK    3  A    between atoms: C_2  and  C_10
REMARK    4  A    between atoms: C_4  and  N_5
REMARK    5  A    between atoms: N_5  and  C_6
REMARK    6  A    between atoms: C_6  and  C_7
REMARK    7  A    between atoms: C_6  and  C_8
REMARK    8  A    between atoms: C_6  and  C_9
REMARK    9  A    between atoms: C_10  and  O_11
REMARK   10  A    between atoms: O_11  and  C_12
REMARK                            x       y       z     vdW  Elec       q    Type
REMARK                         _______ _______ _______ _____ _____    ______ ____
ROOT
ATOM      1  O   UNL     1      -8.212  -0.408 125.277  0.00  0.00    +0.000 OA
ENDROOT
BRANCH   1   2
ATOM      2  C   UNL     1      -8.788   0.322 124.289  0.00  0.00    +0.000 A 
ATOM      3  N   UNL     1      -9.579  -0.375 123.481  0.00  0.00    +0.000 NA
ATOM      4  S   UNL     1     -10.131   0.765 122.386  0.00  0.00    +0.000 S 
ATOM      5  N   UNL     1      -9.391   2.148 122.976  0.00  0.00    +0.000 NA
ATOM      6  C   UNL     1      -8.609   1.737 123.983  0.00  0.00    +0.000 A 
ATOM      7  N   UNL     1      -7.745   2.539 124.665  0.00  0.00    +0.000 N 
ATOM      8  C   UNL     1      -6.310   2.246 124.733  0.00  0.00    +0.000 C 
ATOM      9  C   UNL     1      -5.798   2.389 126.179  0.00  0.00    +0.000 C 
ATOM     10  O   UNL     1      -6.200   3.631 126.783  0.00  0.00    +0.000 OA
ATOM     11  C   UNL     1      -7.625   3.837 126.719  0.00  0.00    +0.000 C 
ATOM     12  C   UNL     1      -8.134   3.815 125.260  0.00  0.00    +0.000 C 
ENDBRANCH   1   2
BRANCH   1  13
ATOM     13  C   UNL     1      -9.165  -1.053 126.117  0.00  0.00    +0.000 C 
BRANCH  13  14
ATOM     14  C   UNL     1      -9.020  -2.575 125.993  0.00  0.00    +0.000 C 
BRANCH  14  15
ATOM     15  O   UNL     1      -9.828  -3.071 124.919  0.00  0.00    +0.000 OA
ATOM     16  H   UNL     1      -9.437  -3.902 124.600  0.00  0.00    +0.000 HD
ENDBRANCH  14  15
BRANCH  14  17
ATOM     17  C   UNL     1      -7.545  -2.834 125.744  0.00  0.00    +0.000 C 
BRANCH  17  18
ATOM     18  N   UNL     1      -7.236  -3.302 124.397  0.00  0.00    +0.000 NA
ATOM     19  H   UNL     1      -8.005  -3.064 123.767  0.00  0.00    +0.000 HD
BRANCH  18  20
ATOM     20  C   UNL     1      -5.953  -2.764 123.904  0.00  0.00    +0.000 C 
ATOM     21  C   UNL     1      -4.922  -3.886 123.688  0.00  0.00    +0.000 C 
ATOM     22  C   UNL     1      -6.168  -1.975 122.598  0.00  0.00    +0.000 C 
ATOM     23  C   UNL     1      -5.414  -1.799 124.969  0.00  0.00    +0.000 C 
ENDBRANCH  18  20
ENDBRANCH  17  18
ENDBRANCH  14  17
ENDBRANCH  13  14
ENDBRANCH   1  13
TORSDOF 7
ENDMDL
MODEL 6
REMARK VINA RESULT:      -5.6      3.550      4.723
REMARK  Name = Timolol
REMARK  10 active torsions:
REMARK  status: ('A' for Active; 'I' for Inactive)
REMARK    1  A    between atoms: C_2  and  O_3
REMARK    2  A    between atoms: C_2  and  C_4
REMARK    3  A    between atoms: C_2  and  C_10
REMARK    4  A    between atoms: C_4  and  N_5
REMARK    5  A    between atoms: N_5  and  C_6
REMARK    6  A    between atoms: C_6  and  C_7
REMARK    7  A    between atoms: C_6  and  C_8
REMARK    8  A    between atoms: C_6  and  C_9
REMARK    9  A    between atoms: C_10  and  O_11
REMARK   10  A    between atoms: O_11  and  C_12
REMARK                            x       y       z     vdW  Elec       q    Type
REMARK                         _______ _______ _______ _____ _____    ______ ____
ROOT
ATOM      1  O   UNL     1      -9.498   3.884 129.113  0.00  0.00    +0.000 OA
ENDROOT
BRANCH   1   2
ATOM      2  C   UNL     1      -8.855   2.695 129.221  0.00  0.00    +0.000 A 
ATOM      3  N   UNL     1      -8.892   2.157 130.435  0.00  0.00    +0.000 NA
ATOM      4  S   UNL     1      -8.030   0.732 130.264  0.00  0.00    +0.000 S 
ATOM      5  N   UNL     1      -7.652   0.789 128.632  0.00  0.00    +0.000 NA
ATOM      6  C   UNL     1      -8.100   1.975 128.200  0.00  0.00    +0.000 A 
ATOM      7  N   UNL     1      -7.893   2.467 126.947  0.00  0.00    +0.000 N 
ATOM      8  C   UNL     1      -7.213   3.747 126.722  0.00  0.00    +0.000 C 
ATOM      9  C   UNL     1      -7.987   4.596 125.697  0.00  0.00    +0.000 C 
ATOM     10  O   UNL     1      -8.313   3.857 124.506  0.00  0.00    +0.000 OA
ATOM     11  C   UNL     1      -9.015   2.633 124.795  0.00  0.00    +0.000 C 
ATOM     12  C   UNL     1      -8.194   1.717 125.730  0.00  0.00    +0.000 C 
ENDBRANCH   1   2
BRANCH   1  13
ATOM     13  C   UNL     1     -10.058   4.324 130.347  0.00  0.00    +0.000 C 
BRANCH  13  14
ATOM     14  C   UNL     1      -9.782   5.821 130.539  0.00  0.00    +0.000 C 
BRANCH  14  15
ATOM     15  O   UNL     1      -8.746   6.259 129.652  0.00  0.00    +0.000 OA
ATOM     16  H   UNL     1      -8.160   5.506 129.469  0.00  0.00    +0.000 HD
ENDBRANCH  14  15
BRANCH  14  17
ATOM     17  C   UNL     1     -11.096   6.526 130.249  0.00  0.00    +0.000 C 
BRANCH  17  18
ATOM     18  N   UNL     1     -11.608   6.312 128.900  0.00  0.00    +0.000 NA
ATOM     19  H   UNL     1     -12.388   5.651 128.930  0.00  0.00    +0.000 HD
BRANCH  18  20
ATOM     20  C   UNL     1     -12.004   7.577 128.251  0.00  0.00    +0.000 C 
ATOM     21  C   UNL     1     -12.265   8.681 129.292  0.00  0.00    +0.000 C 
ATOM     22  C   UNL     1     -10.923   8.029 127.251  0.00  0.00    +0.000 C 
ATOM     23  C   UNL     1     -13.302   7.316 127.475  0.00  0.00    +0.000 C 
ENDBRANCH  18  20
ENDBRANCH  17  18
ENDBRANCH  14  17
ENDBRANCH  13  14
ENDBRANCH   1  13
TORSDOF 7
ENDMDL
MODEL 7
REMARK VINA RESULT:      -5.6      7.803     10.112
REMARK  Name = Timolol
REMARK  10 active torsions:
REMARK  status: ('A' for Active; 'I' for Inactive)
REMARK    1  A    between atoms: C_2  and  O_3
REMARK    2  A    between atoms: C_2  and  C_4
REMARK    3  A    between atoms: C_2  and  C_10
REMARK    4  A    between atoms: C_4  and  N_5
REMARK    5  A    between atoms: N_5  and  C_6
REMARK    6  A    between atoms: C_6  and  C_7
REMARK    7  A    between atoms: C_6  and  C_8
REMARK    8  A    between atoms: C_6  and  C_9
REMARK    9  A    between atoms: C_10  and  O_11
REMARK   10  A    between atoms: O_11  and  C_12
REMARK                            x       y       z     vdW  Elec       q    Type
REMARK                         _______ _______ _______ _____ _____    ______ ____
ROOT
ATOM      1  O   UNL     1      -8.249  -0.820 125.494  0.00  0.00    +0.000 OA
ENDROOT
BRANCH   1   2
ATOM      2  C   UNL     1      -8.182   0.209 126.375  0.00  0.00    +0.000 A 
ATOM      3  N   UNL     1      -7.907  -0.153 127.623  0.00  0.00    +0.000 NA
ATOM      4  S   UNL     1      -7.895   1.296 128.462  0.00  0.00    +0.000 S 
ATOM      5  N   UNL     1      -8.198   2.380 127.220  0.00  0.00    +0.000 NA
ATOM      6  C   UNL     1      -8.420   1.628 126.133  0.00  0.00    +0.000 A 
ATOM      7  N   UNL     1      -8.815   2.118 124.925  0.00  0.00    +0.000 N 
ATOM      8  C   UNL     1     -10.054   1.674 124.280  0.00  0.00    +0.000 C 
ATOM      9  C   UNL     1      -9.805   1.357 122.793  0.00  0.00    +0.000 C 
ATOM     10  O   UNL     1      -9.107   2.417 122.116  0.00  0.00    +0.000 OA
ATOM     11  C   UNL     1      -7.879   2.776 122.779  0.00  0.00    +0.000 C 
ATOM     12  C   UNL     1      -8.131   3.211 124.239  0.00  0.00    +0.000 C 
ENDBRANCH   1   2
BRANCH   1  13
ATOM     13  C   UNL     1      -9.496  -1.507 125.539  0.00  0.00    +0.000 C 
BRANCH  13  14
ATOM     14  C   UNL     1      -9.269  -3.012 125.349  0.00  0.00    +0.000 C 
BRANCH  14  15
ATOM     15  O   UNL     1      -9.765  -3.438 124.074  0.00  0.00    +0.000 OA
ATOM     16  H   UNL     1     -10.696  -3.169 124.002  0.00  0.00    +0.000 HD
ENDBRANCH  14  15
BRANCH  14  17
ATOM     17  C   UNL     1      -7.768  -3.223 125.458  0.00  0.00    +0.000 C 
BRANCH  17  18
ATOM     18  N   UNL     1      -7.139  -3.713 124.236  0.00  0.00    +0.000 NA
ATOM     19  H   UNL     1      -7.751  -3.528 123.438  0.00  0.00    +0.000 HD
BRANCH  18  20
ATOM     20  C   UNL     1      -5.800  -3.129 124.032  0.00  0.00    +0.000 C 
ATOM     21  C   UNL     1      -4.741  -4.225 123.808  0.00  0.00    +0.000 C 
ATOM     22  C   UNL     1      -5.817  -2.149 122.843  0.00  0.00    +0.000 C 
ATOM     23  C   UNL     1      -5.435  -2.345 125.300  0.00  0.00    +0.000 C 
ENDBRANCH  18  20
ENDBRANCH  17  18
ENDBRANCH  14  17
ENDBRANCH  13  14
ENDBRANCH   1  13
TORSDOF 7
ENDMDL
MODEL 8
REMARK VINA RESULT:      -5.4      2.850      6.139
REMARK  Name = Timolol
REMARK  10 active torsions:
REMARK  status: ('A' for Active; 'I' for Inactive)
REMARK    1  A    between atoms: C_2  and  O_3
REMARK    2  A    between atoms: C_2  and  C_4
REMARK    3  A    between atoms: C_2  and  C_10
REMARK    4  A    between atoms: C_4  and  N_5
REMARK    5  A    between atoms: N_5  and  C_6
REMARK    6  A    between atoms: C_6  and  C_7
REMARK    7  A    between atoms: C_6  and  C_8
REMARK    8  A    between atoms: C_6  and  C_9
REMARK    9  A    between atoms: C_10  and  O_11
REMARK   10  A    between atoms: O_11  and  C_12
REMARK                            x       y       z     vdW  Elec       q    Type
REMARK                         _______ _______ _______ _____ _____    ______ ____
ROOT
ATOM      1  O   UNL     1      -8.423   6.104 130.647  0.00  0.00    +0.000 OA
ENDROOT
BRANCH   1   2
ATOM      2  C   UNL     1      -9.330   5.098 130.575  0.00  0.00    +0.000 A 
ATOM      3  N   UNL     1      -8.895   3.932 131.040  0.00  0.00    +0.000 NA
ATOM      4  S   UNL     1     -10.201   2.906 130.820  0.00  0.00    +0.000 S 
ATOM      5  N   UNL     1     -11.326   3.967 130.173  0.00  0.00    +0.000 NA
ATOM      6  C   UNL     1     -10.677   5.128 130.014  0.00  0.00    +0.000 A 
ATOM      7  N   UNL     1     -11.203   6.228 129.409  0.00  0.00    +0.000 N 
ATOM      8  C   UNL     1     -10.570   6.843 128.239  0.00  0.00    +0.000 C 
ATOM      9  C   UNL     1     -10.495   8.372 128.406  0.00  0.00    +0.000 C 
ATOM     10  O   UNL     1     -11.757   8.945 128.791  0.00  0.00    +0.000 OA
ATOM     11  C   UNL     1     -12.303   8.324 129.972  0.00  0.00    +0.000 C 
ATOM     12  C   UNL     1     -12.496   6.804 129.773  0.00  0.00    +0.000 C 
ENDBRANCH   1   2
BRANCH   1  13
ATOM     13  C   UNL     1      -7.991   6.365 131.979  0.00  0.00    +0.000 C 
BRANCH  13  14
ATOM     14  C   UNL     1      -6.502   6.025 132.119  0.00  0.00    +0.000 C 
BRANCH  14  15
ATOM     15  O   UNL     1      -6.335   4.668 132.547  0.00  0.00    +0.000 OA
ATOM     16  H   UNL     1      -5.427   4.390 132.340  0.00  0.00    +0.000 HD
ENDBRANCH  14  15
BRANCH  14  17
ATOM     17  C   UNL     1      -5.892   6.253 130.747  0.00  0.00    +0.000 C 
BRANCH  17  18
ATOM     18  N   UNL     1      -5.579   7.648 130.453  0.00  0.00    +0.000 NA
ATOM     19  H   UNL     1      -5.858   8.235 131.242  0.00  0.00    +0.000 HD
BRANCH  18  20
ATOM     20  C   UNL     1      -4.154   7.837 130.122  0.00  0.00    +0.000 C 
ATOM     21  C   UNL     1      -3.266   7.689 131.371  0.00  0.00    +0.000 C 
ATOM     22  C   UNL     1      -3.718   6.837 129.034  0.00  0.00    +0.000 C 
ATOM     23  C   UNL     1      -3.989   9.258 129.567  0.00  0.00    +0.000 C 
ENDBRANCH  18  20
ENDBRANCH  17  18
ENDBRANCH  14  17
ENDBRANCH  13  14
ENDBRANCH   1  13
TORSDOF 7
ENDMDL
MODEL 9
REMARK VINA RESULT:      -5.3      4.277      5.473
REMARK  Name = Timolol
REMARK  10 active torsions:
REMARK  status: ('A' for Active; 'I' for Inactive)
REMARK    1  A    between atoms: C_2  and  O_3
REMARK    2  A    between atoms: C_2  and  C_4
REMARK    3  A    between atoms: C_2  and  C_10
REMARK    4  A    between atoms: C_4  and  N_5
REMARK    5  A    between atoms: N_5  and  C_6
REMARK    6  A    between atoms: C_6  and  C_7
REMARK    7  A    between atoms: C_6  and  C_8
REMARK    8  A    between atoms: C_6  and  C_9
REMARK    9  A    between atoms: C_10  and  O_11
REMARK   10  A    between atoms: O_11  and  C_12
REMARK                            x       y       z     vdW  Elec       q    Type
REMARK                         _______ _______ _______ _____ _____    ______ ____
ROOT
ATOM      1  O   UNL     1      -9.149   2.673 128.636  0.00  0.00    +0.000 OA
ENDROOT
BRANCH   1   2
ATOM      2  C   UNL     1      -8.414   1.545 128.471  0.00  0.00    +0.000 A 
ATOM      3  N   UNL     1      -8.244   0.832 129.579  0.00  0.00    +0.000 NA
ATOM      4  S   UNL     1      -7.315  -0.467 129.076  0.00  0.00    +0.000 S 
ATOM      5  N   UNL     1      -7.173  -0.134 127.439  0.00  0.00    +0.000 NA
ATOM      6  C   UNL     1      -7.760   1.057 127.261  0.00  0.00    +0.000 A 
ATOM      7  N   UNL     1      -7.765   1.746 126.087  0.00  0.00    +0.000 N 
ATOM      8  C   UNL     1      -7.216   3.102 125.985  0.00  0.00    +0.000 C 
ATOM      9  C   UNL     1      -8.183   4.020 125.214  0.00  0.00    +0.000 C 
ATOM     10  O   UNL     1      -8.618   3.439 123.972  0.00  0.00    +0.000 OA
ATOM     11  C   UNL     1      -9.185   2.126 124.149  0.00  0.00    +0.000 C 
ATOM     12  C   UNL     1      -8.178   1.161 124.814  0.00  0.00    +0.000 C 
ENDBRANCH   1   2
BRANCH   1  13
ATOM     13  C   UNL     1      -9.041   3.216 129.949  0.00  0.00    +0.000 C 
BRANCH  13  14
ATOM     14  C   UNL     1     -10.439   3.389 130.557  0.00  0.00    +0.000 C 
BRANCH  14  15
ATOM     15  O   UNL     1     -10.473   2.874 131.893  0.00  0.00    +0.000 OA
ATOM     16  H   UNL     1      -9.980   3.481 132.469  0.00  0.00    +0.000 HD
ENDBRANCH  14  15
BRANCH  14  17
ATOM     17  C   UNL     1     -10.722   4.882 130.531  0.00  0.00    +0.000 C 
BRANCH  17  18
ATOM     18  N   UNL     1     -11.837   5.267 129.672  0.00  0.00    +0.000 NA
ATOM     19  H   UNL     1     -12.691   4.807 129.994  0.00  0.00    +0.000 HD
BRANCH  18  20
ATOM     20  C   UNL     1     -12.007   6.731 129.610  0.00  0.00    +0.000 C 
ATOM     21  C   UNL     1     -12.828   7.249 130.805  0.00  0.00    +0.000 C 
ATOM     22  C   UNL     1     -10.634   7.430 129.559  0.00  0.00    +0.000 C 
ATOM     23  C   UNL     1     -12.764   7.058 128.315  0.00  0.00    +0.000 C 
ENDBRANCH  18  20
ENDBRANCH  17  18
ENDBRANCH  14  17
ENDBRANCH  13  14
ENDBRANCH   1  13
TORSDOF 7
ENDMDL
