MODEL 1
REMARK VINA RESULT:      -6.0      0.000      0.000
REMARK  Name = Tinidazole
REMARK  7 active torsions:
REMARK  status: ('A' for Active; 'I' for Inactive)
REMARK    1  A    between atoms: C_1  and  C_2
REMARK    2  A    between atoms: C_2  and  S_3
REMARK    3  A    between atoms: S_3  and  C_6
REMARK    4  A    between atoms: C_6  and  C_7
REMARK    5  A    between atoms: C_7  and  N_8
REMARK    6  A    between atoms: C_9  and  C_10
REMARK    7  A    between atoms: C_13  and  N_14
REMARK                            x       y       z     vdW  Elec       q    Type
REMARK                         _______ _______ _______ _____ _____    ______ ____
ROOT
ATOM      1  N   UNL     1     -11.425   7.246 128.890  0.00  0.00    +0.000 N 
ATOM      2  C   UNL     1     -12.660   7.238 129.518  0.00  0.00    +0.000 A 
ATOM      3  C   UNL     1     -12.867   7.284 130.995  0.00  0.00    +0.000 C 
ATOM      4  N   UNL     1     -13.633   7.194 128.625  0.00  0.00    +0.000 NA
ATOM      5  C   UNL     1     -13.029   7.159 127.396  0.00  0.00    +0.000 A 
ATOM      6  C   UNL     1     -11.665   7.197 127.538  0.00  0.00    +0.000 A 
ENDROOT
BRANCH   6   7
ATOM      7  N   UNL     1     -10.680   7.213 126.508  0.00  0.00    +0.000 N 
ATOM      8  O   UNL     1     -10.740   8.114 125.665  0.00  0.00    +0.000 OA
ATOM      9  O   UNL     1      -9.854   6.296 126.517  0.00  0.00    +0.000 OA
ENDBRANCH   6   7
BRANCH   1  10
ATOM     10  C   UNL     1     -10.146   7.339 129.569  0.00  0.00    +0.000 C 
BRANCH  10  11
ATOM     11  C   UNL     1      -9.640   5.966 129.988  0.00  0.00    +0.000 C 
BRANCH  11  12
ATOM     12  S   UNL     1      -8.858   6.123 131.575  0.00  0.00    +0.000 S 
ATOM     13  O   UNL     1      -9.882   6.537 132.517  0.00  0.00    +0.000 OA
ATOM     14  O   UNL     1      -7.669   6.924 131.371  0.00  0.00    +0.000 OA
BRANCH  12  16
ATOM     15  C   UNL     1      -9.099   4.007 133.255  0.00  0.00    +0.000 C 
ATOM     16  C   UNL     1      -8.340   4.469 132.021  0.00  0.00    +0.000 C 
ENDBRANCH  12  16
ENDBRANCH  11  12
ENDBRANCH  10  11
ENDBRANCH   1  10
TORSDOF 5
ENDMDL
MODEL 2
REMARK VINA RESULT:      -5.6      1.991      2.258
REMARK  Name = Tinidazole
REMARK  7 active torsions:
REMARK  status: ('A' for Active; 'I' for Inactive)
REMARK    1  A    between atoms: C_1  and  C_2
REMARK    2  A    between atoms: C_2  and  S_3
REMARK    3  A    between atoms: S_3  and  C_6
REMARK    4  A    between atoms: C_6  and  C_7
REMARK    5  A    between atoms: C_7  and  N_8
REMARK    6  A    between atoms: C_9  and  C_10
REMARK    7  A    between atoms: C_13  and  N_14
REMARK                            x       y       z     vdW  Elec       q    Type
REMARK                         _______ _______ _______ _____ _____    ______ ____
ROOT
ATOM      1  N   UNL     1     -11.988   7.016 129.495  0.00  0.00    +0.000 N 
ATOM      2  C   UNL     1     -12.567   7.983 130.303  0.00  0.00    +0.000 A 
ATOM      3  C   UNL     1     -13.026   7.761 131.705  0.00  0.00    +0.000 C 
ATOM      4  N   UNL     1     -12.647   9.135 129.661  0.00  0.00    +0.000 NA
ATOM      5  C   UNL     1     -12.127   8.918 128.411  0.00  0.00    +0.000 A 
ATOM      6  C   UNL     1     -11.709   7.617 128.292  0.00  0.00    +0.000 A 
ENDROOT
BRANCH   6   7
ATOM      7  N   UNL     1     -11.083   7.001 127.170  0.00  0.00    +0.000 N 
ATOM      8  O   UNL     1     -11.776   6.773 126.174  0.00  0.00    +0.000 OA
ATOM      9  O   UNL     1      -9.890   6.708 127.293  0.00  0.00    +0.000 OA
ENDBRANCH   6   7
BRANCH   1  10
ATOM     10  C   UNL     1     -11.706   5.652 129.902  0.00  0.00    +0.000 C 
BRANCH  10  11
ATOM     11  C   UNL     1     -10.330   5.537 130.541  0.00  0.00    +0.000 C 
BRANCH  11  12
ATOM     12  S   UNL     1      -9.797   3.847 130.412  0.00  0.00    +0.000 S 
ATOM     13  O   UNL     1      -9.047   3.728 129.176  0.00  0.00    +0.000 OA
ATOM     14  O   UNL     1     -10.967   3.028 130.653  0.00  0.00    +0.000 OA
BRANCH  12  16
ATOM     15  C   UNL     1      -9.313   2.735 132.838  0.00  0.00    +0.000 C 
ATOM     16  C   UNL     1      -8.659   3.598 131.771  0.00  0.00    +0.000 C 
ENDBRANCH  12  16
ENDBRANCH  11  12
ENDBRANCH  10  11
ENDBRANCH   1  10
TORSDOF 5
ENDMDL
MODEL 3
REMARK VINA RESULT:      -5.5      2.315      3.108
REMARK  Name = Tinidazole
REMARK  7 active torsions:
REMARK  status: ('A' for Active; 'I' for Inactive)
REMARK    1  A    between atoms: C_1  and  C_2
REMARK    2  A    between atoms: C_2  and  S_3
REMARK    3  A    between atoms: S_3  and  C_6
REMARK    4  A    between atoms: C_6  and  C_7
REMARK    5  A    between atoms: C_7  and  N_8
REMARK    6  A    between atoms: C_9  and  C_10
REMARK    7  A    between atoms: C_13  and  N_14
REMARK                            x       y       z     vdW  Elec       q    Type
REMARK                         _______ _______ _______ _____ _____    ______ ____
ROOT
ATOM      1  N   UNL     1     -11.442   7.452 128.978  0.00  0.00    +0.000 N 
ATOM      2  C   UNL     1     -11.800   7.397 127.640  0.00  0.00    +0.000 A 
ATOM      3  C   UNL     1     -10.852   7.529 126.496  0.00  0.00    +0.000 C 
ATOM      4  N   UNL     1     -13.101   7.200 127.518  0.00  0.00    +0.000 NA
ATOM      5  C   UNL     1     -13.605   7.139 128.791  0.00  0.00    +0.000 A 
ATOM      6  C   UNL     1     -12.594   7.287 129.707  0.00  0.00    +0.000 A 
ENDROOT
BRANCH   6   7
ATOM      7  N   UNL     1     -12.693   7.249 131.128  0.00  0.00    +0.000 N 
ATOM      8  O   UNL     1     -13.096   8.262 131.707  0.00  0.00    +0.000 OA
ATOM      9  O   UNL     1     -12.330   6.206 131.680  0.00  0.00    +0.000 OA
ENDBRANCH   6   7
BRANCH   1  10
ATOM     10  C   UNL     1     -10.086   7.609 129.471  0.00  0.00    +0.000 C 
BRANCH  10  11
ATOM     11  C   UNL     1      -9.414   6.261 129.684  0.00  0.00    +0.000 C 
BRANCH  11  12
ATOM     12  S   UNL     1      -8.309   6.403 131.068  0.00  0.00    +0.000 S 
ATOM     13  O   UNL     1      -9.128   6.595 132.250  0.00  0.00    +0.000 OA
ATOM     14  O   UNL     1      -7.304   7.377 130.694  0.00  0.00    +0.000 OA
BRANCH  12  16
ATOM     15  C   UNL     1      -7.816   3.968 129.981  0.00  0.00    +0.000 C 
ATOM     16  C   UNL     1      -7.508   4.809 131.209  0.00  0.00    +0.000 C 
ENDBRANCH  12  16
ENDBRANCH  11  12
ENDBRANCH  10  11
ENDBRANCH   1  10
TORSDOF 5
ENDMDL
MODEL 4
REMARK VINA RESULT:      -5.5      8.344      9.178
REMARK  Name = Tinidazole
REMARK  7 active torsions:
REMARK  status: ('A' for Active; 'I' for Inactive)
REMARK    1  A    between atoms: C_1  and  C_2
REMARK    2  A    between atoms: C_2  and  S_3
REMARK    3  A    between atoms: S_3  and  C_6
REMARK    4  A    between atoms: C_6  and  C_7
REMARK    5  A    between atoms: C_7  and  N_8
REMARK    6  A    between atoms: C_9  and  C_10
REMARK    7  A    between atoms: C_13  and  N_14
REMARK                            x       y       z     vdW  Elec       q    Type
REMARK                         _______ _______ _______ _____ _____    ______ ____
ROOT
ATOM      1  N   UNL     1      -8.262   1.612 124.226  0.00  0.00    +0.000 N 
ATOM      2  C   UNL     1      -7.290   2.549 123.910  0.00  0.00    +0.000 A 
ATOM      3  C   UNL     1      -6.030   2.764 124.680  0.00  0.00    +0.000 C 
ATOM      4  N   UNL     1      -7.629   3.219 122.823  0.00  0.00    +0.000 NA
ATOM      5  C   UNL     1      -8.845   2.726 122.429  0.00  0.00    +0.000 A 
ATOM      6  C   UNL     1      -9.250   1.729 123.279  0.00  0.00    +0.000 A 
ENDROOT
BRANCH   6   7
ATOM      7  N   UNL     1     -10.434   0.941 123.198  0.00  0.00    +0.000 N 
ATOM      8  O   UNL     1     -11.337   1.168 124.009  0.00  0.00    +0.000 OA
ATOM      9  O   UNL     1     -10.454   0.057 122.336  0.00  0.00    +0.000 OA
ENDBRANCH   6   7
BRANCH   1  10
ATOM     10  C   UNL     1      -8.186   0.674 125.330  0.00  0.00    +0.000 C 
BRANCH  10  11
ATOM     11  C   UNL     1      -7.512  -0.624 124.910  0.00  0.00    +0.000 C 
BRANCH  11  12
ATOM     12  S   UNL     1      -8.481  -1.979 125.527  0.00  0.00    +0.000 S 
ATOM     13  O   UNL     1      -9.866  -1.545 125.535  0.00  0.00    +0.000 OA
ATOM     14  O   UNL     1      -7.835  -2.426 126.744  0.00  0.00    +0.000 OA
BRANCH  12  16
ATOM     15  C   UNL     1      -9.554  -3.306 123.419  0.00  0.00    +0.000 C 
ATOM     16  C   UNL     1      -8.321  -3.279 124.307  0.00  0.00    +0.000 C 
ENDBRANCH  12  16
ENDBRANCH  11  12
ENDBRANCH  10  11
ENDBRANCH   1  10
TORSDOF 5
ENDMDL
MODEL 5
REMARK VINA RESULT:      -5.4      7.505      9.048
REMARK  Name = Tinidazole
REMARK  7 active torsions:
REMARK  status: ('A' for Active; 'I' for Inactive)
REMARK    1  A    between atoms: C_1  and  C_2
REMARK    2  A    between atoms: C_2  and  S_3
REMARK    3  A    between atoms: S_3  and  C_6
REMARK    4  A    between atoms: C_6  and  C_7
REMARK    5  A    between atoms: C_7  and  N_8
REMARK    6  A    between atoms: C_9  and  C_10
REMARK    7  A    between atoms: C_13  and  N_14
REMARK                            x       y       z     vdW  Elec       q    Type
REMARK                         _______ _______ _______ _____ _____    ______ ____
ROOT
ATOM      1  N   UNL     1      -7.190   3.212 123.323  0.00  0.00    +0.000 N 
ATOM      2  C   UNL     1      -6.128   3.647 122.546  0.00  0.00    +0.000 A 
ATOM      3  C   UNL     1      -5.820   3.158 121.171  0.00  0.00    +0.000 C 
ATOM      4  N   UNL     1      -5.431   4.566 123.190  0.00  0.00    +0.000 NA
ATOM      5  C   UNL     1      -6.034   4.726 124.410  0.00  0.00    +0.000 A 
ATOM      6  C   UNL     1      -7.126   3.903 124.509  0.00  0.00    +0.000 A 
ENDROOT
BRANCH   6   7
ATOM      7  N   UNL     1      -8.039   3.792 125.597  0.00  0.00    +0.000 N 
ATOM      8  O   UNL     1      -8.935   4.638 125.689  0.00  0.00    +0.000 OA
ATOM      9  O   UNL     1      -7.843   2.869 126.393  0.00  0.00    +0.000 OA
ENDBRANCH   6   7
BRANCH   1  10
ATOM     10  C   UNL     1      -8.185   2.242 122.905  0.00  0.00    +0.000 C 
BRANCH  10  11
ATOM     11  C   UNL     1      -7.821   0.839 123.367  0.00  0.00    +0.000 C 
BRANCH  11  12
ATOM     12  S   UNL     1      -9.323  -0.024 123.759  0.00  0.00    +0.000 S 
ATOM     13  O   UNL     1     -10.044  -0.215 122.514  0.00  0.00    +0.000 OA
ATOM     14  O   UNL     1      -9.929   0.686 124.867  0.00  0.00    +0.000 OA
BRANCH  12  16
ATOM     15  C   UNL     1      -9.188  -2.699 123.331  0.00  0.00    +0.000 C 
ATOM     16  C   UNL     1      -8.812  -1.635 124.349  0.00  0.00    +0.000 C 
ENDBRANCH  12  16
ENDBRANCH  11  12
ENDBRANCH  10  11
ENDBRANCH   1  10
TORSDOF 5
ENDMDL
MODEL 6
REMARK VINA RESULT:      -5.4      8.661      9.545
REMARK  Name = Tinidazole
REMARK  7 active torsions:
REMARK  status: ('A' for Active; 'I' for Inactive)
REMARK    1  A    between atoms: C_1  and  C_2
REMARK    2  A    between atoms: C_2  and  S_3
REMARK    3  A    between atoms: S_3  and  C_6
REMARK    4  A    between atoms: C_6  and  C_7
REMARK    5  A    between atoms: C_7  and  N_8
REMARK    6  A    between atoms: C_9  and  C_10
REMARK    7  A    between atoms: C_13  and  N_14
REMARK                            x       y       z     vdW  Elec       q    Type
REMARK                         _______ _______ _______ _____ _____    ______ ____
ROOT
ATOM      1  N   UNL     1      -8.401   0.166 123.501  0.00  0.00    +0.000 N 
ATOM      2  C   UNL     1      -9.103  -0.887 122.935  0.00  0.00    +0.000 A 
ATOM      3  C   UNL     1      -8.595  -2.284 122.815  0.00  0.00    +0.000 C 
ATOM      4  N   UNL     1     -10.291  -0.483 122.525  0.00  0.00    +0.000 NA
ATOM      5  C   UNL     1     -10.366   0.855 122.812  0.00  0.00    +0.000 A 
ATOM      6  C   UNL     1      -9.210   1.273 123.421  0.00  0.00    +0.000 A 
ENDROOT
BRANCH   6   7
ATOM      7  N   UNL     1      -8.902   2.577 123.907  0.00  0.00    +0.000 N 
ATOM      8  O   UNL     1      -9.141   2.824 125.093  0.00  0.00    +0.000 OA
ATOM      9  O   UNL     1      -8.446   3.380 123.087  0.00  0.00    +0.000 OA
ENDBRANCH   6   7
BRANCH   1  10
ATOM     10  C   UNL     1      -7.082   0.063 124.096  0.00  0.00    +0.000 C 
BRANCH  10  11
ATOM     11  C   UNL     1      -7.167  -0.242 125.585  0.00  0.00    +0.000 C 
BRANCH  11  12
ATOM     12  S   UNL     1      -6.276  -1.746 125.897  0.00  0.00    +0.000 S 
ATOM     13  O   UNL     1      -7.259  -2.809 126.010  0.00  0.00    +0.000 OA
ATOM     14  O   UNL     1      -5.359  -1.464 126.981  0.00  0.00    +0.000 OA
BRANCH  12  16
ATOM     15  C   UNL     1      -5.261  -3.540 124.133  0.00  0.00    +0.000 C 
ATOM     16  C   UNL     1      -5.311  -2.048 124.420  0.00  0.00    +0.000 C 
ENDBRANCH  12  16
ENDBRANCH  11  12
ENDBRANCH  10  11
ENDBRANCH   1  10
TORSDOF 5
ENDMDL
MODEL 7
REMARK VINA RESULT:      -5.3      8.369      9.202
REMARK  Name = Tinidazole
REMARK  7 active torsions:
REMARK  status: ('A' for Active; 'I' for Inactive)
REMARK    1  A    between atoms: C_1  and  C_2
REMARK    2  A    between atoms: C_2  and  S_3
REMARK    3  A    between atoms: S_3  and  C_6
REMARK    4  A    between atoms: C_6  and  C_7
REMARK    5  A    between atoms: C_7  and  N_8
REMARK    6  A    between atoms: C_9  and  C_10
REMARK    7  A    between atoms: C_13  and  N_14
REMARK                            x       y       z     vdW  Elec       q    Type
REMARK                         _______ _______ _______ _____ _____    ______ ____
ROOT
ATOM      1  N   UNL     1      -8.515  -0.090 123.825  0.00  0.00    +0.000 N 
ATOM      2  C   UNL     1      -9.173  -1.078 123.109  0.00  0.00    +0.000 A 
ATOM      3  C   UNL     1      -8.811  -2.525 123.121  0.00  0.00    +0.000 C 
ATOM      4  N   UNL     1     -10.174  -0.561 122.420  0.00  0.00    +0.000 NA
ATOM      5  C   UNL     1     -10.166   0.785 122.675  0.00  0.00    +0.000 A 
ATOM      6  C   UNL     1      -9.152   1.095 123.546  0.00  0.00    +0.000 A 
ENDROOT
BRANCH   6   7
ATOM      7  N   UNL     1      -8.826   2.372 124.088  0.00  0.00    +0.000 N 
ATOM      8  O   UNL     1      -9.292   2.667 125.193  0.00  0.00    +0.000 OA
ATOM      9  O   UNL     1      -8.124   3.107 123.388  0.00  0.00    +0.000 OA
ENDBRANCH   6   7
BRANCH   1  10
ATOM     10  C   UNL     1      -7.399  -0.317 124.724  0.00  0.00    +0.000 C 
BRANCH  10  11
ATOM     11  C   UNL     1      -7.870  -0.488 126.161  0.00  0.00    +0.000 C 
BRANCH  11  12
ATOM     12  S   UNL     1      -7.326  -2.076 126.739  0.00  0.00    +0.000 S 
ATOM     13  O   UNL     1      -6.900  -1.907 128.116  0.00  0.00    +0.000 OA
ATOM     14  O   UNL     1      -6.415  -2.589 125.736  0.00  0.00    +0.000 OA
BRANCH  12  16
ATOM     15  C   UNL     1      -8.848  -3.913 128.031  0.00  0.00    +0.000 C 
ATOM     16  C   UNL     1      -8.786  -3.113 126.740  0.00  0.00    +0.000 C 
ENDBRANCH  12  16
ENDBRANCH  11  12
ENDBRANCH  10  11
ENDBRANCH   1  10
TORSDOF 5
ENDMDL
MODEL 8
REMARK VINA RESULT:      -5.2      3.177      5.465
REMARK  Name = Tinidazole
REMARK  7 active torsions:
REMARK  status: ('A' for Active; 'I' for Inactive)
REMARK    1  A    between atoms: C_1  and  C_2
REMARK    2  A    between atoms: C_2  and  S_3
REMARK    3  A    between atoms: S_3  and  C_6
REMARK    4  A    between atoms: C_6  and  C_7
REMARK    5  A    between atoms: C_7  and  N_8
REMARK    6  A    between atoms: C_9  and  C_10
REMARK    7  A    between atoms: C_13  and  N_14
REMARK                            x       y       z     vdW  Elec       q    Type
REMARK                         _______ _______ _______ _____ _____    ______ ____
ROOT
ATOM      1  N   UNL     1      -8.796   4.661 131.765  0.00  0.00    +0.000 N 
ATOM      2  C   UNL     1      -8.375   4.556 133.081  0.00  0.00    +0.000 A 
ATOM      3  C   UNL     1      -7.563   5.579 133.801  0.00  0.00    +0.000 C 
ATOM      4  N   UNL     1      -8.801   3.425 133.614  0.00  0.00    +0.000 NA
ATOM      5  C   UNL     1      -9.500   2.773 132.632  0.00  0.00    +0.000 A 
ATOM      6  C   UNL     1      -9.514   3.524 131.484  0.00  0.00    +0.000 A 
ENDROOT
BRANCH   6   7
ATOM      7  N   UNL     1     -10.158   3.219 130.250  0.00  0.00    +0.000 N 
ATOM      8  O   UNL     1      -9.475   2.728 129.346  0.00  0.00    +0.000 OA
ATOM      9  O   UNL     1     -11.356   3.505 130.166  0.00  0.00    +0.000 OA
ENDBRANCH   6   7
BRANCH   1  10
ATOM     10  C   UNL     1      -8.545   5.798 130.898  0.00  0.00    +0.000 C 
BRANCH  10  11
ATOM     11  C   UNL     1      -9.748   6.727 130.840  0.00  0.00    +0.000 C 
BRANCH  11  12
ATOM     12  S   UNL     1     -10.163   6.993 129.133  0.00  0.00    +0.000 S 
ATOM     13  O   UNL     1      -9.554   5.917 128.373  0.00  0.00    +0.000 OA
ATOM     14  O   UNL     1      -9.851   8.377 128.844  0.00  0.00    +0.000 OA
BRANCH  12  16
ATOM     15  C   UNL     1     -12.569   8.067 128.488  0.00  0.00    +0.000 C 
ATOM     16  C   UNL     1     -11.940   6.796 129.035  0.00  0.00    +0.000 C 
ENDBRANCH  12  16
ENDBRANCH  11  12
ENDBRANCH  10  11
ENDBRANCH   1  10
TORSDOF 5
ENDMDL
MODEL 9
REMARK VINA RESULT:      -5.2      8.299      9.690
REMARK  Name = Tinidazole
REMARK  7 active torsions:
REMARK  status: ('A' for Active; 'I' for Inactive)
REMARK    1  A    between atoms: C_1  and  C_2
REMARK    2  A    between atoms: C_2  and  S_3
REMARK    3  A    between atoms: S_3  and  C_6
REMARK    4  A    between atoms: C_6  and  C_7
REMARK    5  A    between atoms: C_7  and  N_8
REMARK    6  A    between atoms: C_9  and  C_10
REMARK    7  A    between atoms: C_13  and  N_14
REMARK                            x       y       z     vdW  Elec       q    Type
REMARK                         _______ _______ _______ _____ _____    ______ ____
ROOT
ATOM      1  N   UNL     1      -7.734  -0.509 123.434  0.00  0.00    +0.000 N 
ATOM      2  C   UNL     1      -7.164  -1.753 123.651  0.00  0.00    +0.000 A 
ATOM      3  C   UNL     1      -5.713  -1.997 123.897  0.00  0.00    +0.000 C 
ATOM      4  N   UNL     1      -8.088  -2.697 123.619  0.00  0.00    +0.000 NA
ATOM      5  C   UNL     1      -9.277  -2.065 123.364  0.00  0.00    +0.000 A 
ATOM      6  C   UNL     1      -9.080  -0.712 123.253  0.00  0.00    +0.000 A 
ENDROOT
BRANCH   6   7
ATOM      7  N   UNL     1     -10.060   0.297 123.026  0.00  0.00    +0.000 N 
ATOM      8  O   UNL     1     -10.286   0.632 121.859  0.00  0.00    +0.000 OA
ATOM      9  O   UNL     1     -10.590   0.789 124.026  0.00  0.00    +0.000 OA
ENDBRANCH   6   7
BRANCH   1  10
ATOM     10  C   UNL     1      -7.013   0.751 123.451  0.00  0.00    +0.000 C 
BRANCH  10  11
ATOM     11  C   UNL     1      -7.357   1.570 124.686  0.00  0.00    +0.000 C 
BRANCH  11  12
ATOM     12  S   UNL     1      -7.821   3.202 124.160  0.00  0.00    +0.000 S 
ATOM     13  O   UNL     1      -8.819   3.685 125.096  0.00  0.00    +0.000 OA
ATOM     14  O   UNL     1      -8.112   3.110 122.744  0.00  0.00    +0.000 OA
BRANCH  12  16
ATOM     15  C   UNL     1      -5.585   4.260 123.046  0.00  0.00    +0.000 C 
ATOM     16  C   UNL     1      -6.352   4.206 124.357  0.00  0.00    +0.000 C 
ENDBRANCH  12  16
ENDBRANCH  11  12
ENDBRANCH  10  11
ENDBRANCH   1  10
TORSDOF 5
ENDMDL
