MODEL 1
REMARK VINA RESULT:      -6.4      0.000      0.000
REMARK  Name = Tioconazole
REMARK  6 active torsions:
REMARK  status: ('A' for Active; 'I' for Inactive)
REMARK    1  A    between atoms: C_3  and  C_4
REMARK    2  A    between atoms: C_4  and  O_5
REMARK    3  A    between atoms: O_5  and  C_6
REMARK    4  A    between atoms: C_6  and  C_7
REMARK    5  A    between atoms: C_6  and  C_13
REMARK    6  A    between atoms: C_7  and  N_8
REMARK                            x       y       z     vdW  Elec       q    Type
REMARK                         _______ _______ _______ _____ _____    ______ ____
ROOT
ATOM      1  C   UNL     1      -6.600   2.949 125.038  0.00  0.00    +0.000 C 
ENDROOT
BRANCH   1   2
ATOM      2  C   UNL     1      -6.786   3.271 123.539  0.00  0.00    +0.000 A 
ATOM      3  C   UNL     1      -7.982   3.014 122.848  0.00  0.00    +0.000 A 
ATOM      4 CL   UNL     1      -9.337   2.257 123.606  0.00  0.00    +0.000 Cl
ATOM      5  C   UNL     1      -8.119   3.344 121.491  0.00  0.00    +0.000 A 
ATOM      6  C   UNL     1      -7.052   3.901 120.791  0.00  0.00    +0.000 A 
ATOM      7 CL   UNL     1      -7.218   4.279 119.122  0.00  0.00    +0.000 Cl
ATOM      8  C   UNL     1      -5.850   4.143 121.433  0.00  0.00    +0.000 A 
ATOM      9  C   UNL     1      -5.728   3.842 122.791  0.00  0.00    +0.000 A 
ENDBRANCH   1   2
BRANCH   1  10
ATOM     10  O   UNL     1      -6.005   1.629 125.058  0.00  0.00    +0.000 OA
BRANCH  10  11
ATOM     11  C   UNL     1      -6.816   0.627 125.632  0.00  0.00    +0.000 C 
BRANCH  11  14
ATOM     12 CL   UNL     1      -8.582  -2.100 126.612  0.00  0.00    +0.000 Cl
ATOM     13  C   UNL     1      -7.877  -1.674 125.105  0.00  0.00    +0.000 A 
ATOM     14  C   UNL     1      -7.158  -0.548 124.778  0.00  0.00    +0.000 A 
ATOM     15  C   UNL     1      -6.870  -0.555 123.357  0.00  0.00    +0.000 A 
ATOM     16  C   UNL     1      -7.290  -1.706 122.731  0.00  0.00    +0.000 A 
ATOM     17  S   UNL     1      -8.102  -2.747 123.812  0.00  0.00    +0.000 S 
ENDBRANCH  11  14
ENDBRANCH  10  11
ENDBRANCH   1  10
BRANCH   1  18
ATOM     18  C   UNL     1      -5.764   4.097 125.748  0.00  0.00    +0.000 C 
BRANCH  18  19
ATOM     19  N   UNL     1      -4.623   3.734 126.593  0.00  0.00    +0.000 N 
ATOM     20  C   UNL     1      -4.644   3.364 127.922  0.00  0.00    +0.000 A 
ATOM     21  C   UNL     1      -3.347   3.590 128.348  0.00  0.00    +0.000 A 
ATOM     22  N   UNL     1      -2.518   3.751 127.280  0.00  0.00    +0.000 NA
ATOM     23  C   UNL     1      -3.310   3.741 126.215  0.00  0.00    +0.000 A 
ENDBRANCH  18  19
ENDBRANCH   1  18
TORSDOF 6
ENDMDL
MODEL 2
REMARK VINA RESULT:      -6.3      3.974      6.031
REMARK  Name = Tioconazole
REMARK  6 active torsions:
REMARK  status: ('A' for Active; 'I' for Inactive)
REMARK    1  A    between atoms: C_3  and  C_4
REMARK    2  A    between atoms: C_4  and  O_5
REMARK    3  A    between atoms: O_5  and  C_6
REMARK    4  A    between atoms: C_6  and  C_7
REMARK    5  A    between atoms: C_6  and  C_13
REMARK    6  A    between atoms: C_7  and  N_8
REMARK                            x       y       z     vdW  Elec       q    Type
REMARK                         _______ _______ _______ _____ _____    ______ ____
ROOT
ATOM      1  C   UNL     1      -8.145  -0.234 125.009  0.00  0.00    +0.000 C 
ENDROOT
BRANCH   1   2
ATOM      2  C   UNL     1      -7.257  -1.453 124.669  0.00  0.00    +0.000 A 
ATOM      3  C   UNL     1      -7.773  -2.750 124.508  0.00  0.00    +0.000 A 
ATOM      4 CL   UNL     1      -9.448  -3.106 124.734  0.00  0.00    +0.000 Cl
ATOM      5  C   UNL     1      -6.936  -3.825 124.176  0.00  0.00    +0.000 A 
ATOM      6  C   UNL     1      -5.564  -3.633 124.037  0.00  0.00    +0.000 A 
ATOM      7 CL   UNL     1      -4.541  -4.960 123.655  0.00  0.00    +0.000 Cl
ATOM      8  C   UNL     1      -5.017  -2.373 124.216  0.00  0.00    +0.000 A 
ATOM      9  C   UNL     1      -5.858  -1.300 124.515  0.00  0.00    +0.000 A 
ENDBRANCH   1   2
BRANCH   1  10
ATOM     10  O   UNL     1      -8.677  -0.524 126.324  0.00  0.00    +0.000 OA
BRANCH  10  11
ATOM     11  C   UNL     1      -7.818  -0.191 127.393  0.00  0.00    +0.000 C 
BRANCH  11  14
ATOM     12 CL   UNL     1      -8.163   0.310 130.731  0.00  0.00    +0.000 Cl
ATOM     13  C   UNL     1      -7.755  -1.088 129.819  0.00  0.00    +0.000 A 
ATOM     14  C   UNL     1      -7.620  -1.217 128.457  0.00  0.00    +0.000 A 
ATOM     15  C   UNL     1      -7.391  -2.611 128.126  0.00  0.00    +0.000 A 
ATOM     16  C   UNL     1      -7.270  -3.412 129.237  0.00  0.00    +0.000 A 
ATOM     17  S   UNL     1      -7.509  -2.528 130.677  0.00  0.00    +0.000 S 
ENDBRANCH  11  14
ENDBRANCH  10  11
ENDBRANCH   1  10
BRANCH   1  18
ATOM     18  C   UNL     1      -7.309   1.109 124.879  0.00  0.00    +0.000 C 
BRANCH  18  19
ATOM     19  N   UNL     1      -7.668   2.078 123.840  0.00  0.00    +0.000 N 
ATOM     20  C   UNL     1      -8.927   2.364 123.354  0.00  0.00    +0.000 A 
ATOM     21  C   UNL     1      -8.681   2.952 122.126  0.00  0.00    +0.000 A 
ATOM     22  N   UNL     1      -7.372   3.314 122.027  0.00  0.00    +0.000 NA
ATOM     23  C   UNL     1      -6.795   2.851 123.128  0.00  0.00    +0.000 A 
ENDBRANCH  18  19
ENDBRANCH   1  18
TORSDOF 6
ENDMDL
MODEL 3
REMARK VINA RESULT:      -6.3      8.031     10.091
REMARK  Name = Tioconazole
REMARK  6 active torsions:
REMARK  status: ('A' for Active; 'I' for Inactive)
REMARK    1  A    between atoms: C_3  and  C_4
REMARK    2  A    between atoms: C_4  and  O_5
REMARK    3  A    between atoms: O_5  and  C_6
REMARK    4  A    between atoms: C_6  and  C_7
REMARK    5  A    between atoms: C_6  and  C_13
REMARK    6  A    between atoms: C_7  and  N_8
REMARK                            x       y       z     vdW  Elec       q    Type
REMARK                         _______ _______ _______ _____ _____    ______ ____
ROOT
ATOM      1  C   UNL     1      -8.886   6.062 131.992  0.00  0.00    +0.000 C 
ENDROOT
BRANCH   1   2
ATOM      2  C   UNL     1      -8.927   4.520 131.911  0.00  0.00    +0.000 A 
ATOM      3  C   UNL     1      -8.783   3.694 133.038  0.00  0.00    +0.000 A 
ATOM      4 CL   UNL     1      -8.489   4.335 134.615  0.00  0.00    +0.000 Cl
ATOM      5  C   UNL     1      -8.851   2.298 132.925  0.00  0.00    +0.000 A 
ATOM      6  C   UNL     1      -9.024   1.700 131.680  0.00  0.00    +0.000 A 
ATOM      7 CL   UNL     1      -9.081  -0.014 131.545  0.00  0.00    +0.000 Cl
ATOM      8  C   UNL     1      -9.143   2.482 130.543  0.00  0.00    +0.000 A 
ATOM      9  C   UNL     1      -9.106   3.872 130.665  0.00  0.00    +0.000 A 
ENDBRANCH   1   2
BRANCH   1  10
ATOM     10  O   UNL     1      -7.494   6.379 132.233  0.00  0.00    +0.000 OA
BRANCH  10  11
ATOM     11  C   UNL     1      -6.815   6.927 131.123  0.00  0.00    +0.000 C 
BRANCH  11  14
ATOM     12 CL   UNL     1      -5.482   3.808 131.218  0.00  0.00    +0.000 Cl
ATOM     13  C   UNL     1      -4.766   5.352 130.985  0.00  0.00    +0.000 A 
ATOM     14  C   UNL     1      -5.370   6.587 130.970  0.00  0.00    +0.000 A 
ATOM     15  C   UNL     1      -4.393   7.597 130.611  0.00  0.00    +0.000 A 
ATOM     16  C   UNL     1      -3.122   7.089 130.480  0.00  0.00    +0.000 A 
ATOM     17  S   UNL     1      -3.096   5.397 130.700  0.00  0.00    +0.000 S 
ENDBRANCH  11  14
ENDBRANCH  10  11
ENDBRANCH   1  10
BRANCH   1  18
ATOM     18  C   UNL     1      -9.527   6.700 130.688  0.00  0.00    +0.000 C 
BRANCH  18  19
ATOM     19  N   UNL     1     -10.965   6.979 130.659  0.00  0.00    +0.000 N 
ATOM     20  C   UNL     1     -11.654   7.755 129.751  0.00  0.00    +0.000 A 
ATOM     21  C   UNL     1     -12.828   8.074 130.412  0.00  0.00    +0.000 A 
ATOM     22  N   UNL     1     -12.994   7.268 131.497  0.00  0.00    +0.000 NA
ATOM     23  C   UNL     1     -11.885   6.544 131.571  0.00  0.00    +0.000 A 
ENDBRANCH  18  19
ENDBRANCH   1  18
TORSDOF 6
ENDMDL
MODEL 4
REMARK VINA RESULT:      -6.3      3.789      5.778
REMARK  Name = Tioconazole
REMARK  6 active torsions:
REMARK  status: ('A' for Active; 'I' for Inactive)
REMARK    1  A    between atoms: C_3  and  C_4
REMARK    2  A    between atoms: C_4  and  O_5
REMARK    3  A    between atoms: O_5  and  C_6
REMARK    4  A    between atoms: C_6  and  C_7
REMARK    5  A    between atoms: C_6  and  C_13
REMARK    6  A    between atoms: C_7  and  N_8
REMARK                            x       y       z     vdW  Elec       q    Type
REMARK                         _______ _______ _______ _____ _____    ______ ____
ROOT
ATOM      1  C   UNL     1      -8.323  -0.391 125.454  0.00  0.00    +0.000 C 
ENDROOT
BRANCH   1   2
ATOM      2  C   UNL     1      -7.382  -1.522 124.983  0.00  0.00    +0.000 A 
ATOM      3  C   UNL     1      -7.826  -2.835 124.750  0.00  0.00    +0.000 A 
ATOM      4 CL   UNL     1      -9.463  -3.313 125.026  0.00  0.00    +0.000 Cl
ATOM      5  C   UNL     1      -6.944  -3.827 124.299  0.00  0.00    +0.000 A 
ATOM      6  C   UNL     1      -5.595  -3.538 124.112  0.00  0.00    +0.000 A 
ATOM      7 CL   UNL     1      -4.514  -4.766 123.584  0.00  0.00    +0.000 Cl
ATOM      8  C   UNL     1      -5.117  -2.262 124.358  0.00  0.00    +0.000 A 
ATOM      9  C   UNL     1      -6.004  -1.269 124.776  0.00  0.00    +0.000 A 
ENDBRANCH   1   2
BRANCH   1  10
ATOM     10  O   UNL     1      -7.570   0.314 126.470  0.00  0.00    +0.000 OA
BRANCH  10  11
ATOM     11  C   UNL     1      -7.863  -0.074 127.795  0.00  0.00    +0.000 C 
BRANCH  11  14
ATOM     12 CL   UNL     1      -8.476  -3.342 128.472  0.00  0.00    +0.000 Cl
ATOM     13  C   UNL     1      -7.097  -2.355 128.746  0.00  0.00    +0.000 A 
ATOM     14  C   UNL     1      -6.920  -1.023 128.455  0.00  0.00    +0.000 A 
ATOM     15  C   UNL     1      -5.551  -0.643 128.746  0.00  0.00    +0.000 A 
ATOM     16  C   UNL     1      -4.824  -1.660 129.320  0.00  0.00    +0.000 A 
ATOM     17  S   UNL     1      -5.739  -3.095 129.440  0.00  0.00    +0.000 S 
ENDBRANCH  11  14
ENDBRANCH  10  11
ENDBRANCH   1  10
BRANCH   1  18
ATOM     18  C   UNL     1      -8.800   0.479 124.216  0.00  0.00    +0.000 C 
BRANCH  18  19
ATOM     19  N   UNL     1      -8.166   1.776 123.965  0.00  0.00    +0.000 N 
ATOM     20  C   UNL     1      -7.044   2.031 123.204  0.00  0.00    +0.000 A 
ATOM     21  C   UNL     1      -6.606   3.261 123.663  0.00  0.00    +0.000 A 
ATOM     22  N   UNL     1      -7.580   3.868 124.397  0.00  0.00    +0.000 NA
ATOM     23  C   UNL     1      -8.559   2.976 124.487  0.00  0.00    +0.000 A 
ENDBRANCH  18  19
ENDBRANCH   1  18
TORSDOF 6
ENDMDL
MODEL 5
REMARK VINA RESULT:      -6.2      1.608      2.044
REMARK  Name = Tioconazole
REMARK  6 active torsions:
REMARK  status: ('A' for Active; 'I' for Inactive)
REMARK    1  A    between atoms: C_3  and  C_4
REMARK    2  A    between atoms: C_4  and  O_5
REMARK    3  A    between atoms: O_5  and  C_6
REMARK    4  A    between atoms: C_6  and  C_7
REMARK    5  A    between atoms: C_6  and  C_13
REMARK    6  A    between atoms: C_7  and  N_8
REMARK                            x       y       z     vdW  Elec       q    Type
REMARK                         _______ _______ _______ _____ _____    ______ ____
ROOT
ATOM      1  C   UNL     1      -6.775   1.368 125.856  0.00  0.00    +0.000 C 
ENDROOT
BRANCH   1   2
ATOM      2  C   UNL     1      -7.348   1.944 124.542  0.00  0.00    +0.000 A 
ATOM      3  C   UNL     1      -8.691   1.784 124.162  0.00  0.00    +0.000 A 
ATOM      4 CL   UNL     1      -9.812   0.874 125.110  0.00  0.00    +0.000 Cl
ATOM      5  C   UNL     1      -9.177   2.344 122.971  0.00  0.00    +0.000 A 
ATOM      6  C   UNL     1      -8.323   3.039 122.120  0.00  0.00    +0.000 A 
ATOM      7 CL   UNL     1      -8.920   3.701 120.649  0.00  0.00    +0.000 Cl
ATOM      8  C   UNL     1      -6.987   3.193 122.449  0.00  0.00    +0.000 A 
ATOM      9  C   UNL     1      -6.514   2.661 123.650  0.00  0.00    +0.000 A 
ENDBRANCH   1   2
BRANCH   1  10
ATOM     10  O   UNL     1      -5.723   0.468 125.434  0.00  0.00    +0.000 OA
BRANCH  10  11
ATOM     11  C   UNL     1      -5.899  -0.874 125.835  0.00  0.00    +0.000 C 
BRANCH  11  14
ATOM     12 CL   UNL     1      -6.639  -1.588 122.602  0.00  0.00    +0.000 Cl
ATOM     13  C   UNL     1      -7.478  -1.909 124.066  0.00  0.00    +0.000 A 
ATOM     14  C   UNL     1      -7.122  -1.577 125.352  0.00  0.00    +0.000 A 
ATOM     15  C   UNL     1      -8.070  -2.164 126.281  0.00  0.00    +0.000 A 
ATOM     16  C   UNL     1      -9.113  -2.801 125.650  0.00  0.00    +0.000 A 
ATOM     17  S   UNL     1      -8.929  -2.777 123.953  0.00  0.00    +0.000 S 
ENDBRANCH  11  14
ENDBRANCH  10  11
ENDBRANCH   1  10
BRANCH   1  18
ATOM     18  C   UNL     1      -6.335   2.544 126.827  0.00  0.00    +0.000 C 
BRANCH  18  19
ATOM     19  N   UNL     1      -4.909   2.839 126.993  0.00  0.00    +0.000 N 
ATOM     20  C   UNL     1      -4.066   2.392 127.989  0.00  0.00    +0.000 A 
ATOM     21  C   UNL     1      -3.018   3.294 127.966  0.00  0.00    +0.000 A 
ATOM     22  N   UNL     1      -3.047   4.026 126.817  0.00  0.00    +0.000 NA
ATOM     23  C   UNL     1      -4.162   3.661 126.196  0.00  0.00    +0.000 A 
ENDBRANCH  18  19
ENDBRANCH   1  18
TORSDOF 6
ENDMDL
MODEL 6
REMARK VINA RESULT:      -6.1      2.551      3.375
REMARK  Name = Tioconazole
REMARK  6 active torsions:
REMARK  status: ('A' for Active; 'I' for Inactive)
REMARK    1  A    between atoms: C_3  and  C_4
REMARK    2  A    between atoms: C_4  and  O_5
REMARK    3  A    between atoms: O_5  and  C_6
REMARK    4  A    between atoms: C_6  and  C_7
REMARK    5  A    between atoms: C_6  and  C_13
REMARK    6  A    between atoms: C_7  and  N_8
REMARK                            x       y       z     vdW  Elec       q    Type
REMARK                         _______ _______ _______ _____ _____    ______ ____
ROOT
ATOM      1  C   UNL     1      -6.824   0.779 126.395  0.00  0.00    +0.000 C 
ENDROOT
BRANCH   1   2
ATOM      2  C   UNL     1      -7.356   1.453 125.110  0.00  0.00    +0.000 A 
ATOM      3  C   UNL     1      -8.711   1.418 124.737  0.00  0.00    +0.000 A 
ATOM      4 CL   UNL     1      -9.896   0.566 125.659  0.00  0.00    +0.000 Cl
ATOM      5  C   UNL     1      -9.157   2.064 123.574  0.00  0.00    +0.000 A 
ATOM      6  C   UNL     1      -8.254   2.721 122.743  0.00  0.00    +0.000 A 
ATOM      7 CL   UNL     1      -8.805   3.489 121.306  0.00  0.00    +0.000 Cl
ATOM      8  C   UNL     1      -6.908   2.753 123.065  0.00  0.00    +0.000 A 
ATOM      9  C   UNL     1      -6.473   2.136 124.240  0.00  0.00    +0.000 A 
ENDBRANCH   1   2
BRANCH   1  10
ATOM     10  O   UNL     1      -5.730  -0.054 125.945  0.00  0.00    +0.000 OA
BRANCH  10  11
ATOM     11  C   UNL     1      -5.973  -1.442 126.029  0.00  0.00    +0.000 C 
BRANCH  11  14
ATOM     12 CL   UNL     1      -6.503  -1.456 122.677  0.00  0.00    +0.000 Cl
ATOM     13  C   UNL     1      -7.460  -2.015 123.990  0.00  0.00    +0.000 A 
ATOM     14  C   UNL     1      -7.186  -1.967 125.337  0.00  0.00    +0.000 A 
ATOM     15  C   UNL     1      -8.222  -2.673 126.065  0.00  0.00    +0.000 A 
ATOM     16  C   UNL     1      -9.242  -3.114 125.253  0.00  0.00    +0.000 A 
ATOM     17  S   UNL     1      -8.933  -2.762 123.612  0.00  0.00    +0.000 S 
ENDBRANCH  11  14
ENDBRANCH  10  11
ENDBRANCH   1  10
BRANCH   1  18
ATOM     18  C   UNL     1      -6.459   1.877 127.481  0.00  0.00    +0.000 C 
BRANCH  18  19
ATOM     19  N   UNL     1      -7.525   2.710 128.044  0.00  0.00    +0.000 N 
ATOM     20  C   UNL     1      -7.601   4.088 128.055  0.00  0.00    +0.000 A 
ATOM     21  C   UNL     1      -8.498   4.361 129.072  0.00  0.00    +0.000 A 
ATOM     22  N   UNL     1      -9.180   3.234 129.419  0.00  0.00    +0.000 NA
ATOM     23  C   UNL     1      -8.630   2.257 128.709  0.00  0.00    +0.000 A 
ENDBRANCH  18  19
ENDBRANCH   1  18
TORSDOF 6
ENDMDL
MODEL 7
REMARK VINA RESULT:      -6.1      4.224      7.973
REMARK  Name = Tioconazole
REMARK  6 active torsions:
REMARK  status: ('A' for Active; 'I' for Inactive)
REMARK    1  A    between atoms: C_3  and  C_4
REMARK    2  A    between atoms: C_4  and  O_5
REMARK    3  A    between atoms: O_5  and  C_6
REMARK    4  A    between atoms: C_6  and  C_7
REMARK    5  A    between atoms: C_6  and  C_13
REMARK    6  A    between atoms: C_7  and  N_8
REMARK                            x       y       z     vdW  Elec       q    Type
REMARK                         _______ _______ _______ _____ _____    ______ ____
ROOT
ATOM      1  C   UNL     1      -7.215  -1.586 126.974  0.00  0.00    +0.000 C 
ENDROOT
BRANCH   1   2
ATOM      2  C   UNL     1      -6.584  -2.341 128.166  0.00  0.00    +0.000 A 
ATOM      3  C   UNL     1      -7.285  -3.299 128.918  0.00  0.00    +0.000 A 
ATOM      4 CL   UNL     1      -8.942  -3.677 128.608  0.00  0.00    +0.000 Cl
ATOM      5  C   UNL     1      -6.668  -3.979 129.977  0.00  0.00    +0.000 A 
ATOM      6  C   UNL     1      -5.354  -3.688 130.331  0.00  0.00    +0.000 A 
ATOM      7 CL   UNL     1      -4.612  -4.508 131.648  0.00  0.00    +0.000 Cl
ATOM      8  C   UNL     1      -4.641  -2.731 129.630  0.00  0.00    +0.000 A 
ATOM      9  C   UNL     1      -5.248  -2.078 128.555  0.00  0.00    +0.000 A 
ENDBRANCH   1   2
BRANCH   1  10
ATOM     10  O   UNL     1      -6.844  -0.202 127.179  0.00  0.00    +0.000 OA
BRANCH  10  11
ATOM     11  C   UNL     1      -7.930   0.699 127.214  0.00  0.00    +0.000 C 
BRANCH  11  14
ATOM     12 CL   UNL     1      -6.213   2.412 124.840  0.00  0.00    +0.000 Cl
ATOM     13  C   UNL     1      -7.835   1.849 124.898  0.00  0.00    +0.000 A 
ATOM     14  C   UNL     1      -8.474   1.166 125.906  0.00  0.00    +0.000 A 
ATOM     15  C   UNL     1      -9.801   0.784 125.463  0.00  0.00    +0.000 A 
ATOM     16  C   UNL     1     -10.113   1.278 124.218  0.00  0.00    +0.000 A 
ATOM     17  S   UNL     1      -8.801   2.127 123.533  0.00  0.00    +0.000 S 
ENDBRANCH  11  14
ENDBRANCH  10  11
ENDBRANCH   1  10
BRANCH   1  18
ATOM     18  C   UNL     1      -6.746  -2.234 125.603  0.00  0.00    +0.000 C 
BRANCH  18  19
ATOM     19  N   UNL     1      -7.702  -2.340 124.497  0.00  0.00    +0.000 N 
ATOM     20  C   UNL     1      -7.587  -1.805 123.231  0.00  0.00    +0.000 A 
ATOM     21  C   UNL     1      -8.890  -1.777 122.765  0.00  0.00    +0.000 A 
ATOM     22  N   UNL     1      -9.690  -2.556 123.545  0.00  0.00    +0.000 NA
ATOM     23  C   UNL     1      -8.917  -2.964 124.544  0.00  0.00    +0.000 A 
ENDBRANCH  18  19
ENDBRANCH   1  18
TORSDOF 6
ENDMDL
MODEL 8
REMARK VINA RESULT:      -5.9      4.089      6.479
REMARK  Name = Tioconazole
REMARK  6 active torsions:
REMARK  status: ('A' for Active; 'I' for Inactive)
REMARK    1  A    between atoms: C_3  and  C_4
REMARK    2  A    between atoms: C_4  and  O_5
REMARK    3  A    between atoms: O_5  and  C_6
REMARK    4  A    between atoms: C_6  and  C_7
REMARK    5  A    between atoms: C_6  and  C_13
REMARK    6  A    between atoms: C_7  and  N_8
REMARK                            x       y       z     vdW  Elec       q    Type
REMARK                         _______ _______ _______ _____ _____    ______ ____
ROOT
ATOM      1  C   UNL     1      -5.574  -1.691 126.900  0.00  0.00    +0.000 C 
ENDROOT
BRANCH   1   2
ATOM      2  C   UNL     1      -6.695  -2.197 125.965  0.00  0.00    +0.000 A 
ATOM      3  C   UNL     1      -6.444  -2.701 124.678  0.00  0.00    +0.000 A 
ATOM      4 CL   UNL     1      -4.854  -2.745 124.003  0.00  0.00    +0.000 Cl
ATOM      5  C   UNL     1      -7.488  -3.174 123.869  0.00  0.00    +0.000 A 
ATOM      6  C   UNL     1      -8.805  -3.116 124.315  0.00  0.00    +0.000 A 
ATOM      7 CL   UNL     1     -10.083  -3.673 123.309  0.00  0.00    +0.000 Cl
ATOM      8  C   UNL     1      -9.093  -2.601 125.568  0.00  0.00    +0.000 A 
ATOM      9  C   UNL     1      -8.048  -2.160 126.382  0.00  0.00    +0.000 A 
ENDBRANCH   1   2
BRANCH   1  10
ATOM     10  O   UNL     1      -5.067  -0.500 126.252  0.00  0.00    +0.000 OA
BRANCH  10  11
ATOM     11  C   UNL     1      -5.790   0.678 126.537  0.00  0.00    +0.000 C 
BRANCH  11  14
ATOM     12 CL   UNL     1      -4.677   3.823 125.912  0.00  0.00    +0.000 Cl
ATOM     13  C   UNL     1      -5.767   2.804 125.061  0.00  0.00    +0.000 A 
ATOM     14  C   UNL     1      -6.186   1.534 125.380  0.00  0.00    +0.000 A 
ATOM     15  C   UNL     1      -7.009   1.013 124.306  0.00  0.00    +0.000 A 
ATOM     16  C   UNL     1      -7.238   1.936 123.312  0.00  0.00    +0.000 A 
ATOM     17  S   UNL     1      -6.410   3.398 123.610  0.00  0.00    +0.000 S 
ENDBRANCH  11  14
ENDBRANCH  10  11
ENDBRANCH   1  10
BRANCH   1  18
ATOM     18  C   UNL     1      -6.132  -1.495 128.373  0.00  0.00    +0.000 C 
BRANCH  18  19
ATOM     19  N   UNL     1      -5.850  -2.514 129.387  0.00  0.00    +0.000 N 
ATOM     20  C   UNL     1      -6.656  -3.565 129.772  0.00  0.00    +0.000 A 
ATOM     21  C   UNL     1      -6.173  -3.912 131.021  0.00  0.00    +0.000 A 
ATOM     22  N   UNL     1      -4.951  -3.350 131.230  0.00  0.00    +0.000 NA
ATOM     23  C   UNL     1      -4.735  -2.574 130.175  0.00  0.00    +0.000 A 
ENDBRANCH  18  19
ENDBRANCH   1  18
TORSDOF 6
ENDMDL
MODEL 9
REMARK VINA RESULT:      -5.8      5.832      7.481
REMARK  Name = Tioconazole
REMARK  6 active torsions:
REMARK  status: ('A' for Active; 'I' for Inactive)
REMARK    1  A    between atoms: C_3  and  C_4
REMARK    2  A    between atoms: C_4  and  O_5
REMARK    3  A    between atoms: O_5  and  C_6
REMARK    4  A    between atoms: C_6  and  C_7
REMARK    5  A    between atoms: C_6  and  C_13
REMARK    6  A    between atoms: C_7  and  N_8
REMARK                            x       y       z     vdW  Elec       q    Type
REMARK                         _______ _______ _______ _____ _____    ______ ____
ROOT
ATOM      1  C   UNL     1      -6.620  -1.926 128.230  0.00  0.00    +0.000 C 
ENDROOT
BRANCH   1   2
ATOM      2  C   UNL     1      -7.409  -2.312 126.959  0.00  0.00    +0.000 A 
ATOM      3  C   UNL     1      -6.919  -2.086 125.661  0.00  0.00    +0.000 A 
ATOM      4 CL   UNL     1      -5.408  -1.300 125.373  0.00  0.00    +0.000 Cl
ATOM      5  C   UNL     1      -7.656  -2.475 124.532  0.00  0.00    +0.000 A 
ATOM      6  C   UNL     1      -8.911  -3.058 124.678  0.00  0.00    +0.000 A 
ATOM      7 CL   UNL     1      -9.820  -3.508 123.289  0.00  0.00    +0.000 Cl
ATOM      8  C   UNL     1      -9.437  -3.271 125.941  0.00  0.00    +0.000 A 
ATOM      9  C   UNL     1      -8.687  -2.912 127.062  0.00  0.00    +0.000 A 
ENDBRANCH   1   2
BRANCH   1  10
ATOM     10  O   UNL     1      -7.187  -0.659 128.642  0.00  0.00    +0.000 OA
BRANCH  10  11
ATOM     11  C   UNL     1      -7.233  -0.460 130.039  0.00  0.00    +0.000 C 
BRANCH  11  14
ATOM     12 CL   UNL     1      -7.755   2.568 128.599  0.00  0.00    +0.000 Cl
ATOM     13  C   UNL     1      -8.410   1.844 130.012  0.00  0.00    +0.000 A 
ATOM     14  C   UNL     1      -8.143   0.606 130.548  0.00  0.00    +0.000 A 
ATOM     15  C   UNL     1      -9.024   0.368 131.676  0.00  0.00    +0.000 A 
ATOM     16  C   UNL     1      -9.813   1.454 131.976  0.00  0.00    +0.000 A 
ATOM     17  S   UNL     1      -9.570   2.731 130.871  0.00  0.00    +0.000 S 
ENDBRANCH  11  14
ENDBRANCH  10  11
ENDBRANCH   1  10
BRANCH   1  18
ATOM     18  C   UNL     1      -6.691  -3.097 129.299  0.00  0.00    +0.000 C 
BRANCH  18  19
ATOM     19  N   UNL     1      -5.465  -3.520 129.981  0.00  0.00    +0.000 N 
ATOM     20  C   UNL     1      -5.358  -4.226 131.161  0.00  0.00    +0.000 A 
ATOM     21  C   UNL     1      -4.072  -3.955 131.593  0.00  0.00    +0.000 A 
ATOM     22  N   UNL     1      -3.336  -3.413 130.583  0.00  0.00    +0.000 NA
ATOM     23  C   UNL     1      -4.188  -3.244 129.579  0.00  0.00    +0.000 A 
ENDBRANCH  18  19
ENDBRANCH   1  18
TORSDOF 6
ENDMDL
