MODEL 1
REMARK VINA RESULT:      -5.4      0.000      0.000
REMARK  Name = Tioguanine
REMARK  0 active torsions:
REMARK  status: ('A' for Active; 'I' for Inactive)
REMARK                            x       y       z     vdW  Elec       q    Type
REMARK                         _______ _______ _______ _____ _____    ______ ____
ROOT
ATOM      1  N   UNL     1     -11.316   4.814 130.830  0.00  0.00    +0.000 N 
ATOM      2  C   UNL     1     -11.571   5.963 130.165  0.00  0.00    +0.000 A 
ATOM      3  N   UNL     1     -11.177   6.052 128.924  0.00  0.00    +0.000 NA
ATOM      4  C   UNL     1     -11.420   7.216 128.220  0.00  0.00    +0.000 A 
ATOM      5  S   UNL     1     -10.993   7.510 126.630  0.00  0.00    +0.000 S 
ATOM      6  C   UNL     1     -12.101   8.229 128.962  0.00  0.00    +0.000 A 
ATOM      7  C   UNL     1     -12.482   8.060 130.263  0.00  0.00    +0.000 A 
ATOM      8  N   UNL     1     -12.225   6.915 130.899  0.00  0.00    +0.000 N 
ATOM      9  N   UNL     1     -13.114   9.149 130.769  0.00  0.00    +0.000 NA
ATOM     10  C   UNL     1     -13.124  10.007 129.766  0.00  0.00    +0.000 A 
ATOM     11  N   UNL     1     -12.519   9.492 128.647  0.00  0.00    +0.000 N 
ATOM     12  H   UNL     1     -10.843   4.079 130.317  0.00  0.00    +0.000 HD
ATOM     13  H   UNL     1     -11.592   4.628 131.781  0.00  0.00    +0.000 HD
ATOM     14  H   UNL     1     -12.493   6.764 131.858  0.00  0.00    +0.000 HD
ATOM     15  H   UNL     1     -12.402   9.954 127.753  0.00  0.00    +0.000 HD
ENDROOT
TORSDOF 0
ENDMDL
MODEL 2
REMARK VINA RESULT:      -5.2      1.811      3.006
REMARK  Name = Tioguanine
REMARK  0 active torsions:
REMARK  status: ('A' for Active; 'I' for Inactive)
REMARK                            x       y       z     vdW  Elec       q    Type
REMARK                         _______ _______ _______ _____ _____    ______ ____
ROOT
ATOM      1  N   UNL     1     -11.604   6.070 132.095  0.00  0.00    +0.000 N 
ATOM      2  C   UNL     1     -11.607   6.719 130.909  0.00  0.00    +0.000 A 
ATOM      3  N   UNL     1     -12.357   7.780 130.793  0.00  0.00    +0.000 NA
ATOM      4  C   UNL     1     -12.384   8.461 129.592  0.00  0.00    +0.000 A 
ATOM      5  S   UNL     1     -13.278   9.834 129.259  0.00  0.00    +0.000 S 
ATOM      6  C   UNL     1     -11.553   7.901 128.572  0.00  0.00    +0.000 A 
ATOM      7  C   UNL     1     -10.794   6.784 128.771  0.00  0.00    +0.000 A 
ATOM      8  N   UNL     1     -10.801   6.162 129.952  0.00  0.00    +0.000 N 
ATOM      9  N   UNL     1     -10.084   6.431 127.670  0.00  0.00    +0.000 NA
ATOM     10  C   UNL     1     -10.409   7.344 126.774  0.00  0.00    +0.000 A 
ATOM     11  N   UNL     1     -11.300   8.259 127.277  0.00  0.00    +0.000 N 
ATOM     12  H   UNL     1     -12.179   6.458 132.834  0.00  0.00    +0.000 HD
ATOM     13  H   UNL     1     -11.049   5.255 132.303  0.00  0.00    +0.000 HD
ATOM     14  H   UNL     1     -10.254   5.335 130.125  0.00  0.00    +0.000 HD
ATOM     15  H   UNL     1     -11.698   9.052 126.788  0.00  0.00    +0.000 HD
ENDROOT
TORSDOF 0
ENDMDL
MODEL 3
REMARK VINA RESULT:      -5.0      0.896      3.290
REMARK  Name = Tioguanine
REMARK  0 active torsions:
REMARK  status: ('A' for Active; 'I' for Inactive)
REMARK                            x       y       z     vdW  Elec       q    Type
REMARK                         _______ _______ _______ _____ _____    ______ ____
ROOT
ATOM      1  N   UNL     1     -13.510  10.658 129.221  0.00  0.00    +0.000 N 
ATOM      2  C   UNL     1     -12.870   9.467 129.260  0.00  0.00    +0.000 A 
ATOM      3  N   UNL     1     -12.235   9.077 128.190  0.00  0.00    +0.000 NA
ATOM      4  C   UNL     1     -11.577   7.863 128.199  0.00  0.00    +0.000 A 
ATOM      5  S   UNL     1     -10.713   7.203 126.929  0.00  0.00    +0.000 S 
ATOM      6  C   UNL     1     -11.671   7.145 129.430  0.00  0.00    +0.000 A 
ATOM      7  C   UNL     1     -12.357   7.621 130.511  0.00  0.00    +0.000 A 
ATOM      8  N   UNL     1     -12.976   8.802 130.452  0.00  0.00    +0.000 N 
ATOM      9  N   UNL     1     -12.314   6.776 131.572  0.00  0.00    +0.000 NA
ATOM     10  C   UNL     1     -11.591   5.759 131.142  0.00  0.00    +0.000 A 
ATOM     11  N   UNL     1     -11.178   5.938 129.845  0.00  0.00    +0.000 N 
ATOM     12  H   UNL     1     -13.445  11.188 128.359  0.00  0.00    +0.000 HD
ATOM     13  H   UNL     1     -14.012  11.066 129.993  0.00  0.00    +0.000 HD
ATOM     14  H   UNL     1     -13.491   9.176 131.233  0.00  0.00    +0.000 HD
ATOM     15  H   UNL     1     -10.614   5.303 129.294  0.00  0.00    +0.000 HD
ENDROOT
TORSDOF 0
ENDMDL
MODEL 4
REMARK VINA RESULT:      -5.0      1.572      2.227
REMARK  Name = Tioguanine
REMARK  0 active torsions:
REMARK  status: ('A' for Active; 'I' for Inactive)
REMARK                            x       y       z     vdW  Elec       q    Type
REMARK                         _______ _______ _______ _____ _____    ______ ____
ROOT
ATOM      1  N   UNL     1      -8.439   4.459 129.760  0.00  0.00    +0.000 N 
ATOM      2  C   UNL     1      -9.452   5.353 129.707  0.00  0.00    +0.000 A 
ATOM      3  N   UNL     1      -9.592   6.056 128.617  0.00  0.00    +0.000 NA
ATOM      4  C   UNL     1     -10.616   6.980 128.536  0.00  0.00    +0.000 A 
ATOM      5  S   UNL     1     -10.950   7.965 127.226  0.00  0.00    +0.000 S 
ATOM      6  C   UNL     1     -11.437   7.063 129.702  0.00  0.00    +0.000 A 
ATOM      7  C   UNL     1     -11.226   6.290 130.808  0.00  0.00    +0.000 A 
ATOM      8  N   UNL     1     -10.223   5.409 130.837  0.00  0.00    +0.000 N 
ATOM      9  N   UNL     1     -12.124   6.534 131.796  0.00  0.00    +0.000 NA
ATOM     10  C   UNL     1     -12.904   7.473 131.295  0.00  0.00    +0.000 A 
ATOM     11  N   UNL     1     -12.524   7.828 130.024  0.00  0.00    +0.000 N 
ATOM     12  H   UNL     1      -7.852   4.378 128.938  0.00  0.00    +0.000 HD
ATOM     13  H   UNL     1      -8.250   3.850 130.540  0.00  0.00    +0.000 HD
ATOM     14  H   UNL     1     -10.043   4.829 131.640  0.00  0.00    +0.000 HD
ATOM     15  H   UNL     1     -12.962   8.521 129.430  0.00  0.00    +0.000 HD
ENDROOT
TORSDOF 0
ENDMDL
MODEL 5
REMARK VINA RESULT:      -4.8      2.109      3.225
REMARK  Name = Tioguanine
REMARK  0 active torsions:
REMARK  status: ('A' for Active; 'I' for Inactive)
REMARK                            x       y       z     vdW  Elec       q    Type
REMARK                         _______ _______ _______ _____ _____    ______ ____
ROOT
ATOM      1  N   UNL     1     -10.847   7.889 126.213  0.00  0.00    +0.000 N 
ATOM      2  C   UNL     1     -10.866   7.444 127.490  0.00  0.00    +0.000 A 
ATOM      3  N   UNL     1      -9.930   6.616 127.864  0.00  0.00    +0.000 NA
ATOM      4  C   UNL     1      -9.926   6.142 129.161  0.00  0.00    +0.000 A 
ATOM      5  S   UNL     1      -8.812   5.083 129.818  0.00  0.00    +0.000 S 
ATOM      6  C   UNL     1     -10.992   6.632 129.977  0.00  0.00    +0.000 A 
ATOM      7  C   UNL     1     -11.938   7.500 129.511  0.00  0.00    +0.000 A 
ATOM      8  N   UNL     1     -11.897   7.931 128.248  0.00  0.00    +0.000 N 
ATOM      9  N   UNL     1     -12.853   7.833 130.455  0.00  0.00    +0.000 NA
ATOM     10  C   UNL     1     -12.470   7.160 131.524  0.00  0.00    +0.000 A 
ATOM     11  N   UNL     1     -11.343   6.415 131.280  0.00  0.00    +0.000 N 
ATOM     12  H   UNL     1     -10.092   7.561 125.622  0.00  0.00    +0.000 HD
ATOM     13  H   UNL     1     -11.506   8.544 125.823  0.00  0.00    +0.000 HD
ATOM     14  H   UNL     1     -12.582   8.569 127.877  0.00  0.00    +0.000 HD
ATOM     15  H   UNL     1     -10.856   5.817 131.938  0.00  0.00    +0.000 HD
ENDROOT
TORSDOF 0
ENDMDL
MODEL 6
REMARK VINA RESULT:      -4.6      1.944      3.444
REMARK  Name = Tioguanine
REMARK  0 active torsions:
REMARK  status: ('A' for Active; 'I' for Inactive)
REMARK                            x       y       z     vdW  Elec       q    Type
REMARK                         _______ _______ _______ _____ _____    ______ ____
ROOT
ATOM      1  N   UNL     1     -10.878   7.627 126.376  0.00  0.00    +0.000 N 
ATOM      2  C   UNL     1     -11.345   7.744 127.640  0.00  0.00    +0.000 A 
ATOM      3  N   UNL     1     -12.013   8.821 127.949  0.00  0.00    +0.000 NA
ATOM      4  C   UNL     1     -12.498   8.969 129.233  0.00  0.00    +0.000 A 
ATOM      5  S   UNL     1     -13.372  10.273 129.810  0.00  0.00    +0.000 S 
ATOM      6  C   UNL     1     -12.199   7.883 130.112  0.00  0.00    +0.000 A 
ATOM      7  C   UNL     1     -11.492   6.785 129.712  0.00  0.00    +0.000 A 
ATOM      8  N   UNL     1     -11.046   6.688 128.457  0.00  0.00    +0.000 N 
ATOM      9  N   UNL     1     -11.327   5.878 130.707  0.00  0.00    +0.000 NA
ATOM     10  C   UNL     1     -11.942   6.422 131.741  0.00  0.00    +0.000 A 
ATOM     11  N   UNL     1     -12.487   7.642 131.427  0.00  0.00    +0.000 N 
ATOM     12  H   UNL     1     -11.089   8.383 125.735  0.00  0.00    +0.000 HD
ATOM     13  H   UNL     1     -10.370   6.833 126.022  0.00  0.00    +0.000 HD
ATOM     14  H   UNL     1     -10.520   5.891 128.137  0.00  0.00    +0.000 HD
ATOM     15  H   UNL     1     -13.006   8.253 132.046  0.00  0.00    +0.000 HD
ENDROOT
TORSDOF 0
ENDMDL
MODEL 7
REMARK VINA RESULT:      -4.6      9.520     10.790
REMARK  Name = Tioguanine
REMARK  0 active torsions:
REMARK  status: ('A' for Active; 'I' for Inactive)
REMARK                            x       y       z     vdW  Elec       q    Type
REMARK                         _______ _______ _______ _____ _____    ______ ____
ROOT
ATOM      1  N   UNL     1      -9.962   4.270 118.557  0.00  0.00    +0.000 N 
ATOM      2  C   UNL     1      -8.990   4.082 119.478  0.00  0.00    +0.000 A 
ATOM      3  N   UNL     1      -7.792   4.517 119.200  0.00  0.00    +0.000 NA
ATOM      4  C   UNL     1      -6.777   4.337 120.120  0.00  0.00    +0.000 A 
ATOM      5  S   UNL     1      -5.189   4.826 119.940  0.00  0.00    +0.000 S 
ATOM      6  C   UNL     1      -7.173   3.666 121.318  0.00  0.00    +0.000 A 
ATOM      7  C   UNL     1      -8.452   3.240 121.536  0.00  0.00    +0.000 A 
ATOM      8  N   UNL     1      -9.398   3.440 120.616  0.00  0.00    +0.000 N 
ATOM      9  N   UNL     1      -8.602   2.630 122.739  0.00  0.00    +0.000 NA
ATOM     10  C   UNL     1      -7.397   2.679 123.275  0.00  0.00    +0.000 A 
ATOM     11  N   UNL     1      -6.495   3.299 122.447  0.00  0.00    +0.000 N 
ATOM     12  H   UNL     1      -9.704   4.753 117.705  0.00  0.00    +0.000 HD
ATOM     13  H   UNL     1     -10.925   3.994 118.674  0.00  0.00    +0.000 HD
ATOM     14  H   UNL     1     -10.348   3.134 120.750  0.00  0.00    +0.000 HD
ATOM     15  H   UNL     1      -5.512   3.460 122.632  0.00  0.00    +0.000 HD
ENDROOT
TORSDOF 0
ENDMDL
MODEL 8
REMARK VINA RESULT:      -4.5      9.994     11.004
REMARK  Name = Tioguanine
REMARK  0 active torsions:
REMARK  status: ('A' for Active; 'I' for Inactive)
REMARK                            x       y       z     vdW  Elec       q    Type
REMARK                         _______ _______ _______ _____ _____    ______ ____
ROOT
ATOM      1  N   UNL     1      -4.268   4.489 121.630  0.00  0.00    +0.000 N 
ATOM      2  C   UNL     1      -5.564   4.218 121.357  0.00  0.00    +0.000 A 
ATOM      3  N   UNL     1      -6.273   3.626 122.278  0.00  0.00    +0.000 NA
ATOM      4  C   UNL     1      -7.599   3.334 122.026  0.00  0.00    +0.000 A 
ATOM      5  S   UNL     1      -8.659   2.584 123.080  0.00  0.00    +0.000 S 
ATOM      6  C   UNL     1      -8.060   3.728 120.732  0.00  0.00    +0.000 A 
ATOM      7  C   UNL     1      -7.254   4.346 119.819  0.00  0.00    +0.000 A 
ATOM      8  N   UNL     1      -5.978   4.609 120.112  0.00  0.00    +0.000 N 
ATOM      9  N   UNL     1      -7.899   4.631 118.660  0.00  0.00    +0.000 NA
ATOM     10  C   UNL     1      -9.125   4.183 118.857  0.00  0.00    +0.000 A 
ATOM     11  N   UNL     1      -9.270   3.625 120.103  0.00  0.00    +0.000 N 
ATOM     12  H   UNL     1      -3.925   4.226 122.546  0.00  0.00    +0.000 HD
ATOM     13  H   UNL     1      -3.634   4.959 121.003  0.00  0.00    +0.000 HD
ATOM     14  H   UNL     1      -5.361   5.061 119.457  0.00  0.00    +0.000 HD
ATOM     15  H   UNL     1     -10.111   3.214 120.490  0.00  0.00    +0.000 HD
ENDROOT
TORSDOF 0
ENDMDL
MODEL 9
REMARK VINA RESULT:      -4.5      2.603      4.443
REMARK  Name = Tioguanine
REMARK  0 active torsions:
REMARK  status: ('A' for Active; 'I' for Inactive)
REMARK                            x       y       z     vdW  Elec       q    Type
REMARK                         _______ _______ _______ _____ _____    ______ ____
ROOT
ATOM      1  N   UNL     1     -11.047   8.804 128.320  0.00  0.00    +0.000 N 
ATOM      2  C   UNL     1     -10.562   7.761 129.030  0.00  0.00    +0.000 A 
ATOM      3  N   UNL     1      -9.391   7.893 129.590  0.00  0.00    +0.000 NA
ATOM      4  C   UNL     1      -8.869   6.843 130.319  0.00  0.00    +0.000 A 
ATOM      5  S   UNL     1      -7.393   6.829 131.105  0.00  0.00    +0.000 S 
ATOM      6  C   UNL     1      -9.704   5.685 130.377  0.00  0.00    +0.000 A 
ATOM      7  C   UNL     1     -10.922   5.623 129.763  0.00  0.00    +0.000 A 
ATOM      8  N   UNL     1     -11.384   6.667 129.071  0.00  0.00    +0.000 N 
ATOM      9  N   UNL     1     -11.542   4.431 129.950  0.00  0.00    +0.000 NA
ATOM     10  C   UNL     1     -10.696   3.743 130.693  0.00  0.00    +0.000 A 
ATOM     11  N   UNL     1      -9.563   4.464 130.977  0.00  0.00    +0.000 N 
ATOM     12  H   UNL     1     -10.474   9.638 128.275  0.00  0.00    +0.000 HD
ATOM     13  H   UNL     1     -11.946   8.820 127.864  0.00  0.00    +0.000 HD
ATOM     14  H   UNL     1     -12.277   6.647 128.606  0.00  0.00    +0.000 HD
ATOM     15  H   UNL     1      -8.770   4.157 131.528  0.00  0.00    +0.000 HD
ENDROOT
TORSDOF 0
ENDMDL
