MODEL 1
REMARK VINA RESULT:      -4.7      0.000      0.000
REMARK  Name = Tiopronin
REMARK  6 active torsions:
REMARK  status: ('A' for Active; 'I' for Inactive)
REMARK    1  A    between atoms: C_1  and  C_2
REMARK    2  A    between atoms: C_2  and  S_3
REMARK    3  A    between atoms: C_2  and  C_4
REMARK    4  A    between atoms: N_6  and  C_7
REMARK    5  A    between atoms: C_7  and  C_8
REMARK    6  A    between atoms: C_8  and  O_9
REMARK                            x       y       z     vdW  Elec       q    Type
REMARK                         _______ _______ _______ _____ _____    ______ ____
ROOT
ATOM      1  C   UNL     1     -10.381   7.383 129.775  0.00  0.00    +0.000 C 
ATOM      2  O   UNL     1      -9.223   7.766 129.632  0.00  0.00    +0.000 OA
ATOM      3  N   UNL     1     -11.342   7.577 128.800  0.00  0.00    +0.000 N 
ATOM      4  H   UNL     1     -12.278   7.298 129.047  0.00  0.00    +0.000 HD
ENDROOT
BRANCH   1   6
ATOM      5  C   UNL     1     -12.317   6.937 131.325  0.00  0.00    +0.000 C 
ATOM      6  C   UNL     1     -10.865   6.605 131.007  0.00  0.00    +0.000 C 
BRANCH   6   7
ATOM      7  S   UNL     1     -10.651   4.804 130.746  0.00  0.00    +0.000 S 
ATOM      8  H   UNL     1     -10.879   4.415 132.012  0.00  0.00    +0.000 HD
ENDBRANCH   6   7
ENDBRANCH   1   6
BRANCH   3   9
ATOM      9  C   UNL     1     -11.017   8.328 127.590  0.00  0.00    +0.000 C 
BRANCH   9  10
ATOM     10  C   UNL     1     -10.649   7.552 126.325  0.00  0.00    +0.000 C 
ATOM     11  O   UNL     1     -10.161   6.428 126.356  0.00  0.00    +0.000 OA
BRANCH  10  12
ATOM     12  O   UNL     1     -10.884   8.168 125.147  0.00  0.00    +0.000 OA
ATOM     13  H   UNL     1     -10.971   9.131 125.167  0.00  0.00    +0.000 HD
ENDBRANCH  10  12
ENDBRANCH   9  10
ENDBRANCH   3   9
TORSDOF 5
ENDMDL
MODEL 2
REMARK VINA RESULT:      -4.5      1.653      2.021
REMARK  Name = Tiopronin
REMARK  6 active torsions:
REMARK  status: ('A' for Active; 'I' for Inactive)
REMARK    1  A    between atoms: C_1  and  C_2
REMARK    2  A    between atoms: C_2  and  S_3
REMARK    3  A    between atoms: C_2  and  C_4
REMARK    4  A    between atoms: N_6  and  C_7
REMARK    5  A    between atoms: C_7  and  C_8
REMARK    6  A    between atoms: C_8  and  O_9
REMARK                            x       y       z     vdW  Elec       q    Type
REMARK                         _______ _______ _______ _____ _____    ______ ____
ROOT
ATOM      1  C   UNL     1     -10.878   6.595 129.464  0.00  0.00    +0.000 C 
ATOM      2  O   UNL     1     -11.909   5.982 129.203  0.00  0.00    +0.000 OA
ATOM      3  N   UNL     1     -10.547   7.778 128.828  0.00  0.00    +0.000 N 
ATOM      4  H   UNL     1      -9.643   8.159 129.057  0.00  0.00    +0.000 HD
ENDROOT
BRANCH   1   6
ATOM      5  C   UNL     1      -8.675   7.073 130.591  0.00  0.00    +0.000 C 
ATOM      6  C   UNL     1      -9.890   6.155 130.554  0.00  0.00    +0.000 C 
BRANCH   6   7
ATOM      7  S   UNL     1     -10.721   6.110 132.187  0.00  0.00    +0.000 S 
ATOM      8  H   UNL     1      -9.622   5.927 132.938  0.00  0.00    +0.000 HD
ENDBRANCH   6   7
ENDBRANCH   1   6
BRANCH   3   9
ATOM      9  C   UNL     1     -11.391   8.291 127.752  0.00  0.00    +0.000 C 
BRANCH   9  10
ATOM     10  C   UNL     1     -11.316   7.618 126.381  0.00  0.00    +0.000 C 
ATOM     11  O   UNL     1     -10.648   8.069 125.457  0.00  0.00    +0.000 OA
BRANCH  10  12
ATOM     12  O   UNL     1     -12.032   6.485 126.223  0.00  0.00    +0.000 OA
ATOM     13  H   UNL     1     -12.725   6.496 125.547  0.00  0.00    +0.000 HD
ENDBRANCH  10  12
ENDBRANCH   9  10
ENDBRANCH   3   9
TORSDOF 5
ENDMDL
MODEL 3
REMARK VINA RESULT:      -4.5      2.923      4.751
REMARK  Name = Tiopronin
REMARK  6 active torsions:
REMARK  status: ('A' for Active; 'I' for Inactive)
REMARK    1  A    between atoms: C_1  and  C_2
REMARK    2  A    between atoms: C_2  and  S_3
REMARK    3  A    between atoms: C_2  and  C_4
REMARK    4  A    between atoms: N_6  and  C_7
REMARK    5  A    between atoms: C_7  and  C_8
REMARK    6  A    between atoms: C_8  and  O_9
REMARK                            x       y       z     vdW  Elec       q    Type
REMARK                         _______ _______ _______ _____ _____    ______ ____
ROOT
ATOM      1  C   UNL     1     -12.259   6.735 129.335  0.00  0.00    +0.000 C 
ATOM      2  O   UNL     1     -12.150   5.518 129.205  0.00  0.00    +0.000 OA
ATOM      3  N   UNL     1     -12.101   7.358 130.559  0.00  0.00    +0.000 N 
ATOM      4  H   UNL     1     -12.290   8.348 130.573  0.00  0.00    +0.000 HD
ENDROOT
BRANCH   1   6
ATOM      5  C   UNL     1     -13.002   9.044 128.652  0.00  0.00    +0.000 C 
ATOM      6  C   UNL     1     -12.515   7.687 128.159  0.00  0.00    +0.000 C 
BRANCH   6   7
ATOM      7  S   UNL     1     -10.999   7.869 127.145  0.00  0.00    +0.000 S 
ATOM      8  H   UNL     1     -10.676   9.114 127.534  0.00  0.00    +0.000 HD
ENDBRANCH   6   7
ENDBRANCH   1   6
BRANCH   3   9
ATOM      9  C   UNL     1     -11.881   6.561 131.764  0.00  0.00    +0.000 C 
BRANCH   9  10
ATOM     10  C   UNL     1     -10.446   6.201 132.148  0.00  0.00    +0.000 C 
ATOM     11  O   UNL     1      -9.469   6.748 131.648  0.00  0.00    +0.000 OA
BRANCH  10  12
ATOM     12  O   UNL     1     -10.292   5.234 133.077  0.00  0.00    +0.000 OA
ATOM     13  H   UNL     1     -10.326   5.508 134.004  0.00  0.00    +0.000 HD
ENDBRANCH  10  12
ENDBRANCH   9  10
ENDBRANCH   3   9
TORSDOF 5
ENDMDL
MODEL 4
REMARK VINA RESULT:      -4.3      2.418      4.613
REMARK  Name = Tiopronin
REMARK  6 active torsions:
REMARK  status: ('A' for Active; 'I' for Inactive)
REMARK    1  A    between atoms: C_1  and  C_2
REMARK    2  A    between atoms: C_2  and  S_3
REMARK    3  A    between atoms: C_2  and  C_4
REMARK    4  A    between atoms: N_6  and  C_7
REMARK    5  A    between atoms: C_7  and  C_8
REMARK    6  A    between atoms: C_8  and  O_9
REMARK                            x       y       z     vdW  Elec       q    Type
REMARK                         _______ _______ _______ _____ _____    ______ ____
ROOT
ATOM      1  C   UNL     1     -10.676   7.618 128.690  0.00  0.00    +0.000 C 
ATOM      2  O   UNL     1      -9.660   8.239 128.991  0.00  0.00    +0.000 OA
ATOM      3  N   UNL     1     -11.087   6.500 129.393  0.00  0.00    +0.000 N 
ATOM      4  H   UNL     1     -11.887   6.017 129.017  0.00  0.00    +0.000 HD
ENDROOT
BRANCH   1   6
ATOM      5  C   UNL     1     -11.084   7.604 126.203  0.00  0.00    +0.000 C 
ATOM      6  C   UNL     1     -11.621   8.047 127.559  0.00  0.00    +0.000 C 
BRANCH   6   7
ATOM      7  S   UNL     1     -13.302   7.374 127.844  0.00  0.00    +0.000 S 
ATOM      8  H   UNL     1     -13.159   7.093 129.150  0.00  0.00    +0.000 HD
ENDBRANCH   6   7
ENDBRANCH   1   6
BRANCH   3   9
ATOM      9  C   UNL     1     -10.261   5.972 130.477  0.00  0.00    +0.000 C 
BRANCH   9  10
ATOM     10  C   UNL     1     -10.736   6.166 131.917  0.00  0.00    +0.000 C 
ATOM     11  O   UNL     1      -9.964   6.375 132.847  0.00  0.00    +0.000 OA
BRANCH  10  12
ATOM     12  O   UNL     1     -12.067   6.093 132.131  0.00  0.00    +0.000 OA
ATOM     13  H   UNL     1     -12.635   6.588 131.524  0.00  0.00    +0.000 HD
ENDBRANCH  10  12
ENDBRANCH   9  10
ENDBRANCH   3   9
TORSDOF 5
ENDMDL
MODEL 5
REMARK VINA RESULT:      -4.1      2.745      4.245
REMARK  Name = Tiopronin
REMARK  6 active torsions:
REMARK  status: ('A' for Active; 'I' for Inactive)
REMARK    1  A    between atoms: C_1  and  C_2
REMARK    2  A    between atoms: C_2  and  S_3
REMARK    3  A    between atoms: C_2  and  C_4
REMARK    4  A    between atoms: N_6  and  C_7
REMARK    5  A    between atoms: C_7  and  C_8
REMARK    6  A    between atoms: C_8  and  O_9
REMARK                            x       y       z     vdW  Elec       q    Type
REMARK                         _______ _______ _______ _____ _____    ______ ____
ROOT
ATOM      1  C   UNL     1     -10.401   7.550 129.366  0.00  0.00    +0.000 C 
ATOM      2  O   UNL     1      -9.236   7.618 129.747  0.00  0.00    +0.000 OA
ATOM      3  N   UNL     1     -11.294   6.637 129.896  0.00  0.00    +0.000 N 
ATOM      4  H   UNL     1     -12.202   6.609 129.459  0.00  0.00    +0.000 HD
ENDROOT
BRANCH   1   6
ATOM      5  C   UNL     1     -10.948   7.884 126.928  0.00  0.00    +0.000 C 
ATOM      6  C   UNL     1     -11.002   8.500 128.320  0.00  0.00    +0.000 C 
BRANCH   6   7
ATOM      7  S   UNL     1     -12.723   8.938 128.771  0.00  0.00    +0.000 S 
ATOM      8  H   UNL     1     -12.521   9.111 130.088  0.00  0.00    +0.000 HD
ENDBRANCH   6   7
ENDBRANCH   1   6
BRANCH   3   9
ATOM      9  C   UNL     1     -10.841   5.657 130.880  0.00  0.00    +0.000 C 
BRANCH   9  10
ATOM     10  C   UNL     1     -10.446   4.262 130.394  0.00  0.00    +0.000 C 
ATOM     11  O   UNL     1      -9.596   4.079 129.529  0.00  0.00    +0.000 OA
BRANCH  10  12
ATOM     12  O   UNL     1     -11.086   3.219 130.962  0.00  0.00    +0.000 OA
ATOM     13  H   UNL     1     -11.846   2.859 130.483  0.00  0.00    +0.000 HD
ENDBRANCH  10  12
ENDBRANCH   9  10
ENDBRANCH   3   9
TORSDOF 5
ENDMDL
MODEL 6
REMARK VINA RESULT:      -3.9      2.508      3.223
REMARK  Name = Tiopronin
REMARK  6 active torsions:
REMARK  status: ('A' for Active; 'I' for Inactive)
REMARK    1  A    between atoms: C_1  and  C_2
REMARK    2  A    between atoms: C_2  and  S_3
REMARK    3  A    between atoms: C_2  and  C_4
REMARK    4  A    between atoms: N_6  and  C_7
REMARK    5  A    between atoms: C_7  and  C_8
REMARK    6  A    between atoms: C_8  and  O_9
REMARK                            x       y       z     vdW  Elec       q    Type
REMARK                         _______ _______ _______ _____ _____    ______ ____
ROOT
ATOM      1  C   UNL     1     -10.523   6.449 130.005  0.00  0.00    +0.000 C 
ATOM      2  O   UNL     1     -10.625   6.233 128.800  0.00  0.00    +0.000 OA
ATOM      3  N   UNL     1     -11.515   7.096 130.719  0.00  0.00    +0.000 N 
ATOM      4  H   UNL     1     -11.301   7.295 131.683  0.00  0.00    +0.000 HD
ENDROOT
BRANCH   1   6
ATOM      5  C   UNL     1      -8.188   6.982 130.789  0.00  0.00    +0.000 C 
ATOM      6  C   UNL     1      -9.331   5.976 130.848  0.00  0.00    +0.000 C 
BRANCH   6   7
ATOM      7  S   UNL     1      -9.853   5.686 132.581  0.00  0.00    +0.000 S 
ATOM      8  H   UNL     1     -10.714   4.683 132.339  0.00  0.00    +0.000 HD
ENDBRANCH   6   7
ENDBRANCH   1   6
BRANCH   3   9
ATOM      9  C   UNL     1     -12.691   7.621 130.028  0.00  0.00    +0.000 C 
BRANCH   9  10
ATOM     10  C   UNL     1     -12.595   8.993 129.362  0.00  0.00    +0.000 C 
ATOM     11  O   UNL     1     -13.111   9.999 129.838  0.00  0.00    +0.000 OA
BRANCH  10  12
ATOM     12  O   UNL     1     -11.907   9.057 128.202  0.00  0.00    +0.000 OA
ATOM     13  H   UNL     1     -11.105   8.520 128.140  0.00  0.00    +0.000 HD
ENDBRANCH  10  12
ENDBRANCH   9  10
ENDBRANCH   3   9
TORSDOF 5
ENDMDL
MODEL 7
REMARK VINA RESULT:      -3.9      8.244      9.185
REMARK  Name = Tiopronin
REMARK  6 active torsions:
REMARK  status: ('A' for Active; 'I' for Inactive)
REMARK    1  A    between atoms: C_1  and  C_2
REMARK    2  A    between atoms: C_2  and  S_3
REMARK    3  A    between atoms: C_2  and  C_4
REMARK    4  A    between atoms: N_6  and  C_7
REMARK    5  A    between atoms: C_7  and  C_8
REMARK    6  A    between atoms: C_8  and  O_9
REMARK                            x       y       z     vdW  Elec       q    Type
REMARK                         _______ _______ _______ _____ _____    ______ ____
ROOT
ATOM      1  C   UNL     1      -7.412   2.699 122.556  0.00  0.00    +0.000 C 
ATOM      2  O   UNL     1      -6.703   1.921 123.189  0.00  0.00    +0.000 OA
ATOM      3  N   UNL     1      -8.771   2.808 122.790  0.00  0.00    +0.000 N 
ATOM      4  H   UNL     1      -9.275   3.416 122.164  0.00  0.00    +0.000 HD
ENDROOT
BRANCH   1   6
ATOM      5  C   UNL     1      -5.562   3.146 120.905  0.00  0.00    +0.000 C 
ATOM      6  C   UNL     1      -6.864   3.667 121.498  0.00  0.00    +0.000 C 
BRANCH   6   7
ATOM      7  S   UNL     1      -8.112   3.946 120.185  0.00  0.00    +0.000 S 
ATOM      8  H   UNL     1      -9.158   3.385 120.815  0.00  0.00    +0.000 HD
ENDBRANCH   6   7
ENDBRANCH   1   6
BRANCH   3   9
ATOM      9  C   UNL     1      -9.421   1.923 123.754  0.00  0.00    +0.000 C 
BRANCH   9  10
ATOM     10  C   UNL     1     -10.641   1.121 123.302  0.00  0.00    +0.000 C 
ATOM     11  O   UNL     1     -10.600   0.316 122.377  0.00  0.00    +0.000 OA
BRANCH  10  12
ATOM     12  O   UNL     1     -11.793   1.342 123.971  0.00  0.00    +0.000 OA
ATOM     13  H   UNL     1     -11.897   0.894 124.822  0.00  0.00    +0.000 HD
ENDBRANCH  10  12
ENDBRANCH   9  10
ENDBRANCH   3   9
TORSDOF 5
ENDMDL
MODEL 8
REMARK VINA RESULT:      -3.9      3.387      4.568
REMARK  Name = Tiopronin
REMARK  6 active torsions:
REMARK  status: ('A' for Active; 'I' for Inactive)
REMARK    1  A    between atoms: C_1  and  C_2
REMARK    2  A    between atoms: C_2  and  S_3
REMARK    3  A    between atoms: C_2  and  C_4
REMARK    4  A    between atoms: N_6  and  C_7
REMARK    5  A    between atoms: C_7  and  C_8
REMARK    6  A    between atoms: C_8  and  O_9
REMARK                            x       y       z     vdW  Elec       q    Type
REMARK                         _______ _______ _______ _____ _____    ______ ____
ROOT
ATOM      1  C   UNL     1     -11.570   6.215 129.976  0.00  0.00    +0.000 C 
ATOM      2  O   UNL     1     -10.855   6.142 128.980  0.00  0.00    +0.000 OA
ATOM      3  N   UNL     1     -11.240   5.584 131.162  0.00  0.00    +0.000 N 
ATOM      4  H   UNL     1     -11.930   5.640 131.893  0.00  0.00    +0.000 HD
ENDROOT
BRANCH   1   6
ATOM      5  C   UNL     1     -13.027   7.697 131.402  0.00  0.00    +0.000 C 
ATOM      6  C   UNL     1     -12.854   7.053 130.032  0.00  0.00    +0.000 C 
BRANCH   6   7
ATOM      7  S   UNL     1     -12.843   8.324 128.712  0.00  0.00    +0.000 S 
ATOM      8  H   UNL     1     -13.624   7.672 127.834  0.00  0.00    +0.000 HD
ENDBRANCH   6   7
ENDBRANCH   1   6
BRANCH   3   9
ATOM      9  C   UNL     1     -10.054   4.733 131.233  0.00  0.00    +0.000 C 
BRANCH   9  10
ATOM     10  C   UNL     1     -10.160   3.291 130.735  0.00  0.00    +0.000 C 
ATOM     11  O   UNL     1      -9.850   2.959 129.596  0.00  0.00    +0.000 OA
BRANCH  10  12
ATOM     12  O   UNL     1     -10.623   2.379 131.615  0.00  0.00    +0.000 OA
ATOM     13  H   UNL     1     -11.069   2.719 132.403  0.00  0.00    +0.000 HD
ENDBRANCH  10  12
ENDBRANCH   9  10
ENDBRANCH   3   9
TORSDOF 5
ENDMDL
MODEL 9
REMARK VINA RESULT:      -3.8      3.983      5.719
REMARK  Name = Tiopronin
REMARK  6 active torsions:
REMARK  status: ('A' for Active; 'I' for Inactive)
REMARK    1  A    between atoms: C_1  and  C_2
REMARK    2  A    between atoms: C_2  and  S_3
REMARK    3  A    between atoms: C_2  and  C_4
REMARK    4  A    between atoms: N_6  and  C_7
REMARK    5  A    between atoms: C_7  and  C_8
REMARK    6  A    between atoms: C_8  and  O_9
REMARK                            x       y       z     vdW  Elec       q    Type
REMARK                         _______ _______ _______ _____ _____    ______ ____
ROOT
ATOM      1  C   UNL     1     -10.952   4.888 130.529  0.00  0.00    +0.000 C 
ATOM      2  O   UNL     1     -11.432   3.836 130.115  0.00  0.00    +0.000 OA
ATOM      3  N   UNL     1      -9.771   4.921 131.248  0.00  0.00    +0.000 N 
ATOM      4  H   UNL     1      -9.504   5.822 131.610  0.00  0.00    +0.000 HD
ENDROOT
BRANCH   1   6
ATOM      5  C   UNL     1     -12.199   6.849 131.503  0.00  0.00    +0.000 C 
ATOM      6  C   UNL     1     -11.568   6.264 130.246  0.00  0.00    +0.000 C 
BRANCH   6   7
ATOM      7  S   UNL     1     -10.301   7.401 129.565  0.00  0.00    +0.000 S 
ATOM      8  H   UNL     1      -9.415   7.297 130.570  0.00  0.00    +0.000 HD
ENDBRANCH   6   7
ENDBRANCH   1   6
BRANCH   3   9
ATOM      9  C   UNL     1      -9.098   3.675 131.608  0.00  0.00    +0.000 C 
BRANCH   9  10
ATOM     10  C   UNL     1      -9.141   3.217 133.067  0.00  0.00    +0.000 C 
ATOM     11  O   UNL     1      -8.504   2.254 133.478  0.00  0.00    +0.000 OA
BRANCH  10  12
ATOM     12  O   UNL     1      -9.929   3.928 133.901  0.00  0.00    +0.000 OA
ATOM     13  H   UNL     1      -9.608   4.802 134.166  0.00  0.00    +0.000 HD
ENDBRANCH  10  12
ENDBRANCH   9  10
ENDBRANCH   3   9
TORSDOF 5
ENDMDL
