MODEL 1
REMARK VINA RESULT:      -7.1      0.000      0.000
REMARK  Name = Tiotropium
REMARK  8 active torsions:
REMARK  status: ('A' for Active; 'I' for Inactive)
REMARK    1  A    between atoms: C_9  and  O_17
REMARK    2  A    between atoms: N_14  and  C_15
REMARK    3  A    between atoms: N_14  and  C_16
REMARK    4  A    between atoms: O_17  and  C_18
REMARK    5  A    between atoms: C_18  and  C_20
REMARK    6  A    between atoms: C_20  and  O_21
REMARK    7  A    between atoms: C_20  and  C_22
REMARK    8  A    between atoms: C_20  and  C_27
REMARK                            x       y       z     vdW  Elec       q    Type
REMARK                         _______ _______ _______ _____ _____    ______ ____
ROOT
ATOM      1  C   UNL     1      -8.667   4.863 129.281  0.00  0.00    +0.000 C 
ATOM      2  O   UNL     1      -7.580   5.389 129.130  0.00  0.00    +0.000 OA
ENDROOT
BRANCH   1   3
ATOM      3  O   UNL     1      -9.818   5.425 128.790  0.00  0.00    +0.000 OA
BRANCH   3   9
ATOM      4  C   UNL     1     -12.311   6.930 127.286  0.00  0.00    +0.000 C 
ATOM      5  O   UNL     1     -10.958   6.588 127.020  0.00  0.00    +0.000 OA
ATOM      6  C   UNL     1     -11.173   7.970 127.231  0.00  0.00    +0.000 C 
ATOM      7  C   UNL     1     -11.079   8.534 128.641  0.00  0.00    +0.000 C 
ATOM      8  C   UNL     1     -10.118   7.706 129.518  0.00  0.00    +0.000 C 
ATOM      9  C   UNL     1     -10.557   6.238 129.736  0.00  0.00    +0.000 C 
ATOM     10  C   UNL     1     -12.086   6.001 129.623  0.00  0.00    +0.000 C 
ATOM     11  C   UNL     1     -12.822   6.978 128.721  0.00  0.00    +0.000 C 
ATOM     12  N   UNL     1     -12.525   8.410 129.170  0.00  0.00    +0.000 N 
ATOM     13  C   UNL     1     -13.452   9.354 128.370  0.00  0.00    +0.000 C 
ATOM     14  C   UNL     1     -12.730   8.697 130.636  0.00  0.00    +0.000 C 
ENDBRANCH   3   9
ENDBRANCH   1   3
BRANCH   1  15
ATOM     15  C   UNL     1      -8.958   3.535 130.052  0.00  0.00    +0.000 C 
BRANCH  15  16
ATOM     16  C   UNL     1      -7.959   2.484 129.588  0.00  0.00    +0.000 A 
ATOM     17  C   UNL     1      -6.795   2.050 130.201  0.00  0.00    +0.000 A 
ATOM     18  C   UNL     1      -6.110   1.060 129.440  0.00  0.00    +0.000 A 
ATOM     19  C   UNL     1      -6.760   0.763 128.267  0.00  0.00    +0.000 A 
ATOM     20  S   UNL     1      -8.222   1.611 128.119  0.00  0.00    +0.000 S 
ENDBRANCH  15  16
BRANCH  15  21
ATOM     21  C   UNL     1      -8.827   3.843 131.538  0.00  0.00    +0.000 A 
ATOM     22  C   UNL     1      -9.418   3.116 132.565  0.00  0.00    +0.000 A 
ATOM     23  C   UNL     1      -9.163   3.632 133.850  0.00  0.00    +0.000 A 
ATOM     24  C   UNL     1      -8.357   4.741 133.792  0.00  0.00    +0.000 A 
ATOM     25  S   UNL     1      -7.917   5.145 132.185  0.00  0.00    +0.000 S 
ENDBRANCH  15  21
BRANCH  15  26
ATOM     26  O   UNL     1     -10.279   3.048 129.787  0.00  0.00    +0.000 OA
ATOM     27  H   UNL     1     -10.264   2.631 128.909  0.00  0.00    +0.000 HD
ENDBRANCH  15  26
ENDBRANCH   1  15
TORSDOF 6
ENDMDL
MODEL 2
REMARK VINA RESULT:      -7.1      5.856      7.781
REMARK  Name = Tiotropium
REMARK  8 active torsions:
REMARK  status: ('A' for Active; 'I' for Inactive)
REMARK    1  A    between atoms: C_9  and  O_17
REMARK    2  A    between atoms: N_14  and  C_15
REMARK    3  A    between atoms: N_14  and  C_16
REMARK    4  A    between atoms: O_17  and  C_18
REMARK    5  A    between atoms: C_18  and  C_20
REMARK    6  A    between atoms: C_20  and  O_21
REMARK    7  A    between atoms: C_20  and  C_22
REMARK    8  A    between atoms: C_20  and  C_27
REMARK                            x       y       z     vdW  Elec       q    Type
REMARK                         _______ _______ _______ _____ _____    ______ ____
ROOT
ATOM      1  C   UNL     1      -9.028  -0.478 125.572  0.00  0.00    +0.000 C 
ATOM      2  O   UNL     1     -10.122   0.055 125.571  0.00  0.00    +0.000 OA
ENDROOT
BRANCH   1   3
ATOM      3  O   UNL     1      -7.868   0.249 125.660  0.00  0.00    +0.000 OA
BRANCH   3   9
ATOM      4  C   UNL     1      -4.988   1.768 126.043  0.00  0.00    +0.000 C 
ATOM      5  O   UNL     1      -5.741   0.739 126.670  0.00  0.00    +0.000 OA
ATOM      6  C   UNL     1      -5.675   1.941 127.413  0.00  0.00    +0.000 C 
ATOM      7  C   UNL     1      -6.735   3.012 127.196  0.00  0.00    +0.000 C 
ATOM      8  C   UNL     1      -8.073   2.397 126.738  0.00  0.00    +0.000 C 
ATOM      9  C   UNL     1      -8.006   1.663 125.377  0.00  0.00    +0.000 C 
ATOM     10  C   UNL     1      -6.887   2.169 124.428  0.00  0.00    +0.000 C 
ATOM     11  C   UNL     1      -5.678   2.770 125.125  0.00  0.00    +0.000 C 
ATOM     12  N   UNL     1      -6.134   3.883 126.070  0.00  0.00    +0.000 N 
ATOM     13  C   UNL     1      -4.868   4.602 126.592  0.00  0.00    +0.000 C 
ATOM     14  C   UNL     1      -7.043   4.926 125.471  0.00  0.00    +0.000 C 
ENDBRANCH   3   9
ENDBRANCH   1   3
BRANCH   1  15
ATOM     15  C   UNL     1      -8.740  -2.009 125.445  0.00  0.00    +0.000 C 
BRANCH  15  16
ATOM     16  C   UNL     1      -7.511  -2.193 124.566  0.00  0.00    +0.000 A 
ATOM     17  C   UNL     1      -6.262  -2.692 124.897  0.00  0.00    +0.000 A 
ATOM     18  C   UNL     1      -5.358  -2.685 123.797  0.00  0.00    +0.000 A 
ATOM     19  C   UNL     1      -5.931  -2.181 122.655  0.00  0.00    +0.000 A 
ATOM     20  S   UNL     1      -7.567  -1.792 122.885  0.00  0.00    +0.000 S 
ENDBRANCH  15  16
BRANCH  15  21
ATOM     21  C   UNL     1      -8.529  -2.543 126.856  0.00  0.00    +0.000 A 
ATOM     22  C   UNL     1      -8.946  -3.786 127.317  0.00  0.00    +0.000 A 
ATOM     23  C   UNL     1      -8.652  -4.021 128.673  0.00  0.00    +0.000 A 
ATOM     24  C   UNL     1      -7.989  -2.957 129.232  0.00  0.00    +0.000 A 
ATOM     25  S   UNL     1      -7.729  -1.688 128.110  0.00  0.00    +0.000 S 
ENDBRANCH  15  21
BRANCH  15  26
ATOM     26  O   UNL     1      -9.836  -2.704 124.839  0.00  0.00    +0.000 OA
ATOM     27  H   UNL     1      -9.950  -2.342 123.943  0.00  0.00    +0.000 HD
ENDBRANCH  15  26
ENDBRANCH   1  15
TORSDOF 6
ENDMDL
MODEL 3
REMARK VINA RESULT:      -7.0      2.741      6.257
REMARK  Name = Tiotropium
REMARK  8 active torsions:
REMARK  status: ('A' for Active; 'I' for Inactive)
REMARK    1  A    between atoms: C_9  and  O_17
REMARK    2  A    between atoms: N_14  and  C_15
REMARK    3  A    between atoms: N_14  and  C_16
REMARK    4  A    between atoms: O_17  and  C_18
REMARK    5  A    between atoms: C_18  and  C_20
REMARK    6  A    between atoms: C_20  and  O_21
REMARK    7  A    between atoms: C_20  and  C_22
REMARK    8  A    between atoms: C_20  and  C_27
REMARK                            x       y       z     vdW  Elec       q    Type
REMARK                         _______ _______ _______ _____ _____    ______ ____
ROOT
ATOM      1  C   UNL     1     -10.620   4.442 130.219  0.00  0.00    +0.000 C 
ATOM      2  O   UNL     1     -11.549   3.658 130.165  0.00  0.00    +0.000 OA
ENDROOT
BRANCH   1   3
ATOM      3  O   UNL     1      -9.429   4.197 129.586  0.00  0.00    +0.000 OA
BRANCH   3   9
ATOM      4  C   UNL     1      -6.270   4.122 128.711  0.00  0.00    +0.000 C 
ATOM      5  O   UNL     1      -7.487   4.701 128.259  0.00  0.00    +0.000 OA
ATOM      6  C   UNL     1      -7.010   3.650 127.442  0.00  0.00    +0.000 C 
ATOM      7  C   UNL     1      -7.439   2.220 127.739  0.00  0.00    +0.000 C 
ATOM      8  C   UNL     1      -8.823   2.175 128.418  0.00  0.00    +0.000 C 
ATOM      9  C   UNL     1      -8.881   2.872 129.799  0.00  0.00    +0.000 C 
ATOM     10  C   UNL     1      -7.523   2.927 130.549  0.00  0.00    +0.000 C 
ATOM     11  C   UNL     1      -6.295   2.925 129.653  0.00  0.00    +0.000 C 
ATOM     12  N   UNL     1      -6.350   1.719 128.714  0.00  0.00    +0.000 N 
ATOM     13  C   UNL     1      -4.993   1.636 127.977  0.00  0.00    +0.000 C 
ATOM     14  C   UNL     1      -6.599   0.384 129.370  0.00  0.00    +0.000 C 
ENDBRANCH   3   9
ENDBRANCH   1   3
BRANCH   1  15
ATOM     15  C   UNL     1     -10.588   5.792 131.006  0.00  0.00    +0.000 C 
BRANCH  15  16
ATOM     16  C   UNL     1      -9.148   6.076 131.409  0.00  0.00    +0.000 A 
ATOM     17  C   UNL     1      -8.191   6.844 130.765  0.00  0.00    +0.000 A 
ATOM     18  C   UNL     1      -6.942   6.850 131.446  0.00  0.00    +0.000 A 
ATOM     19  C   UNL     1      -6.967   6.087 132.589  0.00  0.00    +0.000 A 
ATOM     20  S   UNL     1      -8.506   5.434 132.880  0.00  0.00    +0.000 S 
ENDBRANCH  15  16
BRANCH  15  21
ATOM     21  C   UNL     1     -11.152   6.862 130.080  0.00  0.00    +0.000 A 
ATOM     22  C   UNL     1     -12.144   7.775 130.417  0.00  0.00    +0.000 A 
ATOM     23  C   UNL     1     -12.507   8.639 129.366  0.00  0.00    +0.000 A 
ATOM     24  C   UNL     1     -11.767   8.389 128.237  0.00  0.00    +0.000 A 
ATOM     25  S   UNL     1     -10.643   7.115 128.462  0.00  0.00    +0.000 S 
ENDBRANCH  15  21
BRANCH  15  26
ATOM     26  O   UNL     1     -11.385   5.731 132.194  0.00  0.00    +0.000 OA
ATOM     27  H   UNL     1     -11.857   4.881 132.184  0.00  0.00    +0.000 HD
ENDBRANCH  15  26
ENDBRANCH   1  15
TORSDOF 6
ENDMDL
MODEL 4
REMARK VINA RESULT:      -7.0      1.013      3.386
REMARK  Name = Tiotropium
REMARK  8 active torsions:
REMARK  status: ('A' for Active; 'I' for Inactive)
REMARK    1  A    between atoms: C_9  and  O_17
REMARK    2  A    between atoms: N_14  and  C_15
REMARK    3  A    between atoms: N_14  and  C_16
REMARK    4  A    between atoms: O_17  and  C_18
REMARK    5  A    between atoms: C_18  and  C_20
REMARK    6  A    between atoms: C_20  and  O_21
REMARK    7  A    between atoms: C_20  and  C_22
REMARK    8  A    between atoms: C_20  and  C_27
REMARK                            x       y       z     vdW  Elec       q    Type
REMARK                         _______ _______ _______ _____ _____    ______ ____
ROOT
ATOM      1  C   UNL     1      -8.946   4.187 129.453  0.00  0.00    +0.000 C 
ATOM      2  O   UNL     1      -9.452   3.116 129.173  0.00  0.00    +0.000 OA
ENDROOT
BRANCH   1   3
ATOM      3  O   UNL     1      -9.458   5.372 128.991  0.00  0.00    +0.000 OA
BRANCH   3   9
ATOM      4  C   UNL     1     -11.852   6.860 127.316  0.00  0.00    +0.000 C 
ATOM      5  O   UNL     1     -10.456   6.625 127.196  0.00  0.00    +0.000 OA
ATOM      6  C   UNL     1     -10.791   7.966 127.494  0.00  0.00    +0.000 C 
ATOM      7  C   UNL     1     -10.908   8.401 128.947  0.00  0.00    +0.000 C 
ATOM      8  C   UNL     1     -10.004   7.554 129.865  0.00  0.00    +0.000 C 
ATOM      9  C   UNL     1     -10.361   6.048 129.901  0.00  0.00    +0.000 C 
ATOM     10  C   UNL     1     -11.845   5.732 129.575  0.00  0.00    +0.000 C 
ATOM     11  C   UNL     1     -12.534   6.744 128.674  0.00  0.00    +0.000 C 
ATOM     12  N   UNL     1     -12.395   8.142 129.277  0.00  0.00    +0.000 N 
ATOM     13  C   UNL     1     -13.283   9.101 128.449  0.00  0.00    +0.000 C 
ATOM     14  C   UNL     1     -12.795   8.279 130.725  0.00  0.00    +0.000 C 
ENDBRANCH   3   9
ENDBRANCH   1   3
BRANCH   1  15
ATOM     15  C   UNL     1      -7.663   4.411 130.316  0.00  0.00    +0.000 C 
BRANCH  15  16
ATOM     16  C   UNL     1      -8.049   4.299 131.784  0.00  0.00    +0.000 A 
ATOM     17  C   UNL     1      -9.082   3.583 132.368  0.00  0.00    +0.000 A 
ATOM     18  C   UNL     1      -9.135   3.748 133.781  0.00  0.00    +0.000 A 
ATOM     19  C   UNL     1      -8.149   4.584 134.245  0.00  0.00    +0.000 A 
ATOM     20  S   UNL     1      -7.120   5.104 133.000  0.00  0.00    +0.000 S 
ENDBRANCH  15  16
BRANCH  15  21
ATOM     21  C   UNL     1      -6.653   3.350 129.900  0.00  0.00    +0.000 A 
ATOM     22  C   UNL     1      -6.305   2.232 130.649  0.00  0.00    +0.000 A 
ATOM     23  C   UNL     1      -5.322   1.424 130.048  0.00  0.00    +0.000 A 
ATOM     24  C   UNL     1      -4.942   1.924 128.827  0.00  0.00    +0.000 A 
ATOM     25  S   UNL     1      -5.780   3.364 128.423  0.00  0.00    +0.000 S 
ENDBRANCH  15  21
BRANCH  15  26
ATOM     26  O   UNL     1      -7.098   5.709 130.097  0.00  0.00    +0.000 OA
ATOM     27  H   UNL     1      -6.828   5.755 129.163  0.00  0.00    +0.000 HD
ENDBRANCH  15  26
ENDBRANCH   1  15
TORSDOF 6
ENDMDL
MODEL 5
REMARK VINA RESULT:      -6.9      3.253      6.621
REMARK  Name = Tiotropium
REMARK  8 active torsions:
REMARK  status: ('A' for Active; 'I' for Inactive)
REMARK    1  A    between atoms: C_9  and  O_17
REMARK    2  A    between atoms: N_14  and  C_15
REMARK    3  A    between atoms: N_14  and  C_16
REMARK    4  A    between atoms: O_17  and  C_18
REMARK    5  A    between atoms: C_18  and  C_20
REMARK    6  A    between atoms: C_20  and  O_21
REMARK    7  A    between atoms: C_20  and  C_22
REMARK    8  A    between atoms: C_20  and  C_27
REMARK                            x       y       z     vdW  Elec       q    Type
REMARK                         _______ _______ _______ _____ _____    ______ ____
ROOT
ATOM      1  C   UNL     1      -8.499   5.091 129.540  0.00  0.00    +0.000 C 
ATOM      2  O   UNL     1      -9.342   4.410 128.986  0.00  0.00    +0.000 OA
ENDROOT
BRANCH   1   3
ATOM      3  O   UNL     1      -7.173   5.022 129.196  0.00  0.00    +0.000 OA
BRANCH   3   9
ATOM      4  C   UNL     1      -3.906   4.786 129.051  0.00  0.00    +0.000 C 
ATOM      5  O   UNL     1      -4.905   5.794 128.977  0.00  0.00    +0.000 OA
ATOM      6  C   UNL     1      -4.276   5.511 127.741  0.00  0.00    +0.000 C 
ATOM      7  C   UNL     1      -4.856   4.432 126.838  0.00  0.00    +0.000 C 
ATOM      8  C   UNL     1      -6.377   4.280 127.043  0.00  0.00    +0.000 C 
ATOM      9  C   UNL     1      -6.788   3.831 128.466  0.00  0.00    +0.000 C 
ATOM     10  C   UNL     1      -5.702   3.020 129.222  0.00  0.00    +0.000 C 
ATOM     11  C   UNL     1      -4.271   3.326 128.813  0.00  0.00    +0.000 C 
ATOM     12  N   UNL     1      -4.124   3.152 127.300  0.00  0.00    +0.000 N 
ATOM     13  C   UNL     1      -2.620   3.263 126.959  0.00  0.00    +0.000 C 
ATOM     14  C   UNL     1      -4.630   1.849 126.734  0.00  0.00    +0.000 C 
ENDBRANCH   3   9
ENDBRANCH   1   3
BRANCH   1  15
ATOM     15  C   UNL     1      -8.738   6.096 130.712  0.00  0.00    +0.000 C 
BRANCH  15  16
ATOM     16  C   UNL     1     -10.130   6.692 130.553  0.00  0.00    +0.000 A 
ATOM     17  C   UNL     1     -11.253   6.525 131.347  0.00  0.00    +0.000 A 
ATOM     18  C   UNL     1     -12.384   7.235 130.855  0.00  0.00    +0.000 A 
ATOM     19  C   UNL     1     -12.106   7.923 129.699  0.00  0.00    +0.000 A 
ATOM     20  S   UNL     1     -10.475   7.780 129.254  0.00  0.00    +0.000 S 
ENDBRANCH  15  16
BRANCH  15  21
ATOM     21  C   UNL     1      -8.589   5.313 132.010  0.00  0.00    +0.000 A 
ATOM     22  C   UNL     1      -8.194   5.847 133.231  0.00  0.00    +0.000 A 
ATOM     23  C   UNL     1      -8.106   4.899 134.268  0.00  0.00    +0.000 A 
ATOM     24  C   UNL     1      -8.459   3.647 133.831  0.00  0.00    +0.000 A 
ATOM     25  S   UNL     1      -8.892   3.632 132.173  0.00  0.00    +0.000 S 
ENDBRANCH  15  21
BRANCH  15  26
ATOM     26  O   UNL     1      -7.786   7.165 130.696  0.00  0.00    +0.000 OA
ATOM     27  H   UNL     1      -7.664   7.460 131.615  0.00  0.00    +0.000 HD
ENDBRANCH  15  26
ENDBRANCH   1  15
TORSDOF 6
ENDMDL
MODEL 6
REMARK VINA RESULT:      -6.9      3.645      6.461
REMARK  Name = Tiotropium
REMARK  8 active torsions:
REMARK  status: ('A' for Active; 'I' for Inactive)
REMARK    1  A    between atoms: C_9  and  O_17
REMARK    2  A    between atoms: N_14  and  C_15
REMARK    3  A    between atoms: N_14  and  C_16
REMARK    4  A    between atoms: O_17  and  C_18
REMARK    5  A    between atoms: C_18  and  C_20
REMARK    6  A    between atoms: C_20  and  O_21
REMARK    7  A    between atoms: C_20  and  C_22
REMARK    8  A    between atoms: C_20  and  C_27
REMARK                            x       y       z     vdW  Elec       q    Type
REMARK                         _______ _______ _______ _____ _____    ______ ____
ROOT
ATOM      1  C   UNL     1      -8.452   6.556 130.374  0.00  0.00    +0.000 C 
ATOM      2  O   UNL     1      -8.583   7.761 130.264  0.00  0.00    +0.000 OA
ENDROOT
BRANCH   1   3
ATOM      3  O   UNL     1      -7.218   5.971 130.499  0.00  0.00    +0.000 OA
BRANCH   3   9
ATOM      4  C   UNL     1      -4.190   4.840 129.953  0.00  0.00    +0.000 C 
ATOM      5  O   UNL     1      -5.504   4.327 130.119  0.00  0.00    +0.000 OA
ATOM      6  C   UNL     1      -4.643   4.073 131.212  0.00  0.00    +0.000 C 
ATOM      7  C   UNL     1      -4.558   5.083 132.347  0.00  0.00    +0.000 C 
ATOM      8  C   UNL     1      -5.875   5.872 132.500  0.00  0.00    +0.000 C 
ATOM      9  C   UNL     1      -6.253   6.730 131.269  0.00  0.00    +0.000 C 
ATOM     10  C   UNL     1      -5.046   7.173 130.399  0.00  0.00    +0.000 C 
ATOM     11  C   UNL     1      -3.846   6.241 130.444  0.00  0.00    +0.000 C 
ATOM     12  N   UNL     1      -3.420   6.027 131.898  0.00  0.00    +0.000 N 
ATOM     13  C   UNL     1      -2.081   5.254 131.885  0.00  0.00    +0.000 C 
ATOM     14  C   UNL     1      -3.223   7.278 132.718  0.00  0.00    +0.000 C 
ENDBRANCH   3   9
ENDBRANCH   1   3
BRANCH   1  15
ATOM     15  C   UNL     1      -9.596   5.491 130.359  0.00  0.00    +0.000 C 
BRANCH  15  16
ATOM     16  C   UNL     1      -9.448   4.614 131.594  0.00  0.00    +0.000 A 
ATOM     17  C   UNL     1      -9.324   4.984 132.924  0.00  0.00    +0.000 A 
ATOM     18  C   UNL     1      -9.182   3.866 133.794  0.00  0.00    +0.000 A 
ATOM     19  C   UNL     1      -9.197   2.672 133.115  0.00  0.00    +0.000 A 
ATOM     20  S   UNL     1      -9.459   2.891 131.453  0.00  0.00    +0.000 S 
ENDBRANCH  15  16
BRANCH  15  21
ATOM     21  C   UNL     1     -10.915   6.252 130.343  0.00  0.00    +0.000 A 
ATOM     22  C   UNL     1     -11.641   6.625 131.468  0.00  0.00    +0.000 A 
ATOM     23  C   UNL     1     -12.845   7.294 131.175  0.00  0.00    +0.000 A 
ATOM     24  C   UNL     1     -13.015   7.447 129.821  0.00  0.00    +0.000 A 
ATOM     25  S   UNL     1     -11.717   6.779 128.922  0.00  0.00    +0.000 S 
ENDBRANCH  15  21
BRANCH  15  26
ATOM     26  O   UNL     1      -9.522   4.653 129.200  0.00  0.00    +0.000 OA
ATOM     27  H   UNL     1      -9.585   3.731 129.504  0.00  0.00    +0.000 HD
ENDBRANCH  15  26
ENDBRANCH   1  15
TORSDOF 6
ENDMDL
MODEL 7
REMARK VINA RESULT:      -6.8      2.877      6.441
REMARK  Name = Tiotropium
REMARK  8 active torsions:
REMARK  status: ('A' for Active; 'I' for Inactive)
REMARK    1  A    between atoms: C_9  and  O_17
REMARK    2  A    between atoms: N_14  and  C_15
REMARK    3  A    between atoms: N_14  and  C_16
REMARK    4  A    between atoms: O_17  and  C_18
REMARK    5  A    between atoms: C_18  and  C_20
REMARK    6  A    between atoms: C_20  and  O_21
REMARK    7  A    between atoms: C_20  and  C_22
REMARK    8  A    between atoms: C_20  and  C_27
REMARK                            x       y       z     vdW  Elec       q    Type
REMARK                         _______ _______ _______ _____ _____    ______ ____
ROOT
ATOM      1  C   UNL     1      -9.228   5.000 129.707  0.00  0.00    +0.000 C 
ATOM      2  O   UNL     1      -8.839   6.079 129.303  0.00  0.00    +0.000 OA
ENDROOT
BRANCH   1   3
ATOM      3  O   UNL     1      -8.837   3.823 129.120  0.00  0.00    +0.000 OA
BRANCH   3   9
ATOM      4  C   UNL     1      -7.870   0.696 129.292  0.00  0.00    +0.000 C 
ATOM      5  O   UNL     1      -8.746   1.578 129.979  0.00  0.00    +0.000 OA
ATOM      6  C   UNL     1      -7.578   1.244 130.704  0.00  0.00    +0.000 C 
ATOM      7  C   UNL     1      -6.331   2.103 130.548  0.00  0.00    +0.000 C 
ATOM      8  C   UNL     1      -6.690   3.559 130.187  0.00  0.00    +0.000 C 
ATOM      9  C   UNL     1      -7.421   3.720 128.832  0.00  0.00    +0.000 C 
ATOM     10  C   UNL     1      -7.125   2.595 127.805  0.00  0.00    +0.000 C 
ATOM     11  C   UNL     1      -6.757   1.252 128.412  0.00  0.00    +0.000 C 
ATOM     12  N   UNL     1      -5.582   1.432 129.375  0.00  0.00    +0.000 N 
ATOM     13  C   UNL     1      -5.106   0.024 129.803  0.00  0.00    +0.000 C 
ATOM     14  C   UNL     1      -4.389   2.175 128.828  0.00  0.00    +0.000 C 
ENDBRANCH   3   9
ENDBRANCH   1   3
BRANCH   1  15
ATOM     15  C   UNL     1     -10.222   4.752 130.887  0.00  0.00    +0.000 C 
BRANCH  15  16
ATOM     16  C   UNL     1      -9.446   4.844 132.194  0.00  0.00    +0.000 A 
ATOM     17  C   UNL     1      -8.753   5.918 132.729  0.00  0.00    +0.000 A 
ATOM     18  C   UNL     1      -8.131   5.606 133.971  0.00  0.00    +0.000 A 
ATOM     19  C   UNL     1      -8.357   4.307 134.356  0.00  0.00    +0.000 A 
ATOM     20  S   UNL     1      -9.376   3.493 133.270  0.00  0.00    +0.000 S 
ENDBRANCH  15  16
BRANCH  15  21
ATOM     21  C   UNL     1     -11.311   5.812 130.784  0.00  0.00    +0.000 A 
ATOM     22  C   UNL     1     -11.761   6.607 131.831  0.00  0.00    +0.000 A 
ATOM     23  C   UNL     1     -12.799   7.488 131.475  0.00  0.00    +0.000 A 
ATOM     24  C   UNL     1     -13.118   7.372 130.145  0.00  0.00    +0.000 A 
ATOM     25  S   UNL     1     -12.157   6.200 129.344  0.00  0.00    +0.000 S 
ENDBRANCH  15  21
BRANCH  15  26
ATOM     26  O   UNL     1     -10.821   3.454 130.810  0.00  0.00    +0.000 OA
ATOM     27  H   UNL     1     -11.171   3.348 129.909  0.00  0.00    +0.000 HD
ENDBRANCH  15  26
ENDBRANCH   1  15
TORSDOF 6
ENDMDL
MODEL 8
REMARK VINA RESULT:      -6.7      3.606      6.788
REMARK  Name = Tiotropium
REMARK  8 active torsions:
REMARK  status: ('A' for Active; 'I' for Inactive)
REMARK    1  A    between atoms: C_9  and  O_17
REMARK    2  A    between atoms: N_14  and  C_15
REMARK    3  A    between atoms: N_14  and  C_16
REMARK    4  A    between atoms: O_17  and  C_18
REMARK    5  A    between atoms: C_18  and  C_20
REMARK    6  A    between atoms: C_20  and  O_21
REMARK    7  A    between atoms: C_20  and  C_22
REMARK    8  A    between atoms: C_20  and  C_27
REMARK                            x       y       z     vdW  Elec       q    Type
REMARK                         _______ _______ _______ _____ _____    ______ ____
ROOT
ATOM      1  C   UNL     1      -8.561   6.534 131.006  0.00  0.00    +0.000 C 
ATOM      2  O   UNL     1      -8.510   7.518 130.292  0.00  0.00    +0.000 OA
ENDROOT
BRANCH   1   3
ATOM      3  O   UNL     1      -7.455   5.760 131.251  0.00  0.00    +0.000 OA
BRANCH   3   9
ATOM      4  C   UNL     1      -4.721   3.981 130.925  0.00  0.00    +0.000 C 
ATOM      5  O   UNL     1      -6.097   3.775 131.212  0.00  0.00    +0.000 OA
ATOM      6  C   UNL     1      -5.243   3.593 132.324  0.00  0.00    +0.000 C 
ATOM      7  C   UNL     1      -4.914   4.781 133.217  0.00  0.00    +0.000 C 
ATOM      8  C   UNL     1      -6.053   5.822 133.212  0.00  0.00    +0.000 C 
ATOM      9  C   UNL     1      -6.328   6.462 131.831  0.00  0.00    +0.000 C 
ATOM     10  C   UNL     1      -5.107   6.476 130.874  0.00  0.00    +0.000 C 
ATOM     11  C   UNL     1      -4.099   5.361 131.103  0.00  0.00    +0.000 C 
ATOM     12  N   UNL     1      -3.646   5.376 132.564  0.00  0.00    +0.000 N 
ATOM     13  C   UNL     1      -2.475   4.374 132.702  0.00  0.00    +0.000 C 
ATOM     14  C   UNL     1      -3.179   6.707 133.096  0.00  0.00    +0.000 C 
ENDBRANCH   3   9
ENDBRANCH   1   3
BRANCH   1  15
ATOM     15  C   UNL     1      -9.830   5.968 131.719  0.00  0.00    +0.000 C 
BRANCH  15  16
ATOM     16  C   UNL     1     -11.044   6.287 130.858  0.00  0.00    +0.000 A 
ATOM     17  C   UNL     1     -11.302   5.941 129.541  0.00  0.00    +0.000 A 
ATOM     18  C   UNL     1     -12.547   6.448 129.074  0.00  0.00    +0.000 A 
ATOM     19  C   UNL     1     -13.210   7.170 130.036  0.00  0.00    +0.000 A 
ATOM     20  S   UNL     1     -12.378   7.170 131.515  0.00  0.00    +0.000 S 
ENDBRANCH  15  16
BRANCH  15  21
ATOM     21  C   UNL     1      -9.617   4.469 131.887  0.00  0.00    +0.000 A 
ATOM     22  C   UNL     1      -9.301   3.830 133.080  0.00  0.00    +0.000 A 
ATOM     23  C   UNL     1      -9.127   2.439 132.956  0.00  0.00    +0.000 A 
ATOM     24  C   UNL     1      -9.336   2.024 131.664  0.00  0.00    +0.000 A 
ATOM     25  S   UNL     1      -9.739   3.321 130.619  0.00  0.00    +0.000 S 
ENDBRANCH  15  21
BRANCH  15  26
ATOM     26  O   UNL     1     -10.023   6.562 133.008  0.00  0.00    +0.000 OA
ATOM     27  H   UNL     1     -10.752   6.086 133.442  0.00  0.00    +0.000 HD
ENDBRANCH  15  26
ENDBRANCH   1  15
TORSDOF 6
ENDMDL
MODEL 9
REMARK VINA RESULT:      -6.7      6.362      9.283
REMARK  Name = Tiotropium
REMARK  8 active torsions:
REMARK  status: ('A' for Active; 'I' for Inactive)
REMARK    1  A    between atoms: C_9  and  O_17
REMARK    2  A    between atoms: N_14  and  C_15
REMARK    3  A    between atoms: N_14  and  C_16
REMARK    4  A    between atoms: O_17  and  C_18
REMARK    5  A    between atoms: C_18  and  C_20
REMARK    6  A    between atoms: C_20  and  O_21
REMARK    7  A    between atoms: C_20  and  C_22
REMARK    8  A    between atoms: C_20  and  C_27
REMARK                            x       y       z     vdW  Elec       q    Type
REMARK                         _______ _______ _______ _____ _____    ______ ____
ROOT
ATOM      1  C   UNL     1      -7.741  -2.795 128.754  0.00  0.00    +0.000 C 
ATOM      2  O   UNL     1      -8.810  -3.220 129.151  0.00  0.00    +0.000 OA
ENDROOT
BRANCH   1   3
ATOM      3  O   UNL     1      -7.271  -3.081 127.498  0.00  0.00    +0.000 OA
BRANCH   3   9
ATOM      4  C   UNL     1      -5.639  -2.894 124.661  0.00  0.00    +0.000 C 
ATOM      5  O   UNL     1      -5.453  -2.529 126.021  0.00  0.00    +0.000 OA
ATOM      6  C   UNL     1      -5.675  -1.433 125.156  0.00  0.00    +0.000 C 
ATOM      7  C   UNL     1      -7.099  -0.960 124.899  0.00  0.00    +0.000 C 
ATOM      8  C   UNL     1      -8.019  -1.263 126.099  0.00  0.00    +0.000 C 
ATOM      9  C   UNL     1      -8.182  -2.770 126.415  0.00  0.00    +0.000 C 
ATOM     10  C   UNL     1      -7.967  -3.708 125.197  0.00  0.00    +0.000 C 
ATOM     11  C   UNL     1      -7.039  -3.165 124.124  0.00  0.00    +0.000 C 
ATOM     12  N   UNL     1      -7.532  -1.790 123.670  0.00  0.00    +0.000 N 
ATOM     13  C   UNL     1      -6.692  -1.373 122.441  0.00  0.00    +0.000 C 
ATOM     14  C   UNL     1      -8.988  -1.706 123.284  0.00  0.00    +0.000 C 
ENDBRANCH   3   9
ENDBRANCH   1   3
BRANCH   1  15
ATOM     15  C   UNL     1      -6.730  -1.920 129.563  0.00  0.00    +0.000 C 
BRANCH  15  16
ATOM     16  C   UNL     1      -7.519  -0.880 130.347  0.00  0.00    +0.000 A 
ATOM     17  C   UNL     1      -8.047  -0.960 131.625  0.00  0.00    +0.000 A 
ATOM     18  C   UNL     1      -8.746   0.221 132.004  0.00  0.00    +0.000 A 
ATOM     19  C   UNL     1      -8.741   1.171 131.013  0.00  0.00    +0.000 A 
ATOM     20  S   UNL     1      -7.834   0.678 129.666  0.00  0.00    +0.000 S 
ENDBRANCH  15  16
BRANCH  15  21
ATOM     21  C   UNL     1      -5.951  -2.862 130.471  0.00  0.00    +0.000 A 
ATOM     22  C   UNL     1      -6.176  -4.227 130.597  0.00  0.00    +0.000 A 
ATOM     23  C   UNL     1      -5.334  -4.862 131.530  0.00  0.00    +0.000 A 
ATOM     24  C   UNL     1      -4.454  -3.973 132.094  0.00  0.00    +0.000 A 
ATOM     25  S   UNL     1      -4.655  -2.382 131.488  0.00  0.00    +0.000 S 
ENDBRANCH  15  21
BRANCH  15  26
ATOM     26  O   UNL     1      -5.815  -1.235 128.700  0.00  0.00    +0.000 OA
ATOM     27  H   UNL     1      -6.266  -0.436 128.374  0.00  0.00    +0.000 HD
ENDBRANCH  15  26
ENDBRANCH   1  15
TORSDOF 6
ENDMDL
