MODEL 1
REMARK VINA RESULT:      -6.5      0.000      0.000
REMARK  Name = Tipiracil
REMARK  2 active torsions:
REMARK  status: ('A' for Active; 'I' for Inactive)
REMARK    1  A    between atoms: C_3  and  C_4
REMARK    2  A    between atoms: C_4  and  N_5
REMARK                            x       y       z     vdW  Elec       q    Type
REMARK                         _______ _______ _______ _____ _____    ______ ____
ROOT
ATOM      1 CL   UNL     1     -12.930   8.110 131.767  0.00  0.00    +0.000 Cl
ATOM      2  C   UNL     1     -12.340   7.824 130.181  0.00  0.00    +0.000 A 
ATOM      3  C   UNL     1     -11.586   6.806 129.703  0.00  0.00    +0.000 A 
ATOM      4  N   UNL     1     -11.038   6.962 128.426  0.00  0.00    +0.000 N 
ATOM      5  C   UNL     1     -11.215   8.062 127.632  0.00  0.00    +0.000 A 
ATOM      6  O   UNL     1     -10.615   8.204 126.567  0.00  0.00    +0.000 OA
ATOM      7  N   UNL     1     -12.083   8.996 128.087  0.00  0.00    +0.000 N 
ATOM      8  C   UNL     1     -12.704   8.954 129.291  0.00  0.00    +0.000 A 
ATOM      9  O   UNL     1     -13.495   9.834 129.615  0.00  0.00    +0.000 OA
ATOM     10  H   UNL     1     -10.411   6.263 128.039  0.00  0.00    +0.000 HD
ATOM     11  H   UNL     1     -12.275   9.807 127.523  0.00  0.00    +0.000 HD
ENDROOT
BRANCH   3  12
ATOM     12  C   UNL     1     -11.214   5.470 130.372  0.00  0.00    +0.000 C 
BRANCH  12  13
ATOM     13  N   UNL     1      -9.867   5.391 130.898  0.00  0.00    +0.000 N 
ATOM     14  C   UNL     1      -8.732   5.125 130.031  0.00  0.00    +0.000 C 
ATOM     15  C   UNL     1      -7.592   5.921 130.677  0.00  0.00    +0.000 C 
ATOM     16  C   UNL     1      -7.988   6.080 132.153  0.00  0.00    +0.000 C 
ATOM     17  C   UNL     1      -9.491   5.931 132.096  0.00  0.00    +0.000 C 
ATOM     18  N   UNL     1     -10.297   6.351 133.011  0.00  0.00    +0.000 NA
ATOM     19  H   UNL     1      -9.778   6.824 133.757  0.00  0.00    +0.000 HD
ENDBRANCH  12  13
ENDBRANCH   3  12
TORSDOF 2
ENDMDL
MODEL 2
REMARK VINA RESULT:      -6.1      8.495      9.770
REMARK  Name = Tipiracil
REMARK  2 active torsions:
REMARK  status: ('A' for Active; 'I' for Inactive)
REMARK    1  A    between atoms: C_3  and  C_4
REMARK    2  A    between atoms: C_4  and  N_5
REMARK                            x       y       z     vdW  Elec       q    Type
REMARK                         _______ _______ _______ _____ _____    ______ ____
ROOT
ATOM      1 CL   UNL     1      -6.361   1.562 125.619  0.00  0.00    +0.000 Cl
ATOM      2  C   UNL     1      -7.801   1.015 124.863  0.00  0.00    +0.000 A 
ATOM      3  C   UNL     1      -8.087  -0.181 124.297  0.00  0.00    +0.000 A 
ATOM      4  N   UNL     1      -9.254  -0.261 123.530  0.00  0.00    +0.000 N 
ATOM      5  C   UNL     1     -10.122   0.776 123.321  0.00  0.00    +0.000 A 
ATOM      6  O   UNL     1     -11.070   0.688 122.542  0.00  0.00    +0.000 OA
ATOM      7  N   UNL     1      -9.874   1.913 124.013  0.00  0.00    +0.000 N 
ATOM      8  C   UNL     1      -8.798   2.114 124.812  0.00  0.00    +0.000 A 
ATOM      9  O   UNL     1      -8.663   3.169 125.421  0.00  0.00    +0.000 OA
ATOM     10  H   UNL     1      -9.488  -1.111 123.027  0.00  0.00    +0.000 HD
ATOM     11  H   UNL     1     -10.503   2.693 123.921  0.00  0.00    +0.000 HD
ENDROOT
BRANCH   3  12
ATOM     12  C   UNL     1      -7.296  -1.501 124.353  0.00  0.00    +0.000 C 
BRANCH  12  13
ATOM     13  N   UNL     1      -7.640  -2.386 125.446  0.00  0.00    +0.000 N 
ATOM     14  C   UNL     1      -6.947  -2.317 126.721  0.00  0.00    +0.000 C 
ATOM     15  C   UNL     1      -8.031  -2.684 127.740  0.00  0.00    +0.000 C 
ATOM     16  C   UNL     1      -9.066  -3.508 126.959  0.00  0.00    +0.000 C 
ATOM     17  C   UNL     1      -8.835  -3.043 125.539  0.00  0.00    +0.000 C 
ATOM     18  N   UNL     1      -9.695  -3.166 124.587  0.00  0.00    +0.000 NA
ATOM     19  H   UNL     1     -10.561  -3.589 124.936  0.00  0.00    +0.000 HD
ENDBRANCH  12  13
ENDBRANCH   3  12
TORSDOF 2
ENDMDL
MODEL 3
REMARK VINA RESULT:      -6.1      8.940      9.914
REMARK  Name = Tipiracil
REMARK  2 active torsions:
REMARK  status: ('A' for Active; 'I' for Inactive)
REMARK    1  A    between atoms: C_3  and  C_4
REMARK    2  A    between atoms: C_4  and  N_5
REMARK                            x       y       z     vdW  Elec       q    Type
REMARK                         _______ _______ _______ _____ _____    ______ ____
ROOT
ATOM      1 CL   UNL     1      -5.727   1.799 125.483  0.00  0.00    +0.000 Cl
ATOM      2  C   UNL     1      -6.956   2.257 124.377  0.00  0.00    +0.000 A 
ATOM      3  C   UNL     1      -8.131   1.653 124.082  0.00  0.00    +0.000 A 
ATOM      4  N   UNL     1      -8.819   2.111 122.955  0.00  0.00    +0.000 N 
ATOM      5  C   UNL     1      -8.393   3.126 122.141  0.00  0.00    +0.000 A 
ATOM      6  O   UNL     1      -8.974   3.413 121.095  0.00  0.00    +0.000 OA
ATOM      7  N   UNL     1      -7.287   3.793 122.545  0.00  0.00    +0.000 N 
ATOM      8  C   UNL     1      -6.543   3.472 123.632  0.00  0.00    +0.000 A 
ATOM      9  O   UNL     1      -5.566   4.147 123.939  0.00  0.00    +0.000 OA
ATOM     10  H   UNL     1      -9.672   1.656 122.644  0.00  0.00    +0.000 HD
ATOM     11  H   UNL     1      -6.954   4.571 122.001  0.00  0.00    +0.000 HD
ENDROOT
BRANCH   3  12
ATOM     12  C   UNL     1      -8.840   0.493 124.805  0.00  0.00    +0.000 C 
BRANCH  12  13
ATOM     13  N   UNL     1      -8.556  -0.829 124.289  0.00  0.00    +0.000 N 
ATOM     14  C   UNL     1      -7.818  -1.805 125.074  0.00  0.00    +0.000 C 
ATOM     15  C   UNL     1      -8.436  -3.144 124.655  0.00  0.00    +0.000 C 
ATOM     16  C   UNL     1      -9.033  -2.903 123.261  0.00  0.00    +0.000 C 
ATOM     17  C   UNL     1      -9.254  -1.407 123.265  0.00  0.00    +0.000 C 
ATOM     18  N   UNL     1     -10.066  -0.791 122.476  0.00  0.00    +0.000 NA
ATOM     19  H   UNL     1     -10.559  -1.459 121.874  0.00  0.00    +0.000 HD
ENDBRANCH  12  13
ENDBRANCH   3  12
TORSDOF 2
ENDMDL
MODEL 4
REMARK VINA RESULT:      -5.9      8.242      9.510
REMARK  Name = Tipiracil
REMARK  2 active torsions:
REMARK  status: ('A' for Active; 'I' for Inactive)
REMARK    1  A    between atoms: C_3  and  C_4
REMARK    2  A    between atoms: C_4  and  N_5
REMARK                            x       y       z     vdW  Elec       q    Type
REMARK                         _______ _______ _______ _____ _____    ______ ____
ROOT
ATOM      1 CL   UNL     1      -8.273   1.657 126.537  0.00  0.00    +0.000 Cl
ATOM      2  C   UNL     1      -7.861   2.003 124.908  0.00  0.00    +0.000 A 
ATOM      3  C   UNL     1      -7.248   1.229 123.982  0.00  0.00    +0.000 A 
ATOM      4  N   UNL     1      -6.810   1.859 122.812  0.00  0.00    +0.000 N 
ATOM      5  C   UNL     1      -6.965   3.191 122.540  0.00  0.00    +0.000 A 
ATOM      6  O   UNL     1      -6.458   3.720 121.552  0.00  0.00    +0.000 OA
ATOM      7  N   UNL     1      -7.701   3.902 123.426  0.00  0.00    +0.000 N 
ATOM      8  C   UNL     1      -8.208   3.409 124.583  0.00  0.00    +0.000 A 
ATOM      9  O   UNL     1      -8.884   4.119 125.319  0.00  0.00    +0.000 OA
ATOM     10  H   UNL     1      -6.287   1.346 122.110  0.00  0.00    +0.000 HD
ATOM     11  H   UNL     1      -7.874   4.878 123.253  0.00  0.00    +0.000 HD
ENDROOT
BRANCH   3  12
ATOM     12  C   UNL     1      -6.933  -0.278 124.023  0.00  0.00    +0.000 C 
BRANCH  12  13
ATOM     13  N   UNL     1      -8.079  -1.150 124.169  0.00  0.00    +0.000 N 
ATOM     14  C   UNL     1      -8.818  -1.627 123.012  0.00  0.00    +0.000 C 
ATOM     15  C   UNL     1      -9.279  -3.027 123.432  0.00  0.00    +0.000 C 
ATOM     16  C   UNL     1      -9.299  -3.008 124.968  0.00  0.00    +0.000 C 
ATOM     17  C   UNL     1      -8.318  -1.902 125.286  0.00  0.00    +0.000 C 
ATOM     18  N   UNL     1      -7.725  -1.762 126.421  0.00  0.00    +0.000 NA
ATOM     19  H   UNL     1      -7.986  -2.520 127.059  0.00  0.00    +0.000 HD
ENDBRANCH  12  13
ENDBRANCH   3  12
TORSDOF 2
ENDMDL
MODEL 5
REMARK VINA RESULT:      -5.8      8.739     10.290
REMARK  Name = Tipiracil
REMARK  2 active torsions:
REMARK  status: ('A' for Active; 'I' for Inactive)
REMARK    1  A    between atoms: C_3  and  C_4
REMARK    2  A    between atoms: C_4  and  N_5
REMARK                            x       y       z     vdW  Elec       q    Type
REMARK                         _______ _______ _______ _____ _____    ______ ____
ROOT
ATOM      1 CL   UNL     1      -5.548  -0.874 126.468  0.00  0.00    +0.000 Cl
ATOM      2  C   UNL     1      -6.737   0.197 125.851  0.00  0.00    +0.000 A 
ATOM      3  C   UNL     1      -7.191   0.360 124.586  0.00  0.00    +0.000 A 
ATOM      4  N   UNL     1      -7.981   1.485 124.330  0.00  0.00    +0.000 N 
ATOM      5  C   UNL     1      -8.330   2.420 125.266  0.00  0.00    +0.000 A 
ATOM      6  O   UNL     1      -8.927   3.454 124.967  0.00  0.00    +0.000 OA
ATOM      7  N   UNL     1      -7.973   2.152 126.544  0.00  0.00    +0.000 N 
ATOM      8  C   UNL     1      -7.233   1.084 126.932  0.00  0.00    +0.000 A 
ATOM      9  O   UNL     1      -6.974   0.905 128.117  0.00  0.00    +0.000 OA
ATOM     10  H   UNL     1      -8.297   1.697 123.389  0.00  0.00    +0.000 HD
ATOM     11  H   UNL     1      -8.238   2.790 127.274  0.00  0.00    +0.000 HD
ENDROOT
BRANCH   3  12
ATOM     12  C   UNL     1      -6.950  -0.517 123.343  0.00  0.00    +0.000 C 
BRANCH  12  13
ATOM     13  N   UNL     1      -7.657  -1.781 123.327  0.00  0.00    +0.000 N 
ATOM     14  C   UNL     1      -7.079  -2.977 123.915  0.00  0.00    +0.000 C 
ATOM     15  C   UNL     1      -8.296  -3.737 124.454  0.00  0.00    +0.000 C 
ATOM     16  C   UNL     1      -9.490  -3.242 123.622  0.00  0.00    +0.000 C 
ATOM     17  C   UNL     1      -9.008  -1.888 123.151  0.00  0.00    +0.000 C 
ATOM     18  N   UNL     1      -9.785  -0.946 122.740  0.00  0.00    +0.000 NA
ATOM     19  H   UNL     1     -10.766  -1.231 122.810  0.00  0.00    +0.000 HD
ENDBRANCH  12  13
ENDBRANCH   3  12
TORSDOF 2
ENDMDL
MODEL 6
REMARK VINA RESULT:      -5.8      8.742      9.990
REMARK  Name = Tipiracil
REMARK  2 active torsions:
REMARK  status: ('A' for Active; 'I' for Inactive)
REMARK    1  A    between atoms: C_3  and  C_4
REMARK    2  A    between atoms: C_4  and  N_5
REMARK                            x       y       z     vdW  Elec       q    Type
REMARK                         _______ _______ _______ _____ _____    ______ ____
ROOT
ATOM      1 CL   UNL     1      -6.758   2.181 126.148  0.00  0.00    +0.000 Cl
ATOM      2  C   UNL     1      -8.054   1.458 125.287  0.00  0.00    +0.000 A 
ATOM      3  C   UNL     1      -8.332   0.151 125.068  0.00  0.00    +0.000 A 
ATOM      4  N   UNL     1      -9.313  -0.142 124.115  0.00  0.00    +0.000 N 
ATOM      5  C   UNL     1     -10.010   0.795 123.401  0.00  0.00    +0.000 A 
ATOM      6  O   UNL     1     -10.776   0.485 122.490  0.00  0.00    +0.000 OA
ATOM      7  N   UNL     1      -9.801   2.087 123.745  0.00  0.00    +0.000 N 
ATOM      8  C   UNL     1      -8.903   2.507 124.669  0.00  0.00    +0.000 A 
ATOM      9  O   UNL     1      -8.795   3.699 124.936  0.00  0.00    +0.000 OA
ATOM     10  H   UNL     1      -9.520  -1.102 123.860  0.00  0.00    +0.000 HD
ATOM     11  H   UNL     1     -10.316   2.812 123.274  0.00  0.00    +0.000 HD
ENDROOT
BRANCH   3  12
ATOM     12  C   UNL     1      -7.707  -1.101 125.711  0.00  0.00    +0.000 C 
BRANCH  12  13
ATOM     13  N   UNL     1      -6.953  -1.950 124.813  0.00  0.00    +0.000 N 
ATOM     14  C   UNL     1      -5.596  -1.616 124.416  0.00  0.00    +0.000 C 
ATOM     15  C   UNL     1      -4.919  -2.982 124.260  0.00  0.00    +0.000 C 
ATOM     16  C   UNL     1      -6.059  -3.976 123.987  0.00  0.00    +0.000 C 
ATOM     17  C   UNL     1      -7.250  -3.267 124.593  0.00  0.00    +0.000 C 
ATOM     18  N   UNL     1      -8.343  -3.853 124.940  0.00  0.00    +0.000 NA
ATOM     19  H   UNL     1      -8.278  -4.863 124.779  0.00  0.00    +0.000 HD
ENDBRANCH  12  13
ENDBRANCH   3  12
TORSDOF 2
ENDMDL
MODEL 7
REMARK VINA RESULT:      -5.7      2.475      3.456
REMARK  Name = Tipiracil
REMARK  2 active torsions:
REMARK  status: ('A' for Active; 'I' for Inactive)
REMARK    1  A    between atoms: C_3  and  C_4
REMARK    2  A    between atoms: C_4  and  N_5
REMARK                            x       y       z     vdW  Elec       q    Type
REMARK                         _______ _______ _______ _____ _____    ______ ____
ROOT
ATOM      1 CL   UNL     1      -8.635   4.951 128.876  0.00  0.00    +0.000 Cl
ATOM      2  C   UNL     1      -9.789   5.604 129.964  0.00  0.00    +0.000 A 
ATOM      3  C   UNL     1     -10.192   5.159 131.177  0.00  0.00    +0.000 A 
ATOM      4  N   UNL     1     -11.333   5.750 131.728  0.00  0.00    +0.000 N 
ATOM      5  C   UNL     1     -12.059   6.746 131.133  0.00  0.00    +0.000 A 
ATOM      6  O   UNL     1     -13.122   7.151 131.602  0.00  0.00    +0.000 OA
ATOM      7  N   UNL     1     -11.548   7.258 129.989  0.00  0.00    +0.000 N 
ATOM      8  C   UNL     1     -10.436   6.798 129.364  0.00  0.00    +0.000 A 
ATOM      9  O   UNL     1     -10.029   7.336 128.340  0.00  0.00    +0.000 OA
ATOM     10  H   UNL     1     -11.723   5.415 132.604  0.00  0.00    +0.000 HD
ATOM     11  H   UNL     1     -12.025   8.016 129.531  0.00  0.00    +0.000 HD
ENDROOT
BRANCH   3  12
ATOM     12  C   UNL     1      -9.583   4.057 132.064  0.00  0.00    +0.000 C 
BRANCH  12  13
ATOM     13  N   UNL     1      -8.284   4.358 132.627  0.00  0.00    +0.000 N 
ATOM     14  C   UNL     1      -7.064   3.835 132.035  0.00  0.00    +0.000 C 
ATOM     15  C   UNL     1      -6.037   4.945 132.288  0.00  0.00    +0.000 C 
ATOM     16  C   UNL     1      -6.566   5.723 133.502  0.00  0.00    +0.000 C 
ATOM     17  C   UNL     1      -8.047   5.421 133.453  0.00  0.00    +0.000 C 
ATOM     18  N   UNL     1      -8.952   6.133 134.031  0.00  0.00    +0.000 NA
ATOM     19  H   UNL     1      -8.531   6.944 134.495  0.00  0.00    +0.000 HD
ENDBRANCH  12  13
ENDBRANCH   3  12
TORSDOF 2
ENDMDL
MODEL 8
REMARK VINA RESULT:      -5.5      3.313      5.445
REMARK  Name = Tipiracil
REMARK  2 active torsions:
REMARK  status: ('A' for Active; 'I' for Inactive)
REMARK    1  A    between atoms: C_3  and  C_4
REMARK    2  A    between atoms: C_4  and  N_5
REMARK                            x       y       z     vdW  Elec       q    Type
REMARK                         _______ _______ _______ _____ _____    ______ ____
ROOT
ATOM      1 CL   UNL     1     -11.235   3.254 130.450  0.00  0.00    +0.000 Cl
ATOM      2  C   UNL     1      -9.804   4.192 130.568  0.00  0.00    +0.000 A 
ATOM      3  C   UNL     1      -9.645   5.536 130.611  0.00  0.00    +0.000 A 
ATOM      4  N   UNL     1      -8.346   6.030 130.450  0.00  0.00    +0.000 N 
ATOM      5  C   UNL     1      -7.235   5.254 130.261  0.00  0.00    +0.000 A 
ATOM      6  O   UNL     1      -6.134   5.740 130.006  0.00  0.00    +0.000 OA
ATOM      7  N   UNL     1      -7.415   3.917 130.361  0.00  0.00    +0.000 N 
ATOM      8  C   UNL     1      -8.612   3.308 130.544  0.00  0.00    +0.000 A 
ATOM      9  O   UNL     1      -8.681   2.088 130.645  0.00  0.00    +0.000 OA
ATOM     10  H   UNL     1      -8.171   7.029 130.408  0.00  0.00    +0.000 HD
ATOM     11  H   UNL     1      -6.622   3.304 130.265  0.00  0.00    +0.000 HD
ENDROOT
BRANCH   3  12
ATOM     12  C   UNL     1     -10.703   6.638 130.798  0.00  0.00    +0.000 C 
BRANCH  12  13
ATOM     13  N   UNL     1     -11.425   7.017 129.601  0.00  0.00    +0.000 N 
ATOM     14  C   UNL     1     -12.849   6.762 129.465  0.00  0.00    +0.000 C 
ATOM     15  C   UNL     1     -13.347   7.944 128.626  0.00  0.00    +0.000 C 
ATOM     16  C   UNL     1     -12.119   8.443 127.850  0.00  0.00    +0.000 C 
ATOM     17  C   UNL     1     -10.978   7.958 128.716  0.00  0.00    +0.000 C 
ATOM     18  N   UNL     1      -9.785   8.443 128.682  0.00  0.00    +0.000 NA
ATOM     19  H   UNL     1      -9.730   9.219 128.015  0.00  0.00    +0.000 HD
ENDBRANCH  12  13
ENDBRANCH   3  12
TORSDOF 2
ENDMDL
MODEL 9
REMARK VINA RESULT:      -5.4      9.099     10.815
REMARK  Name = Tipiracil
REMARK  2 active torsions:
REMARK  status: ('A' for Active; 'I' for Inactive)
REMARK    1  A    between atoms: C_3  and  C_4
REMARK    2  A    between atoms: C_4  and  N_5
REMARK                            x       y       z     vdW  Elec       q    Type
REMARK                         _______ _______ _______ _____ _____    ______ ____
ROOT
ATOM      1 CL   UNL     1      -5.560  -1.612 126.585  0.00  0.00    +0.000 Cl
ATOM      2  C   UNL     1      -6.880  -1.703 125.492  0.00  0.00    +0.000 A 
ATOM      3  C   UNL     1      -7.985  -0.927 125.395  0.00  0.00    +0.000 A 
ATOM      4  N   UNL     1      -9.020  -1.388 124.575  0.00  0.00    +0.000 N 
ATOM      5  C   UNL     1      -8.987  -2.557 123.863  0.00  0.00    +0.000 A 
ATOM      6  O   UNL     1      -9.968  -2.977 123.251  0.00  0.00    +0.000 OA
ATOM      7  N   UNL     1      -7.815  -3.235 123.878  0.00  0.00    +0.000 N 
ATOM      8  C   UNL     1      -6.727  -2.884 124.606  0.00  0.00    +0.000 A 
ATOM      9  O   UNL     1      -5.696  -3.544 124.543  0.00  0.00    +0.000 OA
ATOM     10  H   UNL     1      -9.899  -0.885 124.512  0.00  0.00    +0.000 HD
ATOM     11  H   UNL     1      -7.729  -4.082 123.342  0.00  0.00    +0.000 HD
ENDROOT
BRANCH   3  12
ATOM     12  C   UNL     1      -8.298   0.416 126.082  0.00  0.00    +0.000 C 
BRANCH  12  13
ATOM     13  N   UNL     1      -8.058   1.596 125.279  0.00  0.00    +0.000 N 
ATOM     14  C   UNL     1      -6.709   2.050 124.987  0.00  0.00    +0.000 C 
ATOM     15  C   UNL     1      -6.828   2.654 123.583  0.00  0.00    +0.000 C 
ATOM     16  C   UNL     1      -8.306   3.046 123.430  0.00  0.00    +0.000 C 
ATOM     17  C   UNL     1      -8.983   2.129 124.424  0.00  0.00    +0.000 C 
ATOM     18  N   UNL     1     -10.234   1.825 124.395  0.00  0.00    +0.000 NA
ATOM     19  H   UNL     1     -10.692   2.262 123.589  0.00  0.00    +0.000 HD
ENDBRANCH  12  13
ENDBRANCH   3  12
TORSDOF 2
ENDMDL
