MODEL 1
REMARK VINA RESULT:      -9.8      0.000      0.000
REMARK  Name = Tipranavir
REMARK  15 active torsions:
REMARK  status: ('A' for Active; 'I' for Inactive)
REMARK    1  A    between atoms: C_2  and  C_3
REMARK    2  A    between atoms: C_2  and  C_5
REMARK    3  A    between atoms: C_2  and  C_25
REMARK    4  A    between atoms: C_3  and  C_4
REMARK    5  A    between atoms: C_7  and  N_8
REMARK    6  A    between atoms: N_8  and  S_9
REMARK    7  A    between atoms: S_9  and  C_12
REMARK    8  A    between atoms: C_15  and  C_18
REMARK    9  A    between atoms: C_26  and  O_27
REMARK   10  A    between atoms: C_29  and  C_30
REMARK   11  A    between atoms: C_29  and  C_33
REMARK   12  A    between atoms: C_30  and  C_31
REMARK   13  A    between atoms: C_31  and  C_32
REMARK   14  A    between atoms: C_33  and  C_34
REMARK   15  A    between atoms: C_34  and  C_35
REMARK                            x       y       z     vdW  Elec       q    Type
REMARK                         _______ _______ _______ _____ _____    ______ ____
ROOT
ATOM      1  C   UNL     1      -6.566   0.113 128.217  0.00  0.00    +0.000 C 
ENDROOT
BRANCH   1   2
ATOM      2  C   UNL     1      -7.368   1.224 128.934  0.00  0.00    +0.000 C 
ATOM      3  C   UNL     1      -6.999   1.669 130.147  0.00  0.00    +0.000 C 
ATOM      4  C   UNL     1      -7.523   2.809 130.846  0.00  0.00    +0.000 C 
ATOM      5  C   UNL     1      -8.815   3.317 130.323  0.00  0.00    +0.000 C 
ATOM      6  O   UNL     1      -9.344   2.662 129.187  0.00  0.00    +0.000 OA
ATOM      7  C   UNL     1      -8.632   1.870 128.364  0.00  0.00    +0.000 C 
ATOM      8  O   UNL     1      -9.148   1.685 127.297  0.00  0.00    +0.000 OA
BRANCH   3   9
ATOM      9  O   UNL     1      -6.057   1.200 130.991  0.00  0.00    +0.000 OA
ATOM     10  H   UNL     1      -5.191   1.405 130.637  0.00  0.00    +0.000 HD
ENDBRANCH   3   9
BRANCH   5  11
ATOM     11  C   UNL     1      -9.866   3.059 131.399  0.00  0.00    +0.000 C 
BRANCH  11  12
ATOM     12  C   UNL     1      -9.175   2.588 132.712  0.00  0.00    +0.000 C 
ATOM     13  C   UNL     1      -9.304   3.646 133.772  0.00  0.00    +0.000 C 
ENDBRANCH  11  12
ENDBRANCH   5  11
BRANCH   5  14
ATOM     14  C   UNL     1      -8.525   4.730 129.877  0.00  0.00    +0.000 C 
BRANCH  14  15
ATOM     15  C   UNL     1      -8.869   5.761 130.960  0.00  0.00    +0.000 C 
BRANCH  15  16
ATOM     16  C   UNL     1     -10.131   6.481 130.658  0.00  0.00    +0.000 A 
ATOM     17  C   UNL     1     -10.228   7.302 129.538  0.00  0.00    +0.000 A 
ATOM     18  C   UNL     1     -11.349   8.082 129.358  0.00  0.00    +0.000 A 
ATOM     19  C   UNL     1     -12.425   7.942 130.228  0.00  0.00    +0.000 A 
ATOM     20  C   UNL     1     -12.348   7.097 131.335  0.00  0.00    +0.000 A 
ATOM     21  C   UNL     1     -11.191   6.377 131.565  0.00  0.00    +0.000 A 
ENDBRANCH  15  16
ENDBRANCH  14  15
ENDBRANCH   5  14
ENDBRANCH   1   2
BRANCH   1  22
ATOM     22  C   UNL     1      -7.288  -1.247 128.108  0.00  0.00    +0.000 A 
ATOM     23  C   UNL     1      -8.179  -1.520 127.051  0.00  0.00    +0.000 A 
ATOM     24  C   UNL     1      -8.781  -2.766 126.890  0.00  0.00    +0.000 A 
ATOM     25  C   UNL     1      -8.594  -3.725 127.879  0.00  0.00    +0.000 A 
ATOM     26  C   UNL     1      -7.853  -3.432 129.010  0.00  0.00    +0.000 A 
ATOM     27  C   UNL     1      -7.165  -2.236 129.096  0.00  0.00    +0.000 A 
BRANCH  24  28
ATOM     28  N   UNL     1      -9.614  -2.979 125.748  0.00  0.00    +0.000 N 
ATOM     29  H   UNL     1     -10.609  -3.131 125.886  0.00  0.00    +0.000 HD
BRANCH  28  30
ATOM     30  S   UNL     1      -8.913  -2.963 124.217  0.00  0.00    +0.000 S 
ATOM     31  O   UNL     1      -7.656  -3.677 124.333  0.00  0.00    +0.000 OA
ATOM     32  O   UNL     1      -9.939  -3.381 123.280  0.00  0.00    +0.000 OA
BRANCH  30  33
ATOM     33  C   UNL     1      -8.532  -1.264 123.840  0.00  0.00    +0.000 A 
ATOM     34  N   UNL     1      -9.623  -0.452 123.892  0.00  0.00    +0.000 NA
ATOM     35  C   UNL     1      -9.431   0.849 123.609  0.00  0.00    +0.000 A 
ATOM     36  C   UNL     1      -8.195   1.383 123.279  0.00  0.00    +0.000 A 
ATOM     37  C   UNL     1      -7.091   0.517 123.244  0.00  0.00    +0.000 A 
ATOM     38  C   UNL     1      -7.252  -0.836 123.537  0.00  0.00    +0.000 A 
BRANCH  36  39
ATOM     39  C   UNL     1      -8.085   2.844 122.977  0.00  0.00    +0.000 C 
ATOM     40  F   UNL     1      -6.860   3.187 122.498  0.00  0.00    +0.000 F 
ATOM     41  F   UNL     1      -8.984   3.251 122.039  0.00  0.00    +0.000 F 
ATOM     42  F   UNL     1      -8.298   3.633 124.066  0.00  0.00    +0.000 F 
ENDBRANCH  36  39
ENDBRANCH  30  33
ENDBRANCH  28  30
ENDBRANCH  24  28
ENDBRANCH   1  22
BRANCH   1  43
ATOM     43  C   UNL     1      -5.995   0.494 126.766  0.00  0.00    +0.000 C 
ATOM     44  C   UNL     1      -5.528   1.895 126.394  0.00  0.00    +0.000 C 
ENDBRANCH   1  43
TORSDOF 13
ENDMDL
MODEL 2
REMARK VINA RESULT:      -9.5      4.399      7.274
REMARK  Name = Tipranavir
REMARK  15 active torsions:
REMARK  status: ('A' for Active; 'I' for Inactive)
REMARK    1  A    between atoms: C_2  and  C_3
REMARK    2  A    between atoms: C_2  and  C_5
REMARK    3  A    between atoms: C_2  and  C_25
REMARK    4  A    between atoms: C_3  and  C_4
REMARK    5  A    between atoms: C_7  and  N_8
REMARK    6  A    between atoms: N_8  and  S_9
REMARK    7  A    between atoms: S_9  and  C_12
REMARK    8  A    between atoms: C_15  and  C_18
REMARK    9  A    between atoms: C_26  and  O_27
REMARK   10  A    between atoms: C_29  and  C_30
REMARK   11  A    between atoms: C_29  and  C_33
REMARK   12  A    between atoms: C_30  and  C_31
REMARK   13  A    between atoms: C_31  and  C_32
REMARK   14  A    between atoms: C_33  and  C_34
REMARK   15  A    between atoms: C_34  and  C_35
REMARK                            x       y       z     vdW  Elec       q    Type
REMARK                         _______ _______ _______ _____ _____    ______ ____
ROOT
ATOM      1  C   UNL     1      -7.929  -1.854 125.479  0.00  0.00    +0.000 C 
ENDROOT
BRANCH   1   2
ATOM      2  C   UNL     1      -7.890  -0.343 125.150  0.00  0.00    +0.000 C 
ATOM      3  C   UNL     1      -6.722   0.296 124.970  0.00  0.00    +0.000 C 
ATOM      4  C   UNL     1      -6.533   1.633 124.481  0.00  0.00    +0.000 C 
ATOM      5  C   UNL     1      -7.749   2.482 124.512  0.00  0.00    +0.000 C 
ATOM      6  O   UNL     1      -8.941   1.871 124.965  0.00  0.00    +0.000 OA
ATOM      7  C   UNL     1      -9.135   0.540 125.040  0.00  0.00    +0.000 C 
ATOM      8  O   UNL     1     -10.288   0.218 125.117  0.00  0.00    +0.000 OA
BRANCH   3   9
ATOM      9  O   UNL     1      -5.459  -0.138 125.168  0.00  0.00    +0.000 OA
ATOM     10  H   UNL     1      -4.874   0.620 125.221  0.00  0.00    +0.000 HD
ENDBRANCH   3   9
BRANCH   5  11
ATOM     11  C   UNL     1      -7.502   3.578 125.544  0.00  0.00    +0.000 C 
BRANCH  11  12
ATOM     12  C   UNL     1      -6.493   4.620 124.980  0.00  0.00    +0.000 C 
ATOM     13  C   UNL     1      -5.647   5.174 126.091  0.00  0.00    +0.000 C 
ENDBRANCH  11  12
ENDBRANCH   5  11
BRANCH   5  14
ATOM     14  C   UNL     1      -8.005   2.848 123.070  0.00  0.00    +0.000 C 
BRANCH  14  15
ATOM     15  C   UNL     1      -6.852   2.423 122.152  0.00  0.00    +0.000 C 
BRANCH  15  16
ATOM     16  C   UNL     1      -6.414   3.528 121.265  0.00  0.00    +0.000 A 
ATOM     17  C   UNL     1      -7.147   3.856 120.127  0.00  0.00    +0.000 A 
ATOM     18  C   UNL     1      -6.645   4.777 119.234  0.00  0.00    +0.000 A 
ATOM     19  C   UNL     1      -5.476   5.463 119.544  0.00  0.00    +0.000 A 
ATOM     20  C   UNL     1      -4.752   5.162 120.698  0.00  0.00    +0.000 A 
ATOM     21  C   UNL     1      -5.209   4.178 121.554  0.00  0.00    +0.000 A 
ENDBRANCH  15  16
ENDBRANCH  14  15
ENDBRANCH   5  14
ENDBRANCH   1   2
BRANCH   1  22
ATOM     22  C   UNL     1      -7.949  -2.195 126.984  0.00  0.00    +0.000 A 
ATOM     23  C   UNL     1      -7.129  -1.506 127.901  0.00  0.00    +0.000 A 
ATOM     24  C   UNL     1      -7.188  -1.742 129.273  0.00  0.00    +0.000 A 
ATOM     25  C   UNL     1      -7.987  -2.782 129.732  0.00  0.00    +0.000 A 
ATOM     26  C   UNL     1      -8.681  -3.581 128.841  0.00  0.00    +0.000 A 
ATOM     27  C   UNL     1      -8.707  -3.257 127.497  0.00  0.00    +0.000 A 
BRANCH  24  28
ATOM     28  N   UNL     1      -6.375  -0.946 130.137  0.00  0.00    +0.000 N 
ATOM     29  H   UNL     1      -5.596  -1.382 130.621  0.00  0.00    +0.000 HD
BRANCH  28  30
ATOM     30  S   UNL     1      -6.736   0.689 130.315  0.00  0.00    +0.000 S 
ATOM     31  O   UNL     1      -7.958   0.924 129.569  0.00  0.00    +0.000 OA
ATOM     32  O   UNL     1      -6.644   0.989 131.731  0.00  0.00    +0.000 OA
BRANCH  30  33
ATOM     33  C   UNL     1      -5.433   1.598 129.509  0.00  0.00    +0.000 A 
ATOM     34  N   UNL     1      -5.362   1.350 128.173  0.00  0.00    +0.000 NA
ATOM     35  C   UNL     1      -4.397   1.985 127.484  0.00  0.00    +0.000 A 
ATOM     36  C   UNL     1      -3.497   2.865 128.066  0.00  0.00    +0.000 A 
ATOM     37  C   UNL     1      -3.606   3.103 129.445  0.00  0.00    +0.000 A 
ATOM     38  C   UNL     1      -4.597   2.466 130.190  0.00  0.00    +0.000 A 
BRANCH  36  39
ATOM     39  C   UNL     1      -2.457   3.519 127.213  0.00  0.00    +0.000 C 
ATOM     40  F   UNL     1      -1.296   2.811 127.170  0.00  0.00    +0.000 F 
ATOM     41  F   UNL     1      -2.858   3.664 125.921  0.00  0.00    +0.000 F 
ATOM     42  F   UNL     1      -2.119   4.766 127.642  0.00  0.00    +0.000 F 
ENDBRANCH  36  39
ENDBRANCH  30  33
ENDBRANCH  28  30
ENDBRANCH  24  28
ENDBRANCH   1  22
BRANCH   1  43
ATOM     43  C   UNL     1      -9.094  -2.692 124.760  0.00  0.00    +0.000 C 
ATOM     44  C   UNL     1      -9.227  -2.809 123.248  0.00  0.00    +0.000 C 
ENDBRANCH   1  43
TORSDOF 13
ENDMDL
MODEL 3
REMARK VINA RESULT:      -9.3      4.170      6.776
REMARK  Name = Tipranavir
REMARK  15 active torsions:
REMARK  status: ('A' for Active; 'I' for Inactive)
REMARK    1  A    between atoms: C_2  and  C_3
REMARK    2  A    between atoms: C_2  and  C_5
REMARK    3  A    between atoms: C_2  and  C_25
REMARK    4  A    between atoms: C_3  and  C_4
REMARK    5  A    between atoms: C_7  and  N_8
REMARK    6  A    between atoms: N_8  and  S_9
REMARK    7  A    between atoms: S_9  and  C_12
REMARK    8  A    between atoms: C_15  and  C_18
REMARK    9  A    between atoms: C_26  and  O_27
REMARK   10  A    between atoms: C_29  and  C_30
REMARK   11  A    between atoms: C_29  and  C_33
REMARK   12  A    between atoms: C_30  and  C_31
REMARK   13  A    between atoms: C_31  and  C_32
REMARK   14  A    between atoms: C_33  and  C_34
REMARK   15  A    between atoms: C_34  and  C_35
REMARK                            x       y       z     vdW  Elec       q    Type
REMARK                         _______ _______ _______ _____ _____    ______ ____
ROOT
ATOM      1  C   UNL     1      -4.711   3.091 128.538  0.00  0.00    +0.000 C 
ENDROOT
BRANCH   1   2
ATOM      2  C   UNL     1      -5.543   3.094 127.234  0.00  0.00    +0.000 C 
ATOM      3  C   UNL     1      -6.559   3.958 127.064  0.00  0.00    +0.000 C 
ATOM      4  C   UNL     1      -7.290   4.205 125.853  0.00  0.00    +0.000 C 
ATOM      5  C   UNL     1      -7.128   3.166 124.807  0.00  0.00    +0.000 C 
ATOM      6  O   UNL     1      -6.249   2.098 125.101  0.00  0.00    +0.000 OA
ATOM      7  C   UNL     1      -5.317   2.124 126.073  0.00  0.00    +0.000 C 
ATOM      8  O   UNL     1      -4.464   1.289 125.953  0.00  0.00    +0.000 OA
BRANCH   3   9
ATOM      9  O   UNL     1      -7.126   4.810 127.943  0.00  0.00    +0.000 OA
ATOM     10  H   UNL     1      -6.529   5.544 128.095  0.00  0.00    +0.000 HD
ENDBRANCH   3   9
BRANCH   5  11
ATOM     11  C   UNL     1      -8.480   2.476 124.650  0.00  0.00    +0.000 C 
BRANCH  11  12
ATOM     12  C   UNL     1      -8.358   0.976 125.048  0.00  0.00    +0.000 C 
ATOM     13  C   UNL     1      -9.020   0.739 126.376  0.00  0.00    +0.000 C 
ENDBRANCH  11  12
ENDBRANCH   5  11
BRANCH   5  14
ATOM     14  C   UNL     1      -6.510   3.888 123.634  0.00  0.00    +0.000 C 
BRANCH  14  15
ATOM     15  C   UNL     1      -6.523   3.036 122.359  0.00  0.00    +0.000 C 
BRANCH  15  16
ATOM     16  C   UNL     1      -6.476   3.872 121.134  0.00  0.00    +0.000 A 
ATOM     17  C   UNL     1      -7.531   3.856 120.225  0.00  0.00    +0.000 A 
ATOM     18  C   UNL     1      -7.405   4.514 119.022  0.00  0.00    +0.000 A 
ATOM     19  C   UNL     1      -6.278   5.294 118.784  0.00  0.00    +0.000 A 
ATOM     20  C   UNL     1      -5.230   5.341 119.704  0.00  0.00    +0.000 A 
ATOM     21  C   UNL     1      -5.317   4.612 120.876  0.00  0.00    +0.000 A 
ENDBRANCH  15  16
ENDBRANCH  14  15
ENDBRANCH   5  14
ENDBRANCH   1   2
BRANCH   1  22
ATOM     22  C   UNL     1      -4.907   1.850 129.435  0.00  0.00    +0.000 A 
ATOM     23  C   UNL     1      -5.909   0.898 129.157  0.00  0.00    +0.000 A 
ATOM     24  C   UNL     1      -6.053  -0.268 129.905  0.00  0.00    +0.000 A 
ATOM     25  C   UNL     1      -5.266  -0.429 131.040  0.00  0.00    +0.000 A 
ATOM     26  C   UNL     1      -4.385   0.563 131.429  0.00  0.00    +0.000 A 
ATOM     27  C   UNL     1      -4.168   1.656 130.610  0.00  0.00    +0.000 A 
BRANCH  24  28
ATOM     28  N   UNL     1      -7.048  -1.215 129.508  0.00  0.00    +0.000 N 
ATOM     29  H   UNL     1      -8.024  -1.016 129.705  0.00  0.00    +0.000 HD
BRANCH  28  30
ATOM     30  S   UNL     1      -6.562  -2.623 128.723  0.00  0.00    +0.000 S 
ATOM     31  O   UNL     1      -5.147  -2.470 128.441  0.00  0.00    +0.000 OA
ATOM     32  O   UNL     1      -7.062  -3.736 129.507  0.00  0.00    +0.000 OA
BRANCH  30  33
ATOM     33  C   UNL     1      -7.418  -2.666 127.161  0.00  0.00    +0.000 A 
ATOM     34  N   UNL     1      -6.624  -2.323 126.111  0.00  0.00    +0.000 NA
ATOM     35  C   UNL     1      -7.191  -2.316 124.892  0.00  0.00    +0.000 A 
ATOM     36  C   UNL     1      -8.520  -2.641 124.667  0.00  0.00    +0.000 A 
ATOM     37  C   UNL     1      -9.307  -2.999 125.772  0.00  0.00    +0.000 A 
ATOM     38  C   UNL     1      -8.751  -3.022 127.051  0.00  0.00    +0.000 A 
BRANCH  36  39
ATOM     39  C   UNL     1      -9.058  -2.600 123.272  0.00  0.00    +0.000 C 
ATOM     40  F   UNL     1      -9.914  -3.624 123.012  0.00  0.00    +0.000 F 
ATOM     41  F   UNL     1      -9.748  -1.455 123.013  0.00  0.00    +0.000 F 
ATOM     42  F   UNL     1      -8.086  -2.674 122.321  0.00  0.00    +0.000 F 
ENDBRANCH  36  39
ENDBRANCH  30  33
ENDBRANCH  28  30
ENDBRANCH  24  28
ENDBRANCH   1  22
BRANCH   1  43
ATOM     43  C   UNL     1      -3.135   3.334 128.357  0.00  0.00    +0.000 C 
ATOM     44  C   UNL     1      -2.550   4.602 127.751  0.00  0.00    +0.000 C 
ENDBRANCH   1  43
TORSDOF 13
ENDMDL
MODEL 4
REMARK VINA RESULT:      -9.3      3.277      5.060
REMARK  Name = Tipranavir
REMARK  15 active torsions:
REMARK  status: ('A' for Active; 'I' for Inactive)
REMARK    1  A    between atoms: C_2  and  C_3
REMARK    2  A    between atoms: C_2  and  C_5
REMARK    3  A    between atoms: C_2  and  C_25
REMARK    4  A    between atoms: C_3  and  C_4
REMARK    5  A    between atoms: C_7  and  N_8
REMARK    6  A    between atoms: N_8  and  S_9
REMARK    7  A    between atoms: S_9  and  C_12
REMARK    8  A    between atoms: C_15  and  C_18
REMARK    9  A    between atoms: C_26  and  O_27
REMARK   10  A    between atoms: C_29  and  C_30
REMARK   11  A    between atoms: C_29  and  C_33
REMARK   12  A    between atoms: C_30  and  C_31
REMARK   13  A    between atoms: C_31  and  C_32
REMARK   14  A    between atoms: C_33  and  C_34
REMARK   15  A    between atoms: C_34  and  C_35
REMARK                            x       y       z     vdW  Elec       q    Type
REMARK                         _______ _______ _______ _____ _____    ______ ____
ROOT
ATOM      1  C   UNL     1      -8.368   1.975 129.421  0.00  0.00    +0.000 C 
ENDROOT
BRANCH   1   2
ATOM      2  C   UNL     1      -8.900   3.421 129.552  0.00  0.00    +0.000 C 
ATOM      3  C   UNL     1      -9.941   3.705 130.354  0.00  0.00    +0.000 C 
ATOM      4  C   UNL     1     -10.420   5.008 130.720  0.00  0.00    +0.000 C 
ATOM      5  C   UNL     1      -9.932   6.113 129.860  0.00  0.00    +0.000 C 
ATOM      6  O   UNL     1      -9.028   5.767 128.829  0.00  0.00    +0.000 OA
ATOM      7  C   UNL     1      -8.332   4.615 128.782  0.00  0.00    +0.000 C 
ATOM      8  O   UNL     1      -7.390   4.644 128.039  0.00  0.00    +0.000 OA
BRANCH   3   9
ATOM      9  O   UNL     1     -10.768   2.876 131.023  0.00  0.00    +0.000 OA
ATOM     10  H   UNL     1     -10.355   2.014 131.094  0.00  0.00    +0.000 HD
ENDBRANCH   3   9
BRANCH   5  11
ATOM     11  C   UNL     1     -11.139   6.657 129.102  0.00  0.00    +0.000 C 
BRANCH  11  12
ATOM     12  C   UNL     1     -10.808   8.060 128.515  0.00  0.00    +0.000 C 
ATOM     13  C   UNL     1     -10.926   8.034 127.017  0.00  0.00    +0.000 C 
ENDBRANCH  11  12
ENDBRANCH   5  11
BRANCH   5  14
ATOM     14  C   UNL     1      -9.157   7.017 130.790  0.00  0.00    +0.000 C 
BRANCH  14  15
ATOM     15  C   UNL     1      -8.562   6.251 131.978  0.00  0.00    +0.000 C 
BRANCH  15  16
ATOM     16  C   UNL     1      -7.085   6.370 132.030  0.00  0.00    +0.000 A 
ATOM     17  C   UNL     1      -6.387   6.989 130.996  0.00  0.00    +0.000 A 
ATOM     18  C   UNL     1      -5.010   6.953 130.984  0.00  0.00    +0.000 A 
ATOM     19  C   UNL     1      -4.332   6.413 132.071  0.00  0.00    +0.000 A 
ATOM     20  C   UNL     1      -5.023   5.820 133.127  0.00  0.00    +0.000 A 
ATOM     21  C   UNL     1      -6.405   5.778 133.100  0.00  0.00    +0.000 A 
ENDBRANCH  15  16
ENDBRANCH  14  15
ENDBRANCH   5  14
ENDBRANCH   1   2
BRANCH   1  22
ATOM     22  C   UNL     1      -7.660   1.659 128.086  0.00  0.00    +0.000 A 
ATOM     23  C   UNL     1      -8.394   1.398 126.912  0.00  0.00    +0.000 A 
ATOM     24  C   UNL     1      -7.777   1.189 125.681  0.00  0.00    +0.000 A 
ATOM     25  C   UNL     1      -6.390   1.106 125.641  0.00  0.00    +0.000 A 
ATOM     26  C   UNL     1      -5.647   1.199 126.804  0.00  0.00    +0.000 A 
ATOM     27  C   UNL     1      -6.267   1.527 127.996  0.00  0.00    +0.000 A 
BRANCH  24  28
ATOM     28  N   UNL     1      -8.600   1.004 124.527  0.00  0.00    +0.000 N 
ATOM     29  H   UNL     1      -8.836   1.811 123.956  0.00  0.00    +0.000 HD
BRANCH  28  30
ATOM     30  S   UNL     1      -9.144  -0.545 124.156  0.00  0.00    +0.000 S 
ATOM     31  O   UNL     1      -9.845  -1.028 125.331  0.00  0.00    +0.000 OA
ATOM     32  O   UNL     1      -9.798  -0.464 122.864  0.00  0.00    +0.000 OA
BRANCH  30  33
ATOM     33  C   UNL     1      -7.698  -1.563 123.939  0.00  0.00    +0.000 A 
ATOM     34  N   UNL     1      -7.601  -2.552 124.868  0.00  0.00    +0.000 NA
ATOM     35  C   UNL     1      -6.531  -3.363 124.789  0.00  0.00    +0.000 A 
ATOM     36  C   UNL     1      -5.549  -3.237 123.817  0.00  0.00    +0.000 A 
ATOM     37  C   UNL     1      -5.688  -2.212 122.869  0.00  0.00    +0.000 A 
ATOM     38  C   UNL     1      -6.786  -1.355 122.918  0.00  0.00    +0.000 A 
BRANCH  36  39
ATOM     39  C   UNL     1      -4.395  -4.189 123.816  0.00  0.00    +0.000 C 
ATOM     40  F   UNL     1      -3.936  -4.454 125.068  0.00  0.00    +0.000 F 
ATOM     41  F   UNL     1      -4.714  -5.394 123.268  0.00  0.00    +0.000 F 
ATOM     42  F   UNL     1      -3.323  -3.730 123.113  0.00  0.00    +0.000 F 
ENDBRANCH  36  39
ENDBRANCH  30  33
ENDBRANCH  28  30
ENDBRANCH  24  28
ENDBRANCH   1  22
BRANCH   1  43
ATOM     43  C   UNL     1      -7.428   1.468 130.619  0.00  0.00    +0.000 C 
ATOM     44  C   UNL     1      -6.676   2.413 131.546  0.00  0.00    +0.000 C 
ENDBRANCH   1  43
TORSDOF 13
ENDMDL
MODEL 5
REMARK VINA RESULT:      -9.3      2.974      4.652
REMARK  Name = Tipranavir
REMARK  15 active torsions:
REMARK  status: ('A' for Active; 'I' for Inactive)
REMARK    1  A    between atoms: C_2  and  C_3
REMARK    2  A    between atoms: C_2  and  C_5
REMARK    3  A    between atoms: C_2  and  C_25
REMARK    4  A    between atoms: C_3  and  C_4
REMARK    5  A    between atoms: C_7  and  N_8
REMARK    6  A    between atoms: N_8  and  S_9
REMARK    7  A    between atoms: S_9  and  C_12
REMARK    8  A    between atoms: C_15  and  C_18
REMARK    9  A    between atoms: C_26  and  O_27
REMARK   10  A    between atoms: C_29  and  C_30
REMARK   11  A    between atoms: C_29  and  C_33
REMARK   12  A    between atoms: C_30  and  C_31
REMARK   13  A    between atoms: C_31  and  C_32
REMARK   14  A    between atoms: C_33  and  C_34
REMARK   15  A    between atoms: C_34  and  C_35
REMARK                            x       y       z     vdW  Elec       q    Type
REMARK                         _______ _______ _______ _____ _____    ______ ____
ROOT
ATOM      1  C   UNL     1      -5.589   3.269 126.702  0.00  0.00    +0.000 C 
ENDROOT
BRANCH   1   2
ATOM      2  C   UNL     1      -6.642   3.678 127.759  0.00  0.00    +0.000 C 
ATOM      3  C   UNL     1      -6.524   3.288 129.039  0.00  0.00    +0.000 C 
ATOM      4  C   UNL     1      -7.306   3.738 130.156  0.00  0.00    +0.000 C 
ATOM      5  C   UNL     1      -8.568   4.428 129.792  0.00  0.00    +0.000 C 
ATOM      6  O   UNL     1      -8.823   4.602 128.412  0.00  0.00    +0.000 OA
ATOM      7  C   UNL     1      -7.890   4.507 127.446  0.00  0.00    +0.000 C 
ATOM      8  O   UNL     1      -8.211   5.009 126.405  0.00  0.00    +0.000 OA
BRANCH   3   9
ATOM      9  O   UNL     1      -5.658   2.421 129.602  0.00  0.00    +0.000 OA
ATOM     10  H   UNL     1      -5.064   2.904 130.180  0.00  0.00    +0.000 HD
ENDBRANCH   3   9
BRANCH   5  11
ATOM     11  C   UNL     1      -9.716   3.533 130.251  0.00  0.00    +0.000 C 
BRANCH  11  12
ATOM     12  C   UNL     1      -9.153   2.194 130.812  0.00  0.00    +0.000 C 
ATOM     13  C   UNL     1      -9.909   1.794 132.047  0.00  0.00    +0.000 C 
ENDBRANCH  11  12
ENDBRANCH   5  11
BRANCH   5  14
ATOM     14  C   UNL     1      -8.426   5.821 130.356  0.00  0.00    +0.000 C 
BRANCH  14  15
ATOM     15  C   UNL     1      -9.697   6.284 131.080  0.00  0.00    +0.000 C 
BRANCH  15  16
ATOM     16  C   UNL     1     -10.622   7.002 130.170  0.00  0.00    +0.000 A 
ATOM     17  C   UNL     1     -10.127   7.800 129.141  0.00  0.00    +0.000 A 
ATOM     18  C   UNL     1     -10.991   8.580 128.406  0.00  0.00    +0.000 A 
ATOM     19  C   UNL     1     -12.361   8.464 128.613  0.00  0.00    +0.000 A 
ATOM     20  C   UNL     1     -12.868   7.642 129.620  0.00  0.00    +0.000 A 
ATOM     21  C   UNL     1     -11.997   6.922 130.417  0.00  0.00    +0.000 A 
ENDBRANCH  15  16
ENDBRANCH  14  15
ENDBRANCH   5  14
ENDBRANCH   1   2
BRANCH   1  22
ATOM     22  C   UNL     1      -6.142   3.063 125.275  0.00  0.00    +0.000 A 
ATOM     23  C   UNL     1      -7.045   2.020 124.985  0.00  0.00    +0.000 A 
ATOM     24  C   UNL     1      -7.617   1.863 123.725  0.00  0.00    +0.000 A 
ATOM     25  C   UNL     1      -7.180   2.684 122.691  0.00  0.00    +0.000 A 
ATOM     26  C   UNL     1      -6.177   3.612 122.908  0.00  0.00    +0.000 A 
ATOM     27  C   UNL     1      -5.708   3.837 124.190  0.00  0.00    +0.000 A 
BRANCH  24  28
ATOM     28  N   UNL     1      -8.580   0.823 123.537  0.00  0.00    +0.000 N 
ATOM     29  H   UNL     1      -9.568   1.060 123.545  0.00  0.00    +0.000 HD
BRANCH  28  30
ATOM     30  S   UNL     1      -8.038  -0.754 123.306  0.00  0.00    +0.000 S 
ATOM     31  O   UNL     1      -9.024  -1.409 122.467  0.00  0.00    +0.000 OA
ATOM     32  O   UNL     1      -6.645  -0.667 122.911  0.00  0.00    +0.000 OA
BRANCH  30  33
ATOM     33  C   UNL     1      -8.074  -1.552 124.898  0.00  0.00    +0.000 A 
ATOM     34  N   UNL     1      -9.225  -2.243 125.119  0.00  0.00    +0.000 NA
ATOM     35  C   UNL     1      -9.344  -2.869 126.304  0.00  0.00    +0.000 A 
ATOM     36  C   UNL     1      -8.363  -2.842 127.283  0.00  0.00    +0.000 A 
ATOM     37  C   UNL     1      -7.185  -2.127 127.016  0.00  0.00    +0.000 A 
ATOM     38  C   UNL     1      -7.024  -1.470 125.797  0.00  0.00    +0.000 A 
BRANCH  36  39
ATOM     39  C   UNL     1      -8.593  -3.568 128.570  0.00  0.00    +0.000 C 
ATOM     40  F   UNL     1      -9.718  -4.332 128.544  0.00  0.00    +0.000 F 
ATOM     41  F   UNL     1      -7.571  -4.411 128.883  0.00  0.00    +0.000 F 
ATOM     42  F   UNL     1      -8.731  -2.735 129.638  0.00  0.00    +0.000 F 
ENDBRANCH  36  39
ENDBRANCH  30  33
ENDBRANCH  28  30
ENDBRANCH  24  28
ENDBRANCH   1  22
BRANCH   1  43
ATOM     43  C   UNL     1      -4.296   4.217 126.605  0.00  0.00    +0.000 C 
ATOM     44  C   UNL     1      -2.870   3.686 126.619  0.00  0.00    +0.000 C 
ENDBRANCH   1  43
TORSDOF 13
ENDMDL
MODEL 6
REMARK VINA RESULT:      -9.2      1.420      2.345
REMARK  Name = Tipranavir
REMARK  15 active torsions:
REMARK  status: ('A' for Active; 'I' for Inactive)
REMARK    1  A    between atoms: C_2  and  C_3
REMARK    2  A    between atoms: C_2  and  C_5
REMARK    3  A    between atoms: C_2  and  C_25
REMARK    4  A    between atoms: C_3  and  C_4
REMARK    5  A    between atoms: C_7  and  N_8
REMARK    6  A    between atoms: N_8  and  S_9
REMARK    7  A    between atoms: S_9  and  C_12
REMARK    8  A    between atoms: C_15  and  C_18
REMARK    9  A    between atoms: C_26  and  O_27
REMARK   10  A    between atoms: C_29  and  C_30
REMARK   11  A    between atoms: C_29  and  C_33
REMARK   12  A    between atoms: C_30  and  C_31
REMARK   13  A    between atoms: C_31  and  C_32
REMARK   14  A    between atoms: C_33  and  C_34
REMARK   15  A    between atoms: C_34  and  C_35
REMARK                            x       y       z     vdW  Elec       q    Type
REMARK                         _______ _______ _______ _____ _____    ______ ____
ROOT
ATOM      1  C   UNL     1      -6.508   0.029 128.144  0.00  0.00    +0.000 C 
ENDROOT
BRANCH   1   2
ATOM      2  C   UNL     1      -7.238   1.184 128.869  0.00  0.00    +0.000 C 
ATOM      3  C   UNL     1      -6.882   1.558 130.109  0.00  0.00    +0.000 C 
ATOM      4  C   UNL     1      -7.332   2.718 130.826  0.00  0.00    +0.000 C 
ATOM      5  C   UNL     1      -8.552   3.354 130.273  0.00  0.00    +0.000 C 
ATOM      6  O   UNL     1      -9.090   2.784 129.096  0.00  0.00    +0.000 OA
ATOM      7  C   UNL     1      -8.418   1.957 128.273  0.00  0.00    +0.000 C 
ATOM      8  O   UNL     1      -8.904   1.851 127.182  0.00  0.00    +0.000 OA
BRANCH   3   9
ATOM      9  O   UNL     1      -6.019   0.981 130.971  0.00  0.00    +0.000 OA
ATOM     10  H   UNL     1      -6.459   0.252 131.412  0.00  0.00    +0.000 HD
ENDBRANCH   3   9
BRANCH   5  11
ATOM     11  C   UNL     1      -9.664   3.157 131.299  0.00  0.00    +0.000 C 
BRANCH  11  12
ATOM     12  C   UNL     1      -9.074   2.568 132.613  0.00  0.00    +0.000 C 
ATOM     13  C   UNL     1      -9.304   3.518 133.755  0.00  0.00    +0.000 C 
ENDBRANCH  11  12
ENDBRANCH   5  11
BRANCH   5  14
ATOM     14  C   UNL     1      -8.122   4.749 129.886  0.00  0.00    +0.000 C 
BRANCH  14  15
ATOM     15  C   UNL     1      -8.245   5.737 131.053  0.00  0.00    +0.000 C 
BRANCH  15  16
ATOM     16  C   UNL     1      -6.920   6.117 131.599  0.00  0.00    +0.000 A 
ATOM     17  C   UNL     1      -6.003   6.812 130.814  0.00  0.00    +0.000 A 
ATOM     18  C   UNL     1      -4.724   7.019 131.282  0.00  0.00    +0.000 A 
ATOM     19  C   UNL     1      -4.403   6.647 132.582  0.00  0.00    +0.000 A 
ATOM     20  C   UNL     1      -5.326   5.979 133.387  0.00  0.00    +0.000 A 
ATOM     21  C   UNL     1      -6.584   5.694 132.890  0.00  0.00    +0.000 A 
ENDBRANCH  15  16
ENDBRANCH  14  15
ENDBRANCH   5  14
ENDBRANCH   1   2
BRANCH   1  22
ATOM     22  C   UNL     1      -7.298  -1.295 128.064  0.00  0.00    +0.000 A 
ATOM     23  C   UNL     1      -8.179  -1.557 126.996  0.00  0.00    +0.000 A 
ATOM     24  C   UNL     1      -8.842  -2.776 126.862  0.00  0.00    +0.000 A 
ATOM     25  C   UNL     1      -8.729  -3.707 127.887  0.00  0.00    +0.000 A 
ATOM     26  C   UNL     1      -7.999  -3.414 129.026  0.00  0.00    +0.000 A 
ATOM     27  C   UNL     1      -7.251  -2.253 129.087  0.00  0.00    +0.000 A 
BRANCH  24  28
ATOM     28  N   UNL     1      -9.659  -2.985 125.708  0.00  0.00    +0.000 N 
ATOM     29  H   UNL     1     -10.656  -3.137 125.831  0.00  0.00    +0.000 HD
BRANCH  28  30
ATOM     30  S   UNL     1      -8.937  -2.964 124.187  0.00  0.00    +0.000 S 
ATOM     31  O   UNL     1      -7.681  -3.677 124.318  0.00  0.00    +0.000 OA
ATOM     32  O   UNL     1      -9.949  -3.381 123.235  0.00  0.00    +0.000 OA
BRANCH  30  33
ATOM     33  C   UNL     1      -8.553  -1.263 123.820  0.00  0.00    +0.000 A 
ATOM     34  N   UNL     1      -9.643  -0.450 123.874  0.00  0.00    +0.000 NA
ATOM     35  C   UNL     1      -9.448   0.852 123.599  0.00  0.00    +0.000 A 
ATOM     36  C   UNL     1      -8.210   1.386 123.274  0.00  0.00    +0.000 A 
ATOM     37  C   UNL     1      -7.108   0.519 123.237  0.00  0.00    +0.000 A 
ATOM     38  C   UNL     1      -7.271  -0.836 123.522  0.00  0.00    +0.000 A 
BRANCH  36  39
ATOM     39  C   UNL     1      -8.098   2.848 122.980  0.00  0.00    +0.000 C 
ATOM     40  F   UNL     1      -6.873   3.192 122.501  0.00  0.00    +0.000 F 
ATOM     41  F   UNL     1      -8.998   3.263 122.047  0.00  0.00    +0.000 F 
ATOM     42  F   UNL     1      -8.307   3.632 124.074  0.00  0.00    +0.000 F 
ENDBRANCH  36  39
ENDBRANCH  30  33
ENDBRANCH  28  30
ENDBRANCH  24  28
ENDBRANCH   1  22
BRANCH   1  43
ATOM     43  C   UNL     1      -5.952   0.369 126.677  0.00  0.00    +0.000 C 
ATOM     44  C   UNL     1      -5.242   1.672 126.336  0.00  0.00    +0.000 C 
ENDBRANCH   1  43
TORSDOF 13
ENDMDL
MODEL 7
REMARK VINA RESULT:      -9.2      4.393      9.492
REMARK  Name = Tipranavir
REMARK  15 active torsions:
REMARK  status: ('A' for Active; 'I' for Inactive)
REMARK    1  A    between atoms: C_2  and  C_3
REMARK    2  A    between atoms: C_2  and  C_5
REMARK    3  A    between atoms: C_2  and  C_25
REMARK    4  A    between atoms: C_3  and  C_4
REMARK    5  A    between atoms: C_7  and  N_8
REMARK    6  A    between atoms: N_8  and  S_9
REMARK    7  A    between atoms: S_9  and  C_12
REMARK    8  A    between atoms: C_15  and  C_18
REMARK    9  A    between atoms: C_26  and  O_27
REMARK   10  A    between atoms: C_29  and  C_30
REMARK   11  A    between atoms: C_29  and  C_33
REMARK   12  A    between atoms: C_30  and  C_31
REMARK   13  A    between atoms: C_31  and  C_32
REMARK   14  A    between atoms: C_33  and  C_34
REMARK   15  A    between atoms: C_34  and  C_35
REMARK                            x       y       z     vdW  Elec       q    Type
REMARK                         _______ _______ _______ _____ _____    ______ ____
ROOT
ATOM      1  C   UNL     1      -6.345   3.945 125.692  0.00  0.00    +0.000 C 
ENDROOT
BRANCH   1   2
ATOM      2  C   UNL     1      -7.010   2.576 125.414  0.00  0.00    +0.000 C 
ATOM      3  C   UNL     1      -8.312   2.493 125.090  0.00  0.00    +0.000 C 
ATOM      4  C   UNL     1      -9.014   1.330 124.626  0.00  0.00    +0.000 C 
ATOM      5  C   UNL     1      -8.312   0.045 124.860  0.00  0.00    +0.000 C 
ATOM      6  O   UNL     1      -7.032   0.119 125.458  0.00  0.00    +0.000 OA
ATOM      7  C   UNL     1      -6.280   1.235 125.514  0.00  0.00    +0.000 C 
ATOM      8  O   UNL     1      -5.121   1.031 125.745  0.00  0.00    +0.000 OA
BRANCH   3   9
ATOM      9  O   UNL     1      -9.265   3.447 125.089  0.00  0.00    +0.000 OA
ATOM     10  H   UNL     1     -10.091   3.062 124.790  0.00  0.00    +0.000 HD
ENDBRANCH   3   9
BRANCH   5  11
ATOM     11  C   UNL     1      -9.134  -0.734 125.884  0.00  0.00    +0.000 C 
BRANCH  11  12
ATOM     12  C   UNL     1      -8.189  -1.398 126.927  0.00  0.00    +0.000 C 
ATOM     13  C   UNL     1      -8.594  -2.828 127.153  0.00  0.00    +0.000 C 
ENDBRANCH  11  12
ENDBRANCH   5  11
BRANCH   5  14
ATOM     14  C   UNL     1      -8.082  -0.530 123.484  0.00  0.00    +0.000 C 
BRANCH  14  15
ATOM     15  C   UNL     1      -8.234  -2.057 123.462  0.00  0.00    +0.000 C 
BRANCH  15  16
ATOM     16  C   UNL     1      -6.931  -2.745 123.630  0.00  0.00    +0.000 A 
ATOM     17  C   UNL     1      -5.770  -2.209 123.078  0.00  0.00    +0.000 A 
ATOM     18  C   UNL     1      -4.601  -2.937 123.109  0.00  0.00    +0.000 A 
ATOM     19  C   UNL     1      -4.563  -4.140 123.806  0.00  0.00    +0.000 A 
ATOM     20  C   UNL     1      -5.715  -4.668 124.390  0.00  0.00    +0.000 A 
ATOM     21  C   UNL     1      -6.910  -3.981 124.286  0.00  0.00    +0.000 A 
ENDBRANCH  15  16
ENDBRANCH  14  15
ENDBRANCH   5  14
ENDBRANCH   1   2
BRANCH   1  22
ATOM     22  C   UNL     1      -5.673   4.075 127.075  0.00  0.00    +0.000 A 
ATOM     23  C   UNL     1      -6.432   4.314 128.238  0.00  0.00    +0.000 A 
ATOM     24  C   UNL     1      -5.856   4.357 129.506  0.00  0.00    +0.000 A 
ATOM     25  C   UNL     1      -4.471   4.291 129.606  0.00  0.00    +0.000 A 
ATOM     26  C   UNL     1      -3.687   4.216 128.469  0.00  0.00    +0.000 A 
ATOM     27  C   UNL     1      -4.279   4.053 127.230  0.00  0.00    +0.000 A 
BRANCH  24  28
ATOM     28  N   UNL     1      -6.710   4.531 130.638  0.00  0.00    +0.000 N 
ATOM     29  H   UNL     1      -7.157   3.716 131.049  0.00  0.00    +0.000 HD
BRANCH  28  30
ATOM     30  S   UNL     1      -6.940   6.082 131.251  0.00  0.00    +0.000 S 
ATOM     31  O   UNL     1      -6.610   6.019 132.663  0.00  0.00    +0.000 OA
ATOM     32  O   UNL     1      -6.259   6.996 130.354  0.00  0.00    +0.000 OA
BRANCH  30  33
ATOM     33  C   UNL     1      -8.682   6.436 131.124  0.00  0.00    +0.000 A 
ATOM     34  N   UNL     1      -9.004   7.106 129.984  0.00  0.00    +0.000 NA
ATOM     35  C   UNL     1     -10.299   7.426 129.809  0.00  0.00    +0.000 A 
ATOM     36  C   UNL     1     -11.294   7.105 130.719  0.00  0.00    +0.000 A 
ATOM     37  C   UNL     1     -10.926   6.405 131.879  0.00  0.00    +0.000 A 
ATOM     38  C   UNL     1      -9.594   6.052 132.091  0.00  0.00    +0.000 A 
BRANCH  36  39
ATOM     39  C   UNL     1     -12.705   7.509 130.434  0.00  0.00    +0.000 C 
ATOM     40  F   UNL     1     -13.533   7.297 131.492  0.00  0.00    +0.000 F 
ATOM     41  F   UNL     1     -12.817   8.831 130.127  0.00  0.00    +0.000 F 
ATOM     42  F   UNL     1     -13.255   6.835 129.387  0.00  0.00    +0.000 F 
ENDBRANCH  36  39
ENDBRANCH  30  33
ENDBRANCH  28  30
ENDBRANCH  24  28
ENDBRANCH   1  22
BRANCH   1  43
ATOM     43  C   UNL     1      -5.304   4.450 124.579  0.00  0.00    +0.000 C 
ATOM     44  C   UNL     1      -5.520   4.255 123.085  0.00  0.00    +0.000 C 
ENDBRANCH   1  43
TORSDOF 13
ENDMDL
MODEL 8
REMARK VINA RESULT:      -9.1      3.898      7.280
REMARK  Name = Tipranavir
REMARK  15 active torsions:
REMARK  status: ('A' for Active; 'I' for Inactive)
REMARK    1  A    between atoms: C_2  and  C_3
REMARK    2  A    between atoms: C_2  and  C_5
REMARK    3  A    between atoms: C_2  and  C_25
REMARK    4  A    between atoms: C_3  and  C_4
REMARK    5  A    between atoms: C_7  and  N_8
REMARK    6  A    between atoms: N_8  and  S_9
REMARK    7  A    between atoms: S_9  and  C_12
REMARK    8  A    between atoms: C_15  and  C_18
REMARK    9  A    between atoms: C_26  and  O_27
REMARK   10  A    between atoms: C_29  and  C_30
REMARK   11  A    between atoms: C_29  and  C_33
REMARK   12  A    between atoms: C_30  and  C_31
REMARK   13  A    between atoms: C_31  and  C_32
REMARK   14  A    between atoms: C_33  and  C_34
REMARK   15  A    between atoms: C_34  and  C_35
REMARK                            x       y       z     vdW  Elec       q    Type
REMARK                         _______ _______ _______ _____ _____    ______ ____
ROOT
ATOM      1  C   UNL     1      -6.474  -1.660 125.308  0.00  0.00    +0.000 C 
ENDROOT
BRANCH   1   2
ATOM      2  C   UNL     1      -7.004  -0.261 124.916  0.00  0.00    +0.000 C 
ATOM      3  C   UNL     1      -6.269   0.843 125.134  0.00  0.00    +0.000 C 
ATOM      4  C   UNL     1      -6.541   2.170 124.659  0.00  0.00    +0.000 C 
ATOM      5  C   UNL     1      -7.930   2.387 124.184  0.00  0.00    +0.000 C 
ATOM      6  O   UNL     1      -8.793   1.268 124.208  0.00  0.00    +0.000 OA
ATOM      7  C   UNL     1      -8.381  -0.011 124.296  0.00  0.00    +0.000 C 
ATOM      8  O   UNL     1      -9.207  -0.815 123.967  0.00  0.00    +0.000 OA
BRANCH   3   9
ATOM      9  O   UNL     1      -5.112   0.992 125.810  0.00  0.00    +0.000 OA
ATOM     10  H   UNL     1      -4.958   0.208 126.341  0.00  0.00    +0.000 HD
ENDBRANCH   3   9
BRANCH   5  11
ATOM     11  C   UNL     1      -8.589   3.360 125.158  0.00  0.00    +0.000 C 
BRANCH  11  12
ATOM     12  C   UNL     1      -7.498   4.183 125.905  0.00  0.00    +0.000 C 
ATOM     13  C   UNL     1      -7.818   4.252 127.372  0.00  0.00    +0.000 C 
ENDBRANCH  11  12
ENDBRANCH   5  11
BRANCH   5  14
ATOM     14  C   UNL     1      -7.789   2.759 122.728  0.00  0.00    +0.000 C 
BRANCH  14  15
ATOM     15  C   UNL     1      -6.362   3.201 122.378  0.00  0.00    +0.000 C 
BRANCH  15  16
ATOM     16  C   UNL     1      -6.303   3.901 121.072  0.00  0.00    +0.000 A 
ATOM     17  C   UNL     1      -5.219   4.716 120.753  0.00  0.00    +0.000 A 
ATOM     18  C   UNL     1      -5.253   5.479 119.607  0.00  0.00    +0.000 A 
ATOM     19  C   UNL     1      -6.311   5.329 118.717  0.00  0.00    +0.000 A 
ATOM     20  C   UNL     1      -7.386   4.490 119.014  0.00  0.00    +0.000 A 
ATOM     21  C   UNL     1      -7.395   3.788 120.205  0.00  0.00    +0.000 A 
ENDBRANCH  15  16
ENDBRANCH  14  15
ENDBRANCH   5  14
ENDBRANCH   1   2
BRANCH   1  22
ATOM     22  C   UNL     1      -7.160  -2.297 126.535  0.00  0.00    +0.000 A 
ATOM     23  C   UNL     1      -6.600  -2.191 127.824  0.00  0.00    +0.000 A 
ATOM     24  C   UNL     1      -7.242  -2.689 128.956  0.00  0.00    +0.000 A 
ATOM     25  C   UNL     1      -8.406  -3.429 128.786  0.00  0.00    +0.000 A 
ATOM     26  C   UNL     1      -8.895  -3.688 127.518  0.00  0.00    +0.000 A 
ATOM     27  C   UNL     1      -8.315  -3.085 126.417  0.00  0.00    +0.000 A 
BRANCH  24  28
ATOM     28  N   UNL     1      -6.638  -2.472 130.233  0.00  0.00    +0.000 N 
ATOM     29  H   UNL     1      -5.952  -3.139 130.574  0.00  0.00    +0.000 HD
BRANCH  28  30
ATOM     30  S   UNL     1      -7.085  -1.114 131.123  0.00  0.00    +0.000 S 
ATOM     31  O   UNL     1      -8.476  -0.852 130.803  0.00  0.00    +0.000 OA
ATOM     32  O   UNL     1      -6.652  -1.343 132.488  0.00  0.00    +0.000 OA
BRANCH  30  33
ATOM     33  C   UNL     1      -6.125   0.251 130.499  0.00  0.00    +0.000 A 
ATOM     34  N   UNL     1      -6.804   1.431 130.523  0.00  0.00    +0.000 NA
ATOM     35  C   UNL     1      -6.159   2.516 130.058  0.00  0.00    +0.000 A 
ATOM     36  C   UNL     1      -4.861   2.482 129.571  0.00  0.00    +0.000 A 
ATOM     37  C   UNL     1      -4.190   1.250 129.571  0.00  0.00    +0.000 A 
ATOM     38  C   UNL     1      -4.825   0.105 130.050  0.00  0.00    +0.000 A 
BRANCH  36  39
ATOM     39  C   UNL     1      -4.233   3.745 129.073  0.00  0.00    +0.000 C 
ATOM     40  F   UNL     1      -4.041   3.736 127.726  0.00  0.00    +0.000 F 
ATOM     41  F   UNL     1      -4.991   4.844 129.338  0.00  0.00    +0.000 F 
ATOM     42  F   UNL     1      -3.012   3.990 129.624  0.00  0.00    +0.000 F 
ENDBRANCH  36  39
ENDBRANCH  30  33
ENDBRANCH  28  30
ENDBRANCH  24  28
ENDBRANCH   1  22
BRANCH   1  43
ATOM     43  C   UNL     1      -6.445  -2.749 124.129  0.00  0.00    +0.000 C 
ATOM     44  C   UNL     1      -5.336  -3.781 123.973  0.00  0.00    +0.000 C 
ENDBRANCH   1  43
TORSDOF 13
ENDMDL
MODEL 9
REMARK VINA RESULT:      -9.1      3.719      5.662
REMARK  Name = Tipranavir
REMARK  15 active torsions:
REMARK  status: ('A' for Active; 'I' for Inactive)
REMARK    1  A    between atoms: C_2  and  C_3
REMARK    2  A    between atoms: C_2  and  C_5
REMARK    3  A    between atoms: C_2  and  C_25
REMARK    4  A    between atoms: C_3  and  C_4
REMARK    5  A    between atoms: C_7  and  N_8
REMARK    6  A    between atoms: N_8  and  S_9
REMARK    7  A    between atoms: S_9  and  C_12
REMARK    8  A    between atoms: C_15  and  C_18
REMARK    9  A    between atoms: C_26  and  O_27
REMARK   10  A    between atoms: C_29  and  C_30
REMARK   11  A    between atoms: C_29  and  C_33
REMARK   12  A    between atoms: C_30  and  C_31
REMARK   13  A    between atoms: C_31  and  C_32
REMARK   14  A    between atoms: C_33  and  C_34
REMARK   15  A    between atoms: C_34  and  C_35
REMARK                            x       y       z     vdW  Elec       q    Type
REMARK                         _______ _______ _______ _____ _____    ______ ____
ROOT
ATOM      1  C   UNL     1      -4.509   2.623 126.550  0.00  0.00    +0.000 C 
ENDROOT
BRANCH   1   2
ATOM      2  C   UNL     1      -5.317   2.496 127.862  0.00  0.00    +0.000 C 
ATOM      3  C   UNL     1      -5.152   1.441 128.677  0.00  0.00    +0.000 C 
ATOM      4  C   UNL     1      -5.682   1.279 130.002  0.00  0.00    +0.000 C 
ATOM      5  C   UNL     1      -6.785   2.209 130.346  0.00  0.00    +0.000 C 
ATOM      6  O   UNL     1      -7.144   3.162 129.365  0.00  0.00    +0.000 OA
ATOM      7  C   UNL     1      -6.370   3.509 128.320  0.00  0.00    +0.000 C 
ATOM      8  O   UNL     1      -6.681   4.546 127.804  0.00  0.00    +0.000 OA
BRANCH   3   9
ATOM      9  O   UNL     1      -4.449   0.305 128.489  0.00  0.00    +0.000 OA
ATOM     10  H   UNL     1      -5.036  -0.446 128.598  0.00  0.00    +0.000 HD
ENDBRANCH   3   9
BRANCH   5  11
ATOM     11  C   UNL     1      -8.049   1.368 130.498  0.00  0.00    +0.000 C 
BRANCH  11  12
ATOM     12  C   UNL     1      -9.291   2.296 130.631  0.00  0.00    +0.000 C 
ATOM     13  C   UNL     1      -9.972   2.063 131.950  0.00  0.00    +0.000 C 
ENDBRANCH  11  12
ENDBRANCH   5  11
BRANCH   5  14
ATOM     14  C   UNL     1      -6.268   3.010 131.517  0.00  0.00    +0.000 C 
BRANCH  14  15
ATOM     15  C   UNL     1      -4.739   3.133 131.503  0.00  0.00    +0.000 C 
BRANCH  15  16
ATOM     16  C   UNL     1      -4.293   4.447 130.979  0.00  0.00    +0.000 A 
ATOM     17  C   UNL     1      -3.131   4.549 130.218  0.00  0.00    +0.000 A 
ATOM     18  C   UNL     1      -2.649   5.792 129.872  0.00  0.00    +0.000 A 
ATOM     19  C   UNL     1      -3.399   6.924 130.174  0.00  0.00    +0.000 A 
ATOM     20  C   UNL     1      -4.582   6.827 130.908  0.00  0.00    +0.000 A 
ATOM     21  C   UNL     1      -5.023   5.587 131.331  0.00  0.00    +0.000 A 
ENDBRANCH  15  16
ENDBRANCH  14  15
ENDBRANCH   5  14
ENDBRANCH   1   2
BRANCH   1  22
ATOM     22  C   UNL     1      -5.356   2.874 125.283  0.00  0.00    +0.000 A 
ATOM     23  C   UNL     1      -6.225   1.886 124.778  0.00  0.00    +0.000 A 
ATOM     24  C   UNL     1      -7.057   2.118 123.684  0.00  0.00    +0.000 A 
ATOM     25  C   UNL     1      -6.924   3.317 122.994  0.00  0.00    +0.000 A 
ATOM     26  C   UNL     1      -5.965   4.241 123.369  0.00  0.00    +0.000 A 
ATOM     27  C   UNL     1      -5.234   4.048 124.527  0.00  0.00    +0.000 A 
BRANCH  24  28
ATOM     28  N   UNL     1      -7.962   1.087 123.285  0.00  0.00    +0.000 N 
ATOM     29  H   UNL     1      -7.738   0.525 122.468  0.00  0.00    +0.000 HD
BRANCH  28  30
ATOM     30  S   UNL     1      -9.362   0.839 124.187  0.00  0.00    +0.000 S 
ATOM     31  O   UNL     1      -9.674   2.108 124.817  0.00  0.00    +0.000 OA
ATOM     32  O   UNL     1     -10.311   0.172 123.316  0.00  0.00    +0.000 OA
BRANCH  30  33
ATOM     33  C   UNL     1      -8.947  -0.314 125.479  0.00  0.00    +0.000 A 
ATOM     34  N   UNL     1      -9.394  -1.575 125.228  0.00  0.00    +0.000 NA
ATOM     35  C   UNL     1      -9.135  -2.512 126.158  0.00  0.00    +0.000 A 
ATOM     36  C   UNL     1      -8.445  -2.251 127.332  0.00  0.00    +0.000 A 
ATOM     37  C   UNL     1      -7.991  -0.942 127.553  0.00  0.00    +0.000 A 
ATOM     38  C   UNL     1      -8.236   0.054 126.608  0.00  0.00    +0.000 A 
BRANCH  36  39
ATOM     39  C   UNL     1      -8.212  -3.362 128.306  0.00  0.00    +0.000 C 
ATOM     40  F   UNL     1      -6.902  -3.485 128.653  0.00  0.00    +0.000 F 
ATOM     41  F   UNL     1      -8.896  -3.187 129.469  0.00  0.00    +0.000 F 
ATOM     42  F   UNL     1      -8.589  -4.580 127.830  0.00  0.00    +0.000 F 
ENDBRANCH  36  39
ENDBRANCH  30  33
ENDBRANCH  28  30
ENDBRANCH  24  28
ENDBRANCH   1  22
BRANCH   1  43
ATOM     43  C   UNL     1      -3.312   3.692 126.571  0.00  0.00    +0.000 C 
ATOM     44  C   UNL     1      -1.858   3.312 126.813  0.00  0.00    +0.000 C 
ENDBRANCH   1  43
TORSDOF 13
ENDMDL
