MODEL 1
REMARK VINA RESULT:      -8.5      0.000      0.000
REMARK  Name = Tirbanibulin
REMARK  9 active torsions:
REMARK  status: ('A' for Active; 'I' for Inactive)
REMARK    1  A    between atoms: C_2  and  C_3
REMARK    2  A    between atoms: C_3  and  C_4
REMARK    3  A    between atoms: C_7  and  C_10
REMARK    4  A    between atoms: C_13  and  O_14
REMARK    5  A    between atoms: O_14  and  C_15
REMARK    6  A    between atoms: C_15  and  C_16
REMARK    7  A    between atoms: C_16  and  N_17
REMARK    8  A    between atoms: N_25  and  C_26
REMARK    9  A    between atoms: C_26  and  C_27
REMARK                            x       y       z     vdW  Elec       q    Type
REMARK                         _______ _______ _______ _____ _____    ______ ____
ROOT
ATOM      1  C   UNL     1      -9.473   0.486 125.470  0.00  0.00    +0.000 A 
ATOM      2  C   UNL     1      -8.640   1.046 126.436  0.00  0.00    +0.000 A 
ATOM      3  C   UNL     1      -7.873   0.205 127.232  0.00  0.00    +0.000 A 
ATOM      4  C   UNL     1      -7.938  -1.176 127.045  0.00  0.00    +0.000 A 
ATOM      5  C   UNL     1      -8.828  -1.642 126.080  0.00  0.00    +0.000 A 
ATOM      6  N   UNL     1      -9.614  -0.849 125.324  0.00  0.00    +0.000 NA
ENDROOT
BRANCH   4   7
ATOM      7  C   UNL     1      -7.210  -2.112 127.891  0.00  0.00    +0.000 A 
ATOM      8  C   UNL     1      -7.880  -3.046 128.697  0.00  0.00    +0.000 A 
ATOM      9  C   UNL     1      -7.191  -3.772 129.666  0.00  0.00    +0.000 A 
ATOM     10  C   UNL     1      -5.819  -3.632 129.800  0.00  0.00    +0.000 A 
ATOM     11  C   UNL     1      -5.131  -2.747 128.948  0.00  0.00    +0.000 A 
ATOM     12  C   UNL     1      -5.822  -1.999 128.001  0.00  0.00    +0.000 A 
BRANCH  10  13
ATOM     13  O   UNL     1      -5.276  -4.421 130.797  0.00  0.00    +0.000 OA
BRANCH  13  14
ATOM     14  C   UNL     1      -5.835  -4.132 132.062  0.00  0.00    +0.000 C 
BRANCH  14  15
ATOM     15  C   UNL     1      -5.384  -2.813 132.725  0.00  0.00    +0.000 C 
BRANCH  15  16
ATOM     16  N   UNL     1      -6.244  -2.355 133.860  0.00  0.00    +0.000 NA
ATOM     17  C   UNL     1      -7.678  -2.240 133.491  0.00  0.00    +0.000 C 
ATOM     18  C   UNL     1      -7.943  -1.066 132.512  0.00  0.00    +0.000 C 
ATOM     19  O   UNL     1      -7.557   0.173 133.108  0.00  0.00    +0.000 OA
ATOM     20  C   UNL     1      -6.144   0.121 133.392  0.00  0.00    +0.000 C 
ATOM     21  C   UNL     1      -5.849  -1.018 134.388  0.00  0.00    +0.000 C 
ENDBRANCH  15  16
ENDBRANCH  14  15
ENDBRANCH  13  14
ENDBRANCH  10  13
ENDBRANCH   4   7
BRANCH   1  22
ATOM     22  C   UNL     1     -10.294   1.380 124.586  0.00  0.00    +0.000 C 
BRANCH  22  24
ATOM     23  O   UNL     1     -10.727   0.276 122.448  0.00  0.00    +0.000 OA
ATOM     24  C   UNL     1     -10.116   1.106 123.102  0.00  0.00    +0.000 C 
ATOM     25  N   UNL     1      -9.156   1.836 122.458  0.00  0.00    +0.000 N 
ATOM     26  H   UNL     1      -9.086   1.612 121.471  0.00  0.00    +0.000 HD
BRANCH  25  27
ATOM     27  C   UNL     1      -8.280   2.841 123.014  0.00  0.00    +0.000 C 
BRANCH  27  28
ATOM     28  C   UNL     1      -7.426   3.460 121.944  0.00  0.00    +0.000 A 
ATOM     29  C   UNL     1      -7.929   3.756 120.669  0.00  0.00    +0.000 A 
ATOM     30  C   UNL     1      -7.079   4.269 119.686  0.00  0.00    +0.000 A 
ATOM     31  C   UNL     1      -5.749   4.561 119.988  0.00  0.00    +0.000 A 
ATOM     32  C   UNL     1      -5.244   4.280 121.254  0.00  0.00    +0.000 A 
ATOM     33  C   UNL     1      -6.072   3.712 122.216  0.00  0.00    +0.000 A 
ENDBRANCH  27  28
ENDBRANCH  25  27
ENDBRANCH  22  24
ENDBRANCH   1  22
TORSDOF 9
ENDMDL
MODEL 2
REMARK VINA RESULT:      -8.4      1.630      2.153
REMARK  Name = Tirbanibulin
REMARK  9 active torsions:
REMARK  status: ('A' for Active; 'I' for Inactive)
REMARK    1  A    between atoms: C_2  and  C_3
REMARK    2  A    between atoms: C_3  and  C_4
REMARK    3  A    between atoms: C_7  and  C_10
REMARK    4  A    between atoms: C_13  and  O_14
REMARK    5  A    between atoms: O_14  and  C_15
REMARK    6  A    between atoms: C_15  and  C_16
REMARK    7  A    between atoms: C_16  and  N_17
REMARK    8  A    between atoms: N_25  and  C_26
REMARK    9  A    between atoms: C_26  and  C_27
REMARK                            x       y       z     vdW  Elec       q    Type
REMARK                         _______ _______ _______ _____ _____    ______ ____
ROOT
ATOM      1  C   UNL     1      -7.817   0.568 124.859  0.00  0.00    +0.000 A 
ATOM      2  C   UNL     1      -6.539   0.746 125.381  0.00  0.00    +0.000 A 
ATOM      3  C   UNL     1      -6.109  -0.085 126.407  0.00  0.00    +0.000 A 
ATOM      4  C   UNL     1      -6.953  -1.086 126.888  0.00  0.00    +0.000 A 
ATOM      5  C   UNL     1      -8.227  -1.161 126.329  0.00  0.00    +0.000 A 
ATOM      6  N   UNL     1      -8.683  -0.340 125.361  0.00  0.00    +0.000 NA
ENDROOT
BRANCH   4   7
ATOM      7  C   UNL     1      -6.586  -1.945 128.006  0.00  0.00    +0.000 A 
ATOM      8  C   UNL     1      -5.247  -2.270 128.272  0.00  0.00    +0.000 A 
ATOM      9  C   UNL     1      -4.927  -3.267 129.191  0.00  0.00    +0.000 A 
ATOM     10  C   UNL     1      -5.927  -3.903 129.908  0.00  0.00    +0.000 A 
ATOM     11  C   UNL     1      -7.269  -3.533 129.696  0.00  0.00    +0.000 A 
ATOM     12  C   UNL     1      -7.591  -2.559 128.756  0.00  0.00    +0.000 A 
BRANCH  10  13
ATOM     13  O   UNL     1      -5.456  -4.862 130.786  0.00  0.00    +0.000 OA
BRANCH  13  14
ATOM     14  C   UNL     1      -4.871  -4.283 131.935  0.00  0.00    +0.000 C 
BRANCH  14  15
ATOM     15  C   UNL     1      -5.555  -4.596 133.283  0.00  0.00    +0.000 C 
BRANCH  15  16
ATOM     16  N   UNL     1      -5.702  -3.422 134.199  0.00  0.00    +0.000 NA
ATOM     17  C   UNL     1      -6.544  -3.715 135.386  0.00  0.00    +0.000 C 
ATOM     18  C   UNL     1      -8.038  -3.909 135.017  0.00  0.00    +0.000 C 
ATOM     19  O   UNL     1      -8.557  -2.724 134.411  0.00  0.00    +0.000 OA
ATOM     20  C   UNL     1      -7.813  -2.469 133.202  0.00  0.00    +0.000 C 
ATOM     21  C   UNL     1      -6.325  -2.241 133.537  0.00  0.00    +0.000 C 
ENDBRANCH  15  16
ENDBRANCH  14  15
ENDBRANCH  13  14
ENDBRANCH  10  13
ENDBRANCH   4   7
BRANCH   1  22
ATOM     22  C   UNL     1      -8.292   1.443 123.735  0.00  0.00    +0.000 C 
BRANCH  22  24
ATOM     23  O   UNL     1      -8.884   3.567 124.791  0.00  0.00    +0.000 OA
ATOM     24  C   UNL     1      -8.178   2.931 124.026  0.00  0.00    +0.000 C 
ATOM     25  N   UNL     1      -7.216   3.615 123.335  0.00  0.00    +0.000 N 
ATOM     26  H   UNL     1      -7.185   4.600 123.574  0.00  0.00    +0.000 HD
BRANCH  25  27
ATOM     27  C   UNL     1      -6.289   3.100 122.354  0.00  0.00    +0.000 C 
BRANCH  27  28
ATOM     28  C   UNL     1      -6.361   3.894 121.080  0.00  0.00    +0.000 A 
ATOM     29  C   UNL     1      -7.469   3.829 120.224  0.00  0.00    +0.000 A 
ATOM     30  C   UNL     1      -7.461   4.535 119.018  0.00  0.00    +0.000 A 
ATOM     31  C   UNL     1      -6.388   5.366 118.696  0.00  0.00    +0.000 A 
ATOM     32  C   UNL     1      -5.288   5.444 119.545  0.00  0.00    +0.000 A 
ATOM     33  C   UNL     1      -5.267   4.694 120.716  0.00  0.00    +0.000 A 
ENDBRANCH  27  28
ENDBRANCH  25  27
ENDBRANCH  22  24
ENDBRANCH   1  22
TORSDOF 9
ENDMDL
MODEL 3
REMARK VINA RESULT:      -8.4      4.478      7.927
REMARK  Name = Tirbanibulin
REMARK  9 active torsions:
REMARK  status: ('A' for Active; 'I' for Inactive)
REMARK    1  A    between atoms: C_2  and  C_3
REMARK    2  A    between atoms: C_3  and  C_4
REMARK    3  A    between atoms: C_7  and  C_10
REMARK    4  A    between atoms: C_13  and  O_14
REMARK    5  A    between atoms: O_14  and  C_15
REMARK    6  A    between atoms: C_15  and  C_16
REMARK    7  A    between atoms: C_16  and  N_17
REMARK    8  A    between atoms: N_25  and  C_26
REMARK    9  A    between atoms: C_26  and  C_27
REMARK                            x       y       z     vdW  Elec       q    Type
REMARK                         _______ _______ _______ _____ _____    ______ ____
ROOT
ATOM      1  C   UNL     1      -8.391  -0.416 124.126  0.00  0.00    +0.000 A 
ATOM      2  C   UNL     1      -7.328   0.483 124.167  0.00  0.00    +0.000 A 
ATOM      3  C   UNL     1      -7.224   1.352 125.245  0.00  0.00    +0.000 A 
ATOM      4  C   UNL     1      -8.170   1.303 126.269  0.00  0.00    +0.000 A 
ATOM      5  C   UNL     1      -9.217   0.396 126.119  0.00  0.00    +0.000 A 
ATOM      6  N   UNL     1      -9.364  -0.429 125.063  0.00  0.00    +0.000 NA
ENDROOT
BRANCH   4   7
ATOM      7  C   UNL     1      -8.153   2.232 127.391  0.00  0.00    +0.000 A 
ATOM      8  C   UNL     1      -8.660   1.871 128.650  0.00  0.00    +0.000 A 
ATOM      9  C   UNL     1      -8.849   2.831 129.641  0.00  0.00    +0.000 A 
ATOM     10  C   UNL     1      -8.473   4.147 129.422  0.00  0.00    +0.000 A 
ATOM     11  C   UNL     1      -7.899   4.501 128.185  0.00  0.00    +0.000 A 
ATOM     12  C   UNL     1      -7.738   3.549 127.184  0.00  0.00    +0.000 A 
BRANCH  10  13
ATOM     13  O   UNL     1      -8.715   4.980 130.498  0.00  0.00    +0.000 OA
BRANCH  13  14
ATOM     14  C   UNL     1      -9.199   6.243 130.089  0.00  0.00    +0.000 C 
BRANCH  14  15
ATOM     15  C   UNL     1     -10.733   6.391 130.000  0.00  0.00    +0.000 C 
BRANCH  15  16
ATOM     16  N   UNL     1     -11.208   7.739 129.559  0.00  0.00    +0.000 NA
ATOM     17  C   UNL     1     -12.671   7.787 129.311  0.00  0.00    +0.000 C 
ATOM     18  C   UNL     1     -13.084   6.975 128.055  0.00  0.00    +0.000 C 
ATOM     19  O   UNL     1     -12.439   7.498 126.893  0.00  0.00    +0.000 OA
ATOM     20  C   UNL     1     -11.013   7.378 127.071  0.00  0.00    +0.000 C 
ATOM     21  C   UNL     1     -10.564   8.200 128.296  0.00  0.00    +0.000 C 
ENDBRANCH  15  16
ENDBRANCH  14  15
ENDBRANCH  13  14
ENDBRANCH  10  13
ENDBRANCH   4   7
BRANCH   1  22
ATOM     22  C   UNL     1      -8.509  -1.378 122.978  0.00  0.00    +0.000 C 
BRANCH  22  24
ATOM     23  O   UNL     1     -10.097  -3.230 123.139  0.00  0.00    +0.000 OA
ATOM     24  C   UNL     1      -8.998  -2.759 123.383  0.00  0.00    +0.000 C 
ATOM     25  N   UNL     1      -8.133  -3.521 124.118  0.00  0.00    +0.000 N 
ATOM     26  H   UNL     1      -8.512  -4.430 124.355  0.00  0.00    +0.000 HD
BRANCH  25  27
ATOM     27  C   UNL     1      -6.803  -3.175 124.565  0.00  0.00    +0.000 C 
BRANCH  27  28
ATOM     28  C   UNL     1      -6.826  -2.679 125.984  0.00  0.00    +0.000 A 
ATOM     29  C   UNL     1      -7.881  -2.975 126.858  0.00  0.00    +0.000 A 
ATOM     30  C   UNL     1      -7.891  -2.435 128.147  0.00  0.00    +0.000 A 
ATOM     31  C   UNL     1      -6.818  -1.665 128.595  0.00  0.00    +0.000 A 
ATOM     32  C   UNL     1      -5.763  -1.374 127.737  0.00  0.00    +0.000 A 
ATOM     33  C   UNL     1      -5.780  -1.859 126.434  0.00  0.00    +0.000 A 
ENDBRANCH  27  28
ENDBRANCH  25  27
ENDBRANCH  22  24
ENDBRANCH   1  22
TORSDOF 9
ENDMDL
MODEL 4
REMARK VINA RESULT:      -8.1      1.699      2.149
REMARK  Name = Tirbanibulin
REMARK  9 active torsions:
REMARK  status: ('A' for Active; 'I' for Inactive)
REMARK    1  A    between atoms: C_2  and  C_3
REMARK    2  A    between atoms: C_3  and  C_4
REMARK    3  A    between atoms: C_7  and  C_10
REMARK    4  A    between atoms: C_13  and  O_14
REMARK    5  A    between atoms: O_14  and  C_15
REMARK    6  A    between atoms: C_15  and  C_16
REMARK    7  A    between atoms: C_16  and  N_17
REMARK    8  A    between atoms: N_25  and  C_26
REMARK    9  A    between atoms: C_26  and  C_27
REMARK                            x       y       z     vdW  Elec       q    Type
REMARK                         _______ _______ _______ _____ _____    ______ ____
ROOT
ATOM      1  C   UNL     1      -8.072   0.669 124.757  0.00  0.00    +0.000 A 
ATOM      2  C   UNL     1      -6.715   0.647 125.072  0.00  0.00    +0.000 A 
ATOM      3  C   UNL     1      -6.257  -0.271 126.008  0.00  0.00    +0.000 A 
ATOM      4  C   UNL     1      -7.153  -1.158 126.606  0.00  0.00    +0.000 A 
ATOM      5  C   UNL     1      -8.496  -1.033 126.254  0.00  0.00    +0.000 A 
ATOM      6  N   UNL     1      -8.972  -0.123 125.379  0.00  0.00    +0.000 NA
ENDROOT
BRANCH   4   7
ATOM      7  C   UNL     1      -6.746  -2.098 127.642  0.00  0.00    +0.000 A 
ATOM      8  C   UNL     1      -7.691  -2.799 128.407  0.00  0.00    +0.000 A 
ATOM      9  C   UNL     1      -7.300  -3.512 129.539  0.00  0.00    +0.000 A 
ATOM     10  C   UNL     1      -5.960  -3.595 129.884  0.00  0.00    +0.000 A 
ATOM     11  C   UNL     1      -5.001  -2.950 129.081  0.00  0.00    +0.000 A 
ATOM     12  C   UNL     1      -5.393  -2.213 127.968  0.00  0.00    +0.000 A 
BRANCH  10  13
ATOM     13  O   UNL     1      -5.727  -4.341 131.025  0.00  0.00    +0.000 OA
BRANCH  13  14
ATOM     14  C   UNL     1      -6.189  -3.685 132.188  0.00  0.00    +0.000 C 
BRANCH  14  15
ATOM     15  C   UNL     1      -5.186  -2.741 132.885  0.00  0.00    +0.000 C 
BRANCH  15  16
ATOM     16  N   UNL     1      -5.696  -1.358 133.135  0.00  0.00    +0.000 NA
ATOM     17  C   UNL     1      -5.633  -0.490 131.932  0.00  0.00    +0.000 C 
ATOM     18  C   UNL     1      -4.175  -0.130 131.540  0.00  0.00    +0.000 C 
ATOM     19  O   UNL     1      -3.534   0.573 132.605  0.00  0.00    +0.000 OA
ATOM     20  C   UNL     1      -3.501  -0.287 133.763  0.00  0.00    +0.000 C 
ATOM     21  C   UNL     1      -4.937  -0.640 134.199  0.00  0.00    +0.000 C 
ENDBRANCH  15  16
ENDBRANCH  14  15
ENDBRANCH  13  14
ENDBRANCH  10  13
ENDBRANCH   4   7
BRANCH   1  22
ATOM     22  C   UNL     1      -8.583   1.641 123.732  0.00  0.00    +0.000 C 
BRANCH  22  24
ATOM     23  O   UNL     1      -8.817   3.814 124.826  0.00  0.00    +0.000 OA
ATOM     24  C   UNL     1      -8.236   3.090 124.034  0.00  0.00    +0.000 C 
ATOM     25  N   UNL     1      -7.202   3.631 123.322  0.00  0.00    +0.000 N 
ATOM     26  H   UNL     1      -7.016   4.596 123.569  0.00  0.00    +0.000 HD
BRANCH  25  27
ATOM     27  C   UNL     1      -6.392   2.996 122.308  0.00  0.00    +0.000 C 
BRANCH  27  28
ATOM     28  C   UNL     1      -6.365   3.819 121.051  0.00  0.00    +0.000 A 
ATOM     29  C   UNL     1      -5.252   4.593 120.693  0.00  0.00    +0.000 A 
ATOM     30  C   UNL     1      -5.299   5.394 119.549  0.00  0.00    +0.000 A 
ATOM     31  C   UNL     1      -6.419   5.370 118.719  0.00  0.00    +0.000 A 
ATOM     32  C   UNL     1      -7.524   4.597 119.062  0.00  0.00    +0.000 A 
ATOM     33  C   UNL     1      -7.504   3.846 120.232  0.00  0.00    +0.000 A 
ENDBRANCH  27  28
ENDBRANCH  25  27
ENDBRANCH  22  24
ENDBRANCH   1  22
TORSDOF 9
ENDMDL
MODEL 5
REMARK VINA RESULT:      -8.1      4.813      7.171
REMARK  Name = Tirbanibulin
REMARK  9 active torsions:
REMARK  status: ('A' for Active; 'I' for Inactive)
REMARK    1  A    between atoms: C_2  and  C_3
REMARK    2  A    between atoms: C_3  and  C_4
REMARK    3  A    between atoms: C_7  and  C_10
REMARK    4  A    between atoms: C_13  and  O_14
REMARK    5  A    between atoms: O_14  and  C_15
REMARK    6  A    between atoms: C_15  and  C_16
REMARK    7  A    between atoms: C_16  and  N_17
REMARK    8  A    between atoms: N_25  and  C_26
REMARK    9  A    between atoms: C_26  and  C_27
REMARK                            x       y       z     vdW  Elec       q    Type
REMARK                         _______ _______ _______ _____ _____    ______ ____
ROOT
ATOM      1  C   UNL     1      -8.753  -1.786 126.267  0.00  0.00    +0.000 A 
ATOM      2  C   UNL     1      -7.979  -1.680 127.419  0.00  0.00    +0.000 A 
ATOM      3  C   UNL     1      -7.892  -0.452 128.061  0.00  0.00    +0.000 A 
ATOM      4  C   UNL     1      -8.586   0.647 127.553  0.00  0.00    +0.000 A 
ATOM      5  C   UNL     1      -9.303   0.451 126.374  0.00  0.00    +0.000 A 
ATOM      6  N   UNL     1      -9.369  -0.721 125.710  0.00  0.00    +0.000 NA
ENDROOT
BRANCH   4   7
ATOM      7  C   UNL     1      -8.482   1.975 128.141  0.00  0.00    +0.000 A 
ATOM      8  C   UNL     1      -7.886   3.040 127.448  0.00  0.00    +0.000 A 
ATOM      9  C   UNL     1      -7.586   4.233 128.100  0.00  0.00    +0.000 A 
ATOM     10  C   UNL     1      -7.936   4.411 129.429  0.00  0.00    +0.000 A 
ATOM     11  C   UNL     1      -8.597   3.371 130.111  0.00  0.00    +0.000 A 
ATOM     12  C   UNL     1      -8.870   2.168 129.469  0.00  0.00    +0.000 A 
BRANCH  10  13
ATOM     13  O   UNL     1      -7.580   5.647 129.936  0.00  0.00    +0.000 OA
BRANCH  13  14
ATOM     14  C   UNL     1      -8.568   6.166 130.803  0.00  0.00    +0.000 C 
BRANCH  14  15
ATOM     15  C   UNL     1      -9.573   7.158 130.180  0.00  0.00    +0.000 C 
BRANCH  15  16
ATOM     16  N   UNL     1     -10.680   6.524 129.399  0.00  0.00    +0.000 NA
ATOM     17  C   UNL     1     -11.022   7.273 128.164  0.00  0.00    +0.000 C 
ATOM     18  C   UNL     1     -11.705   8.632 128.468  0.00  0.00    +0.000 C 
ATOM     19  O   UNL     1     -12.920   8.426 129.191  0.00  0.00    +0.000 OA
ATOM     20  C   UNL     1     -12.602   7.780 130.440  0.00  0.00    +0.000 C 
ATOM     21  C   UNL     1     -11.948   6.409 130.174  0.00  0.00    +0.000 C 
ENDBRANCH  15  16
ENDBRANCH  14  15
ENDBRANCH  13  14
ENDBRANCH  10  13
ENDBRANCH   4   7
BRANCH   1  22
ATOM     22  C   UNL     1      -8.876  -3.111 125.570  0.00  0.00    +0.000 C 
BRANCH  22  24
ATOM     23  O   UNL     1      -9.978  -3.202 123.390  0.00  0.00    +0.000 OA
ATOM     24  C   UNL     1      -8.976  -3.002 124.058  0.00  0.00    +0.000 C 
ATOM     25  N   UNL     1      -7.825  -2.685 123.391  0.00  0.00    +0.000 N 
ATOM     26  H   UNL     1      -7.955  -2.624 122.388  0.00  0.00    +0.000 HD
BRANCH  25  27
ATOM     27  C   UNL     1      -6.513  -2.442 123.947  0.00  0.00    +0.000 C 
BRANCH  27  28
ATOM     28  C   UNL     1      -6.322  -0.983 124.251  0.00  0.00    +0.000 A 
ATOM     29  C   UNL     1      -5.519  -0.543 125.312  0.00  0.00    +0.000 A 
ATOM     30  C   UNL     1      -5.426   0.822 125.596  0.00  0.00    +0.000 A 
ATOM     31  C   UNL     1      -6.066   1.756 124.781  0.00  0.00    +0.000 A 
ATOM     32  C   UNL     1      -6.856   1.328 123.719  0.00  0.00    +0.000 A 
ATOM     33  C   UNL     1      -7.001  -0.033 123.472  0.00  0.00    +0.000 A 
ENDBRANCH  27  28
ENDBRANCH  25  27
ENDBRANCH  22  24
ENDBRANCH   1  22
TORSDOF 9
ENDMDL
MODEL 6
REMARK VINA RESULT:      -8.1      5.016      7.850
REMARK  Name = Tirbanibulin
REMARK  9 active torsions:
REMARK  status: ('A' for Active; 'I' for Inactive)
REMARK    1  A    between atoms: C_2  and  C_3
REMARK    2  A    between atoms: C_3  and  C_4
REMARK    3  A    between atoms: C_7  and  C_10
REMARK    4  A    between atoms: C_13  and  O_14
REMARK    5  A    between atoms: O_14  and  C_15
REMARK    6  A    between atoms: C_15  and  C_16
REMARK    7  A    between atoms: C_16  and  N_17
REMARK    8  A    between atoms: N_25  and  C_26
REMARK    9  A    between atoms: C_26  and  C_27
REMARK                            x       y       z     vdW  Elec       q    Type
REMARK                         _______ _______ _______ _____ _____    ______ ____
ROOT
ATOM      1  C   UNL     1      -8.299   4.423 131.517  0.00  0.00    +0.000 A 
ATOM      2  C   UNL     1      -9.409   3.588 131.409  0.00  0.00    +0.000 A 
ATOM      3  C   UNL     1      -9.231   2.286 130.962  0.00  0.00    +0.000 A 
ATOM      4  C   UNL     1      -7.950   1.832 130.643  0.00  0.00    +0.000 A 
ATOM      5  C   UNL     1      -6.909   2.752 130.746  0.00  0.00    +0.000 A 
ATOM      6  N   UNL     1      -7.063   4.033 131.138  0.00  0.00    +0.000 NA
ENDROOT
BRANCH   4   7
ATOM      7  C   UNL     1      -7.707   0.500 130.106  0.00  0.00    +0.000 A 
ATOM      8  C   UNL     1      -7.083   0.312 128.863  0.00  0.00    +0.000 A 
ATOM      9  C   UNL     1      -7.064  -0.943 128.259  0.00  0.00    +0.000 A 
ATOM     10  C   UNL     1      -7.602  -2.041 128.912  0.00  0.00    +0.000 A 
ATOM     11  C   UNL     1      -8.168  -1.872 130.190  0.00  0.00    +0.000 A 
ATOM     12  C   UNL     1      -8.215  -0.613 130.780  0.00  0.00    +0.000 A 
BRANCH  10  13
ATOM     13  O   UNL     1      -7.503  -3.217 128.193  0.00  0.00    +0.000 OA
BRANCH  13  14
ATOM     14  C   UNL     1      -8.691  -3.502 127.482  0.00  0.00    +0.000 C 
BRANCH  14  15
ATOM     15  C   UNL     1      -8.562  -3.604 125.947  0.00  0.00    +0.000 C 
BRANCH  15  16
ATOM     16  N   UNL     1      -9.501  -2.729 125.179  0.00  0.00    +0.000 NA
ATOM     17  C   UNL     1      -9.481  -2.998 123.719  0.00  0.00    +0.000 C 
ATOM     18  C   UNL     1      -8.153  -2.550 123.054  0.00  0.00    +0.000 C 
ATOM     19  O   UNL     1      -7.959  -1.146 123.230  0.00  0.00    +0.000 OA
ATOM     20  C   UNL     1      -7.882  -0.872 124.644  0.00  0.00    +0.000 C 
ATOM     21  C   UNL     1      -9.200  -1.277 125.332  0.00  0.00    +0.000 C 
ENDBRANCH  15  16
ENDBRANCH  14  15
ENDBRANCH  13  14
ENDBRANCH  10  13
ENDBRANCH   4   7
BRANCH   1  22
ATOM     22  C   UNL     1      -8.469   5.828 132.018  0.00  0.00    +0.000 C 
BRANCH  22  24
ATOM     23  O   UNL     1      -7.043   7.353 130.745  0.00  0.00    +0.000 OA
ATOM     24  C   UNL     1      -8.148   6.892 130.980  0.00  0.00    +0.000 C 
ATOM     25  N   UNL     1      -9.207   7.397 130.277  0.00  0.00    +0.000 N 
ATOM     26  H   UNL     1      -8.930   8.098 129.599  0.00  0.00    +0.000 HD
BRANCH  25  27
ATOM     27  C   UNL     1     -10.603   7.047 130.398  0.00  0.00    +0.000 C 
BRANCH  27  28
ATOM     28  C   UNL     1     -11.281   7.077 129.057  0.00  0.00    +0.000 A 
ATOM     29  C   UNL     1     -10.582   7.363 127.876  0.00  0.00    +0.000 A 
ATOM     30  C   UNL     1     -11.269   7.446 126.662  0.00  0.00    +0.000 A 
ATOM     31  C   UNL     1     -12.635   7.168 126.606  0.00  0.00    +0.000 A 
ATOM     32  C   UNL     1     -13.334   6.873 127.772  0.00  0.00    +0.000 A 
ATOM     33  C   UNL     1     -12.665   6.852 128.991  0.00  0.00    +0.000 A 
ENDBRANCH  27  28
ENDBRANCH  25  27
ENDBRANCH  22  24
ENDBRANCH   1  22
TORSDOF 9
ENDMDL
MODEL 7
REMARK VINA RESULT:      -8.1      4.257      7.152
REMARK  Name = Tirbanibulin
REMARK  9 active torsions:
REMARK  status: ('A' for Active; 'I' for Inactive)
REMARK    1  A    between atoms: C_2  and  C_3
REMARK    2  A    between atoms: C_3  and  C_4
REMARK    3  A    between atoms: C_7  and  C_10
REMARK    4  A    between atoms: C_13  and  O_14
REMARK    5  A    between atoms: O_14  and  C_15
REMARK    6  A    between atoms: C_15  and  C_16
REMARK    7  A    between atoms: C_16  and  N_17
REMARK    8  A    between atoms: N_25  and  C_26
REMARK    9  A    between atoms: C_26  and  C_27
REMARK                            x       y       z     vdW  Elec       q    Type
REMARK                         _______ _______ _______ _____ _____    ______ ____
ROOT
ATOM      1  C   UNL     1      -7.821   0.499 124.749  0.00  0.00    +0.000 A 
ATOM      2  C   UNL     1      -8.995   0.492 125.499  0.00  0.00    +0.000 A 
ATOM      3  C   UNL     1      -9.014   1.147 126.724  0.00  0.00    +0.000 A 
ATOM      4  C   UNL     1      -7.871   1.808 127.174  0.00  0.00    +0.000 A 
ATOM      5  C   UNL     1      -6.736   1.727 126.371  0.00  0.00    +0.000 A 
ATOM      6  N   UNL     1      -6.679   1.062 125.199  0.00  0.00    +0.000 NA
ENDROOT
BRANCH   4   7
ATOM      7  C   UNL     1      -7.809   2.456 128.478  0.00  0.00    +0.000 A 
ATOM      8  C   UNL     1      -6.848   3.440 128.762  0.00  0.00    +0.000 A 
ATOM      9  C   UNL     1      -6.650   3.882 130.068  0.00  0.00    +0.000 A 
ATOM     10  C   UNL     1      -7.448   3.406 131.096  0.00  0.00    +0.000 A 
ATOM     11  C   UNL     1      -8.459   2.470 130.806  0.00  0.00    +0.000 A 
ATOM     12  C   UNL     1      -8.638   2.005 129.507  0.00  0.00    +0.000 A 
BRANCH  10  13
ATOM     13  O   UNL     1      -7.138   3.942 132.333  0.00  0.00    +0.000 OA
BRANCH  13  14
ATOM     14  C   UNL     1      -7.697   5.228 132.506  0.00  0.00    +0.000 C 
BRANCH  14  15
ATOM     15  C   UNL     1      -9.238   5.306 132.539  0.00  0.00    +0.000 C 
BRANCH  15  16
ATOM     16  N   UNL     1      -9.816   6.549 131.941  0.00  0.00    +0.000 NA
ATOM     17  C   UNL     1     -11.277   6.451 131.698  0.00  0.00    +0.000 C 
ATOM     18  C   UNL     1     -11.620   5.463 130.551  0.00  0.00    +0.000 C 
ATOM     19  O   UNL     1     -11.013   5.891 129.330  0.00  0.00    +0.000 OA
ATOM     20  C   UNL     1      -9.583   5.906 129.514  0.00  0.00    +0.000 C 
ATOM     21  C   UNL     1      -9.205   6.903 130.628  0.00  0.00    +0.000 C 
ENDBRANCH  15  16
ENDBRANCH  14  15
ENDBRANCH  13  14
ENDBRANCH  10  13
ENDBRANCH   4   7
BRANCH   1  22
ATOM     22  C   UNL     1      -7.787  -0.187 123.414  0.00  0.00    +0.000 C 
BRANCH  22  24
ATOM     23  O   UNL     1      -9.952  -1.082 122.716  0.00  0.00    +0.000 OA
ATOM     24  C   UNL     1      -8.863  -1.247 123.240  0.00  0.00    +0.000 C 
ATOM     25  N   UNL     1      -8.588  -2.484 123.754  0.00  0.00    +0.000 N 
ATOM     26  H   UNL     1      -9.340  -3.148 123.605  0.00  0.00    +0.000 HD
BRANCH  25  27
ATOM     27  C   UNL     1      -7.397  -2.915 124.448  0.00  0.00    +0.000 C 
BRANCH  27  28
ATOM     28  C   UNL     1      -7.631  -2.968 125.932  0.00  0.00    +0.000 A 
ATOM     29  C   UNL     1      -8.707  -3.672 126.490  0.00  0.00    +0.000 A 
ATOM     30  C   UNL     1      -8.922  -3.636 127.870  0.00  0.00    +0.000 A 
ATOM     31  C   UNL     1      -8.028  -2.967 128.705  0.00  0.00    +0.000 A 
ATOM     32  C   UNL     1      -6.952  -2.273 128.160  0.00  0.00    +0.000 A 
ATOM     33  C   UNL     1      -6.771  -2.255 126.781  0.00  0.00    +0.000 A 
ENDBRANCH  27  28
ENDBRANCH  25  27
ENDBRANCH  22  24
ENDBRANCH   1  22
TORSDOF 9
ENDMDL
MODEL 8
REMARK VINA RESULT:      -8.0      5.361      9.960
REMARK  Name = Tirbanibulin
REMARK  9 active torsions:
REMARK  status: ('A' for Active; 'I' for Inactive)
REMARK    1  A    between atoms: C_2  and  C_3
REMARK    2  A    between atoms: C_3  and  C_4
REMARK    3  A    between atoms: C_7  and  C_10
REMARK    4  A    between atoms: C_13  and  O_14
REMARK    5  A    between atoms: O_14  and  C_15
REMARK    6  A    between atoms: C_15  and  C_16
REMARK    7  A    between atoms: C_16  and  N_17
REMARK    8  A    between atoms: N_25  and  C_26
REMARK    9  A    between atoms: C_26  and  C_27
REMARK                            x       y       z     vdW  Elec       q    Type
REMARK                         _______ _______ _______ _____ _____    ______ ____
ROOT
ATOM      1  C   UNL     1      -5.715  -1.731 132.879  0.00  0.00    +0.000 A 
ATOM      2  C   UNL     1      -7.070  -1.943 133.122  0.00  0.00    +0.000 A 
ATOM      3  C   UNL     1      -7.998  -1.078 132.557  0.00  0.00    +0.000 A 
ATOM      4  C   UNL     1      -7.564  -0.026 131.750  0.00  0.00    +0.000 A 
ATOM      5  C   UNL     1      -6.188   0.127 131.597  0.00  0.00    +0.000 A 
ATOM      6  N   UNL     1      -5.265  -0.674 132.169  0.00  0.00    +0.000 NA
ENDROOT
BRANCH   4   7
ATOM      7  C   UNL     1      -8.483   0.953 131.185  0.00  0.00    +0.000 A 
ATOM      8  C   UNL     1      -8.311   1.455 129.885  0.00  0.00    +0.000 A 
ATOM      9  C   UNL     1      -9.050   2.549 129.442  0.00  0.00    +0.000 A 
ATOM     10  C   UNL     1     -10.018   3.115 130.258  0.00  0.00    +0.000 A 
ATOM     11  C   UNL     1     -10.243   2.572 131.537  0.00  0.00    +0.000 A 
ATOM     12  C   UNL     1      -9.484   1.498 131.991  0.00  0.00    +0.000 A 
BRANCH  10  13
ATOM     13  O   UNL     1     -10.673   4.186 129.680  0.00  0.00    +0.000 OA
BRANCH  13  14
ATOM     14  C   UNL     1     -10.039   5.414 129.976  0.00  0.00    +0.000 C 
BRANCH  14  15
ATOM     15  C   UNL     1     -10.923   6.677 129.898  0.00  0.00    +0.000 C 
BRANCH  15  16
ATOM     16  N   UNL     1     -11.051   7.269 128.530  0.00  0.00    +0.000 NA
ATOM     17  C   UNL     1     -11.192   8.747 128.549  0.00  0.00    +0.000 C 
ATOM     18  C   UNL     1     -12.559   9.202 129.125  0.00  0.00    +0.000 C 
ATOM     19  O   UNL     1     -13.629   8.683 128.334  0.00  0.00    +0.000 OA
ATOM     20  C   UNL     1     -13.568   7.242 128.376  0.00  0.00    +0.000 C 
ATOM     21  C   UNL     1     -12.232   6.754 127.780  0.00  0.00    +0.000 C 
ENDBRANCH  15  16
ENDBRANCH  14  15
ENDBRANCH  13  14
ENDBRANCH  10  13
ENDBRANCH   4   7
BRANCH   1  22
ATOM     22  C   UNL     1      -4.698  -2.668 133.464  0.00  0.00    +0.000 C 
BRANCH  22  24
ATOM     23  O   UNL     1      -2.375  -2.282 132.806  0.00  0.00    +0.000 OA
ATOM     24  C   UNL     1      -3.449  -2.828 132.612  0.00  0.00    +0.000 C 
ATOM     25  N   UNL     1      -3.562  -3.630 131.510  0.00  0.00    +0.000 N 
ATOM     26  H   UNL     1      -2.698  -3.700 130.984  0.00  0.00    +0.000 HD
BRANCH  25  27
ATOM     27  C   UNL     1      -4.728  -4.348 131.048  0.00  0.00    +0.000 C 
BRANCH  27  28
ATOM     28  C   UNL     1      -5.511  -3.522 130.065  0.00  0.00    +0.000 A 
ATOM     29  C   UNL     1      -4.893  -2.598 129.212  0.00  0.00    +0.000 A 
ATOM     30  C   UNL     1      -5.670  -1.805 128.363  0.00  0.00    +0.000 A 
ATOM     31  C   UNL     1      -7.052  -1.983 128.304  0.00  0.00    +0.000 A 
ATOM     32  C   UNL     1      -7.672  -2.906 129.141  0.00  0.00    +0.000 A 
ATOM     33  C   UNL     1      -6.907  -3.652 130.031  0.00  0.00    +0.000 A 
ENDBRANCH  27  28
ENDBRANCH  25  27
ENDBRANCH  22  24
ENDBRANCH   1  22
TORSDOF 9
ENDMDL
MODEL 9
REMARK VINA RESULT:      -8.0      4.894      9.900
REMARK  Name = Tirbanibulin
REMARK  9 active torsions:
REMARK  status: ('A' for Active; 'I' for Inactive)
REMARK    1  A    between atoms: C_2  and  C_3
REMARK    2  A    between atoms: C_3  and  C_4
REMARK    3  A    between atoms: C_7  and  C_10
REMARK    4  A    between atoms: C_13  and  O_14
REMARK    5  A    between atoms: O_14  and  C_15
REMARK    6  A    between atoms: C_15  and  C_16
REMARK    7  A    between atoms: C_16  and  N_17
REMARK    8  A    between atoms: N_25  and  C_26
REMARK    9  A    between atoms: C_26  and  C_27
REMARK                            x       y       z     vdW  Elec       q    Type
REMARK                         _______ _______ _______ _____ _____    ______ ____
ROOT
ATOM      1  C   UNL     1      -7.109  -1.119 132.695  0.00  0.00    +0.000 A 
ATOM      2  C   UNL     1      -8.231  -1.014 131.878  0.00  0.00    +0.000 A 
ATOM      3  C   UNL     1      -8.852   0.221 131.744  0.00  0.00    +0.000 A 
ATOM      4  C   UNL     1      -8.338   1.332 132.414  0.00  0.00    +0.000 A 
ATOM      5  C   UNL     1      -7.235   1.118 133.237  0.00  0.00    +0.000 A 
ATOM      6  N   UNL     1      -6.640  -0.079 133.417  0.00  0.00    +0.000 NA
ENDROOT
BRANCH   4   7
ATOM      7  C   UNL     1      -8.982   2.637 132.366  0.00  0.00    +0.000 A 
ATOM      8  C   UNL     1      -9.568   3.124 131.187  0.00  0.00    +0.000 A 
ATOM      9  C   UNL     1      -9.972   4.453 131.090  0.00  0.00    +0.000 A 
ATOM     10  C   UNL     1      -9.864   5.298 132.183  0.00  0.00    +0.000 A 
ATOM     11  C   UNL     1      -9.341   4.798 133.391  0.00  0.00    +0.000 A 
ATOM     12  C   UNL     1      -8.909   3.478 133.479  0.00  0.00    +0.000 A 
BRANCH  10  13
ATOM     13  O   UNL     1     -10.311   6.583 131.937  0.00  0.00    +0.000 OA
BRANCH  13  14
ATOM     14  C   UNL     1     -10.340   6.876 130.555  0.00  0.00    +0.000 C 
BRANCH  14  15
ATOM     15  C   UNL     1     -11.721   7.214 129.955  0.00  0.00    +0.000 C 
BRANCH  15  16
ATOM     16  N   UNL     1     -11.719   8.344 128.974  0.00  0.00    +0.000 NA
ATOM     17  C   UNL     1     -12.898   8.330 128.072  0.00  0.00    +0.000 C 
ATOM     18  C   UNL     1     -12.857   7.150 127.065  0.00  0.00    +0.000 C 
ATOM     19  O   UNL     1     -11.693   7.241 126.242  0.00  0.00    +0.000 OA
ATOM     20  C   UNL     1     -10.529   7.164 127.091  0.00  0.00    +0.000 C 
ATOM     21  C   UNL     1     -10.523   8.342 128.085  0.00  0.00    +0.000 C 
ENDBRANCH  15  16
ENDBRANCH  14  15
ENDBRANCH  13  14
ENDBRANCH  10  13
ENDBRANCH   4   7
BRANCH   1  22
ATOM     22  C   UNL     1      -6.412  -2.442 132.837  0.00  0.00    +0.000 C 
BRANCH  22  24
ATOM     23  O   UNL     1      -4.088  -2.077 132.169  0.00  0.00    +0.000 OA
ATOM     24  C   UNL     1      -5.179  -2.583 131.959  0.00  0.00    +0.000 C 
ATOM     25  N   UNL     1      -5.326  -3.315 130.813  0.00  0.00    +0.000 N 
ATOM     26  H   UNL     1      -4.471  -3.376 130.272  0.00  0.00    +0.000 HD
BRANCH  25  27
ATOM     27  C   UNL     1      -6.516  -3.974 130.326  0.00  0.00    +0.000 C 
BRANCH  27  28
ATOM     28  C   UNL     1      -7.030  -3.303 129.083  0.00  0.00    +0.000 A 
ATOM     29  C   UNL     1      -8.279  -3.617 128.530  0.00  0.00    +0.000 A 
ATOM     30  C   UNL     1      -8.684  -3.015 127.336  0.00  0.00    +0.000 A 
ATOM     31  C   UNL     1      -7.886  -2.044 126.732  0.00  0.00    +0.000 A 
ATOM     32  C   UNL     1      -6.649  -1.719 127.280  0.00  0.00    +0.000 A 
ATOM     33  C   UNL     1      -6.216  -2.362 128.434  0.00  0.00    +0.000 A 
ENDBRANCH  27  28
ENDBRANCH  25  27
ENDBRANCH  22  24
ENDBRANCH   1  22
TORSDOF 9
ENDMDL
