MODEL 1
REMARK VINA RESULT:      -7.6      0.000      0.000
REMARK  Name = Tirofiban
REMARK  16 active torsions:
REMARK  status: ('A' for Active; 'I' for Inactive)
REMARK    1  A    between atoms: C_1  and  C_2
REMARK    2  A    between atoms: C_2  and  C_3
REMARK    3  A    between atoms: C_3  and  C_4
REMARK    4  A    between atoms: C_4  and  S_5
REMARK    5  A    between atoms: S_5  and  N_8
REMARK    6  A    between atoms: N_8  and  C_9
REMARK    7  A    between atoms: C_9  and  C_10
REMARK    8  A    between atoms: C_9  and  C_28
REMARK    9  A    between atoms: C_10  and  C_11
REMARK   10  A    between atoms: C_14  and  O_15
REMARK   11  A    between atoms: O_15  and  C_16
REMARK   12  A    between atoms: C_16  and  C_17
REMARK   13  A    between atoms: C_17  and  C_18
REMARK   14  A    between atoms: C_18  and  C_19
REMARK   15  A    between atoms: C_19  and  C_20
REMARK   16  A    between atoms: C_28  and  O_29
REMARK                            x       y       z     vdW  Elec       q    Type
REMARK                         _______ _______ _______ _____ _____    ______ ____
ROOT
ATOM      1  C   UNL     1      -9.536   2.561 130.468  0.00  0.00    +0.000 A 
ATOM      2  C   UNL     1      -8.835   2.263 129.289  0.00  0.00    +0.000 A 
ATOM      3  C   UNL     1      -8.103   1.057 129.180  0.00  0.00    +0.000 A 
ATOM      4  C   UNL     1      -8.051   0.150 130.239  0.00  0.00    +0.000 A 
ATOM      5  C   UNL     1      -8.648   0.520 131.431  0.00  0.00    +0.000 A 
ATOM      6  C   UNL     1      -9.236   1.786 131.587  0.00  0.00    +0.000 A 
ENDROOT
BRANCH   1   7
ATOM      7  C   UNL     1     -10.790   3.453 130.458  0.00  0.00    +0.000 C 
BRANCH   7   8
ATOM      8  C   UNL     1     -10.605   5.020 130.444  0.00  0.00    +0.000 C 
BRANCH   8   9
ATOM      9  N   UNL     1      -9.974   5.723 129.130  0.00  0.00    +0.000 NA
ATOM     10  H   UNL     1      -9.043   6.041 129.430  0.00  0.00    +0.000 HD
BRANCH   9  11
ATOM     11  S   UNL     1     -10.777   7.147 128.760  0.00  0.00    +0.000 S 
ATOM     12  O   UNL     1     -11.607   6.772 127.646  0.00  0.00    +0.000 OA
ATOM     13  O   UNL     1      -9.765   8.187 128.826  0.00  0.00    +0.000 OA
BRANCH  11  14
ATOM     14  C   UNL     1     -11.939   7.762 129.903  0.00  0.00    +0.000 C 
BRANCH  14  15
ATOM     15  C   UNL     1     -12.652   8.946 129.184  0.00  0.00    +0.000 C 
BRANCH  15  17
ATOM     16  C   UNL     1     -13.692  11.184 129.625  0.00  0.00    +0.000 C 
ATOM     17  C   UNL     1     -13.169   9.899 130.230  0.00  0.00    +0.000 C 
ENDBRANCH  15  17
ENDBRANCH  14  15
ENDBRANCH  11  14
ENDBRANCH   9  11
ENDBRANCH   8   9
BRANCH   8  18
ATOM     18  C   UNL     1      -9.769   5.431 131.664  0.00  0.00    +0.000 C 
ATOM     19  O   UNL     1      -8.624   5.856 131.595  0.00  0.00    +0.000 OA
BRANCH  18  20
ATOM     20  O   UNL     1     -10.377   5.220 132.857  0.00  0.00    +0.000 OA
ATOM     21  H   UNL     1     -11.111   5.852 132.999  0.00  0.00    +0.000 HD
ENDBRANCH  18  20
ENDBRANCH   8  18
ENDBRANCH   7   8
ENDBRANCH   1   7
BRANCH   4  22
ATOM     22  O   UNL     1      -7.418  -1.048 130.037  0.00  0.00    +0.000 OA
BRANCH  22  23
ATOM     23  C   UNL     1      -7.754  -1.730 128.821  0.00  0.00    +0.000 C 
BRANCH  23  24
ATOM     24  C   UNL     1      -8.205  -3.139 129.144  0.00  0.00    +0.000 C 
BRANCH  24  25
ATOM     25  C   UNL     1      -8.733  -3.829 127.878  0.00  0.00    +0.000 C 
BRANCH  25  26
ATOM     26  C   UNL     1      -8.805  -2.813 126.770  0.00  0.00    +0.000 C 
BRANCH  26  27
ATOM     27  C   UNL     1      -8.248  -3.177 125.385  0.00  0.00    +0.000 C 
ATOM     28  C   UNL     1      -6.807  -2.688 125.167  0.00  0.00    +0.000 C 
ATOM     29  C   UNL     1      -6.635  -1.639 124.063  0.00  0.00    +0.000 C 
ATOM     30  N   UNL     1      -7.228  -2.071 122.801  0.00  0.00    +0.000 NA
ATOM     31  C   UNL     1      -8.669  -2.253 122.981  0.00  0.00    +0.000 C 
ATOM     32  C   UNL     1      -8.991  -3.297 124.046  0.00  0.00    +0.000 C 
ATOM     33  H   UNL     1      -6.799  -2.952 122.512  0.00  0.00    +0.000 HD
ENDBRANCH  26  27
ENDBRANCH  25  26
ENDBRANCH  24  25
ENDBRANCH  23  24
ENDBRANCH  22  23
ENDBRANCH   4  22
TORSDOF 15
ENDMDL
MODEL 2
REMARK VINA RESULT:      -7.4      1.656      2.332
REMARK  Name = Tirofiban
REMARK  16 active torsions:
REMARK  status: ('A' for Active; 'I' for Inactive)
REMARK    1  A    between atoms: C_1  and  C_2
REMARK    2  A    between atoms: C_2  and  C_3
REMARK    3  A    between atoms: C_3  and  C_4
REMARK    4  A    between atoms: C_4  and  S_5
REMARK    5  A    between atoms: S_5  and  N_8
REMARK    6  A    between atoms: N_8  and  C_9
REMARK    7  A    between atoms: C_9  and  C_10
REMARK    8  A    between atoms: C_9  and  C_28
REMARK    9  A    between atoms: C_10  and  C_11
REMARK   10  A    between atoms: C_14  and  O_15
REMARK   11  A    between atoms: O_15  and  C_16
REMARK   12  A    between atoms: C_16  and  C_17
REMARK   13  A    between atoms: C_17  and  C_18
REMARK   14  A    between atoms: C_18  and  C_19
REMARK   15  A    between atoms: C_19  and  C_20
REMARK   16  A    between atoms: C_28  and  O_29
REMARK                            x       y       z     vdW  Elec       q    Type
REMARK                         _______ _______ _______ _____ _____    ______ ____
ROOT
ATOM      1  C   UNL     1      -8.909   2.788 130.486  0.00  0.00    +0.000 A 
ATOM      2  C   UNL     1      -9.358   2.044 131.588  0.00  0.00    +0.000 A 
ATOM      3  C   UNL     1      -9.109   0.654 131.658  0.00  0.00    +0.000 A 
ATOM      4  C   UNL     1      -8.429  -0.008 130.634  0.00  0.00    +0.000 A 
ATOM      5  C   UNL     1      -8.104   0.722 129.504  0.00  0.00    +0.000 A 
ATOM      6  C   UNL     1      -8.494   2.064 129.369  0.00  0.00    +0.000 A 
ENDROOT
BRANCH   1   7
ATOM      7  C   UNL     1      -8.576   4.286 130.604  0.00  0.00    +0.000 C 
BRANCH   7   8
ATOM      8  C   UNL     1      -9.584   5.229 131.370  0.00  0.00    +0.000 C 
BRANCH   8   9
ATOM      9  N   UNL     1     -10.176   6.527 130.607  0.00  0.00    +0.000 NA
ATOM     10  H   UNL     1     -10.017   7.305 131.261  0.00  0.00    +0.000 HD
BRANCH   9  11
ATOM     11  S   UNL     1     -11.846   6.449 130.486  0.00  0.00    +0.000 S 
ATOM     12  O   UNL     1     -12.272   6.462 131.861  0.00  0.00    +0.000 OA
ATOM     13  O   UNL     1     -12.113   5.450 129.466  0.00  0.00    +0.000 OA
BRANCH  11  14
ATOM     14  C   UNL     1     -12.691   7.818 129.819  0.00  0.00    +0.000 C 
BRANCH  14  15
ATOM     15  C   UNL     1     -12.726   7.584 128.279  0.00  0.00    +0.000 C 
BRANCH  15  17
ATOM     16  C   UNL     1     -10.620   7.451 126.925  0.00  0.00    +0.000 C 
ATOM     17  C   UNL     1     -11.594   8.354 127.653  0.00  0.00    +0.000 C 
ENDBRANCH  15  17
ENDBRANCH  14  15
ENDBRANCH  11  14
ENDBRANCH   9  11
ENDBRANCH   8   9
BRANCH   8  18
ATOM     18  C   UNL     1      -8.931   5.691 132.680  0.00  0.00    +0.000 C 
ATOM     19  O   UNL     1      -7.777   5.433 132.996  0.00  0.00    +0.000 OA
BRANCH  18  20
ATOM     20  O   UNL     1      -9.763   6.361 133.515  0.00  0.00    +0.000 OA
ATOM     21  H   UNL     1      -9.526   7.310 133.564  0.00  0.00    +0.000 HD
ENDBRANCH  18  20
ENDBRANCH   8  18
ENDBRANCH   7   8
ENDBRANCH   1   7
BRANCH   4  22
ATOM     22  O   UNL     1      -8.123  -1.332 130.808  0.00  0.00    +0.000 OA
BRANCH  22  23
ATOM     23  C   UNL     1      -7.125  -1.859 129.924  0.00  0.00    +0.000 C 
BRANCH  23  24
ATOM     24  C   UNL     1      -7.428  -3.314 129.635  0.00  0.00    +0.000 C 
BRANCH  24  25
ATOM     25  C   UNL     1      -8.517  -3.426 128.559  0.00  0.00    +0.000 C 
BRANCH  25  26
ATOM     26  C   UNL     1      -7.985  -2.846 127.275  0.00  0.00    +0.000 C 
BRANCH  26  27
ATOM     27  C   UNL     1      -8.970  -2.226 126.271  0.00  0.00    +0.000 C 
ATOM     28  C   UNL     1      -9.375  -3.194 125.148  0.00  0.00    +0.000 C 
ATOM     29  C   UNL     1      -8.937  -2.776 123.739  0.00  0.00    +0.000 C 
ATOM     30  N   UNL     1      -9.353  -1.414 123.419  0.00  0.00    +0.000 NA
ATOM     31  C   UNL     1      -8.712  -0.482 124.347  0.00  0.00    +0.000 C 
ATOM     32  C   UNL     1      -9.080  -0.768 125.800  0.00  0.00    +0.000 C 
ATOM     33  H   UNL     1     -10.369  -1.344 123.503  0.00  0.00    +0.000 HD
ENDBRANCH  26  27
ENDBRANCH  25  26
ENDBRANCH  24  25
ENDBRANCH  23  24
ENDBRANCH  22  23
ENDBRANCH   4  22
TORSDOF 15
ENDMDL
MODEL 3
REMARK VINA RESULT:      -7.3      4.795      5.818
REMARK  Name = Tirofiban
REMARK  16 active torsions:
REMARK  status: ('A' for Active; 'I' for Inactive)
REMARK    1  A    between atoms: C_1  and  C_2
REMARK    2  A    between atoms: C_2  and  C_3
REMARK    3  A    between atoms: C_3  and  C_4
REMARK    4  A    between atoms: C_4  and  S_5
REMARK    5  A    between atoms: S_5  and  N_8
REMARK    6  A    between atoms: N_8  and  C_9
REMARK    7  A    between atoms: C_9  and  C_10
REMARK    8  A    between atoms: C_9  and  C_28
REMARK    9  A    between atoms: C_10  and  C_11
REMARK   10  A    between atoms: C_14  and  O_15
REMARK   11  A    between atoms: O_15  and  C_16
REMARK   12  A    between atoms: C_16  and  C_17
REMARK   13  A    between atoms: C_17  and  C_18
REMARK   14  A    between atoms: C_18  and  C_19
REMARK   15  A    between atoms: C_19  and  C_20
REMARK   16  A    between atoms: C_28  and  O_29
REMARK                            x       y       z     vdW  Elec       q    Type
REMARK                         _______ _______ _______ _____ _____    ______ ____
ROOT
ATOM      1  C   UNL     1      -6.855   5.907 131.414  0.00  0.00    +0.000 A 
ATOM      2  C   UNL     1      -6.478   4.699 130.807  0.00  0.00    +0.000 A 
ATOM      3  C   UNL     1      -5.235   4.595 130.140  0.00  0.00    +0.000 A 
ATOM      4  C   UNL     1      -4.368   5.686 130.058  0.00  0.00    +0.000 A 
ATOM      5  C   UNL     1      -4.814   6.897 130.558  0.00  0.00    +0.000 A 
ATOM      6  C   UNL     1      -6.111   7.036 131.076  0.00  0.00    +0.000 A 
ENDROOT
BRANCH   1   7
ATOM      7  C   UNL     1      -7.805   5.940 132.624  0.00  0.00    +0.000 C 
BRANCH   7   8
ATOM      8  C   UNL     1      -9.230   5.274 132.488  0.00  0.00    +0.000 C 
BRANCH   8   9
ATOM      9  N   UNL     1     -10.545   6.187 132.719  0.00  0.00    +0.000 NA
ATOM     10  H   UNL     1     -11.116   5.653 133.389  0.00  0.00    +0.000 HD
BRANCH   9  11
ATOM     11  S   UNL     1     -11.499   6.235 131.341  0.00  0.00    +0.000 S 
ATOM     12  O   UNL     1     -12.751   6.750 131.830  0.00  0.00    +0.000 OA
ATOM     13  O   UNL     1     -11.243   4.981 130.653  0.00  0.00    +0.000 OA
BRANCH  11  14
ATOM     14  C   UNL     1     -11.088   7.374 130.090  0.00  0.00    +0.000 C 
BRANCH  14  15
ATOM     15  C   UNL     1     -10.203   6.588 129.077  0.00  0.00    +0.000 C 
BRANCH  15  17
ATOM     16  C   UNL     1     -11.385   8.332 127.719  0.00  0.00    +0.000 C 
ATOM     17  C   UNL     1     -10.430   7.158 127.701  0.00  0.00    +0.000 C 
ENDBRANCH  15  17
ENDBRANCH  14  15
ENDBRANCH  11  14
ENDBRANCH   9  11
ENDBRANCH   8   9
BRANCH   8  18
ATOM     18  C   UNL     1      -9.304   4.068 133.433  0.00  0.00    +0.000 C 
ATOM     19  O   UNL     1      -8.692   3.989 134.490  0.00  0.00    +0.000 OA
BRANCH  18  20
ATOM     20  O   UNL     1     -10.058   3.039 132.972  0.00  0.00    +0.000 OA
ATOM     21  H   UNL     1      -9.516   2.403 132.462  0.00  0.00    +0.000 HD
ENDBRANCH  18  20
ENDBRANCH   8  18
ENDBRANCH   7   8
ENDBRANCH   1   7
BRANCH   4  22
ATOM     22  O   UNL     1      -3.134   5.494 129.495  0.00  0.00    +0.000 OA
BRANCH  22  23
ATOM     23  C   UNL     1      -3.092   5.539 128.062  0.00  0.00    +0.000 C 
BRANCH  23  24
ATOM     24  C   UNL     1      -2.631   4.198 127.532  0.00  0.00    +0.000 C 
BRANCH  24  25
ATOM     25  C   UNL     1      -3.395   3.845 126.248  0.00  0.00    +0.000 C 
BRANCH  25  26
ATOM     26  C   UNL     1      -4.868   4.028 126.498  0.00  0.00    +0.000 C 
BRANCH  26  27
ATOM     27  C   UNL     1      -5.765   4.523 125.353  0.00  0.00    +0.000 C 
ATOM     28  C   UNL     1      -7.251   4.594 125.739  0.00  0.00    +0.000 C 
ATOM     29  C   UNL     1      -8.171   3.644 124.963  0.00  0.00    +0.000 C 
ATOM     30  N   UNL     1      -8.008   3.782 123.520  0.00  0.00    +0.000 NA
ATOM     31  C   UNL     1      -6.637   3.425 123.152  0.00  0.00    +0.000 C 
ATOM     32  C   UNL     1      -5.604   4.313 123.840  0.00  0.00    +0.000 C 
ATOM     33  H   UNL     1      -8.199   4.749 123.250  0.00  0.00    +0.000 HD
ENDBRANCH  26  27
ENDBRANCH  25  26
ENDBRANCH  24  25
ENDBRANCH  23  24
ENDBRANCH  22  23
ENDBRANCH   4  22
TORSDOF 15
ENDMDL
MODEL 4
REMARK VINA RESULT:      -7.2      4.704      6.208
REMARK  Name = Tirofiban
REMARK  16 active torsions:
REMARK  status: ('A' for Active; 'I' for Inactive)
REMARK    1  A    between atoms: C_1  and  C_2
REMARK    2  A    between atoms: C_2  and  C_3
REMARK    3  A    between atoms: C_3  and  C_4
REMARK    4  A    between atoms: C_4  and  S_5
REMARK    5  A    between atoms: S_5  and  N_8
REMARK    6  A    between atoms: N_8  and  C_9
REMARK    7  A    between atoms: C_9  and  C_10
REMARK    8  A    between atoms: C_9  and  C_28
REMARK    9  A    between atoms: C_10  and  C_11
REMARK   10  A    between atoms: C_14  and  O_15
REMARK   11  A    between atoms: O_15  and  C_16
REMARK   12  A    between atoms: C_16  and  C_17
REMARK   13  A    between atoms: C_17  and  C_18
REMARK   14  A    between atoms: C_18  and  C_19
REMARK   15  A    between atoms: C_19  and  C_20
REMARK   16  A    between atoms: C_28  and  O_29
REMARK                            x       y       z     vdW  Elec       q    Type
REMARK                         _______ _______ _______ _____ _____    ______ ____
ROOT
ATOM      1  C   UNL     1      -6.788   1.180 126.336  0.00  0.00    +0.000 A 
ATOM      2  C   UNL     1      -7.953   0.759 126.994  0.00  0.00    +0.000 A 
ATOM      3  C   UNL     1      -7.885  -0.236 127.997  0.00  0.00    +0.000 A 
ATOM      4  C   UNL     1      -6.668  -0.827 128.342  0.00  0.00    +0.000 A 
ATOM      5  C   UNL     1      -5.554  -0.483 127.597  0.00  0.00    +0.000 A 
ATOM      6  C   UNL     1      -5.655   0.386 126.498  0.00  0.00    +0.000 A 
ENDROOT
BRANCH   1   7
ATOM      7  C   UNL     1      -6.662   2.596 125.746  0.00  0.00    +0.000 C 
BRANCH   7   8
ATOM      8  C   UNL     1      -7.958   3.491 125.637  0.00  0.00    +0.000 C 
BRANCH   8   9
ATOM      9  N   UNL     1      -9.036   3.167 124.475  0.00  0.00    +0.000 NA
ATOM     10  H   UNL     1      -9.530   2.327 124.809  0.00  0.00    +0.000 HD
BRANCH   9  11
ATOM     11  S   UNL     1      -8.279   2.647 123.073  0.00  0.00    +0.000 S 
ATOM     12  O   UNL     1      -8.971   3.375 122.042  0.00  0.00    +0.000 OA
ATOM     13  O   UNL     1      -8.133   1.210 123.225  0.00  0.00    +0.000 OA
BRANCH  11  14
ATOM     14  C   UNL     1      -6.621   3.109 122.809  0.00  0.00    +0.000 C 
BRANCH  14  15
ATOM     15  C   UNL     1      -6.541   3.567 121.322  0.00  0.00    +0.000 C 
BRANCH  15  17
ATOM     16  C   UNL     1      -4.452   4.873 121.785  0.00  0.00    +0.000 C 
ATOM     17  C   UNL     1      -5.094   3.776 120.963  0.00  0.00    +0.000 C 
ENDBRANCH  15  17
ENDBRANCH  14  15
ENDBRANCH  11  14
ENDBRANCH   9  11
ENDBRANCH   8   9
BRANCH   8  18
ATOM     18  C   UNL     1      -7.535   4.961 125.511  0.00  0.00    +0.000 C 
ATOM     19  O   UNL     1      -6.371   5.339 125.507  0.00  0.00    +0.000 OA
BRANCH  18  20
ATOM     20  O   UNL     1      -8.566   5.840 125.473  0.00  0.00    +0.000 OA
ATOM     21  H   UNL     1      -9.353   5.445 125.044  0.00  0.00    +0.000 HD
ENDBRANCH  18  20
ENDBRANCH   8  18
ENDBRANCH   7   8
ENDBRANCH   1   7
BRANCH   4  22
ATOM     22  O   UNL     1      -6.648  -1.705 129.393  0.00  0.00    +0.000 OA
BRANCH  22  23
ATOM     23  C   UNL     1      -6.890  -3.078 129.060  0.00  0.00    +0.000 C 
BRANCH  23  24
ATOM     24  C   UNL     1      -8.384  -3.322 128.993  0.00  0.00    +0.000 C 
BRANCH  24  25
ATOM     25  C   UNL     1      -8.731  -4.143 127.744  0.00  0.00    +0.000 C 
BRANCH  25  26
ATOM     26  C   UNL     1      -9.166  -3.201 126.653  0.00  0.00    +0.000 C 
BRANCH  26  27
ATOM     27  C   UNL     1      -8.643  -3.418 125.225  0.00  0.00    +0.000 C 
ATOM     28  C   UNL     1      -7.167  -3.022 125.057  0.00  0.00    +0.000 C 
ATOM     29  C   UNL     1      -6.911  -1.850 124.104  0.00  0.00    +0.000 C 
ATOM     30  N   UNL     1      -7.538  -2.057 122.803  0.00  0.00    +0.000 NA
ATOM     31  C   UNL     1      -8.989  -2.144 122.974  0.00  0.00    +0.000 C 
ATOM     32  C   UNL     1      -9.394  -3.294 123.891  0.00  0.00    +0.000 C 
ATOM     33  H   UNL     1      -7.183  -2.922 122.392  0.00  0.00    +0.000 HD
ENDBRANCH  26  27
ENDBRANCH  25  26
ENDBRANCH  24  25
ENDBRANCH  23  24
ENDBRANCH  22  23
ENDBRANCH   4  22
TORSDOF 15
ENDMDL
MODEL 5
REMARK VINA RESULT:      -7.2      4.596      5.951
REMARK  Name = Tirofiban
REMARK  16 active torsions:
REMARK  status: ('A' for Active; 'I' for Inactive)
REMARK    1  A    between atoms: C_1  and  C_2
REMARK    2  A    between atoms: C_2  and  C_3
REMARK    3  A    between atoms: C_3  and  C_4
REMARK    4  A    between atoms: C_4  and  S_5
REMARK    5  A    between atoms: S_5  and  N_8
REMARK    6  A    between atoms: N_8  and  C_9
REMARK    7  A    between atoms: C_9  and  C_10
REMARK    8  A    between atoms: C_9  and  C_28
REMARK    9  A    between atoms: C_10  and  C_11
REMARK   10  A    between atoms: C_14  and  O_15
REMARK   11  A    between atoms: O_15  and  C_16
REMARK   12  A    between atoms: C_16  and  C_17
REMARK   13  A    between atoms: C_17  and  C_18
REMARK   14  A    between atoms: C_18  and  C_19
REMARK   15  A    between atoms: C_19  and  C_20
REMARK   16  A    between atoms: C_28  and  O_29
REMARK                            x       y       z     vdW  Elec       q    Type
REMARK                         _______ _______ _______ _____ _____    ______ ____
ROOT
ATOM      1  C   UNL     1      -8.172   6.352 131.966  0.00  0.00    +0.000 A 
ATOM      2  C   UNL     1      -7.441   7.080 131.015  0.00  0.00    +0.000 A 
ATOM      3  C   UNL     1      -6.028   7.034 131.015  0.00  0.00    +0.000 A 
ATOM      4  C   UNL     1      -5.333   6.280 131.962  0.00  0.00    +0.000 A 
ATOM      5  C   UNL     1      -6.070   5.669 132.962  0.00  0.00    +0.000 A 
ATOM      6  C   UNL     1      -7.459   5.847 133.052  0.00  0.00    +0.000 A 
ENDROOT
BRANCH   1   7
ATOM      7  C   UNL     1      -9.598   5.849 131.676  0.00  0.00    +0.000 C 
BRANCH   7   8
ATOM      8  C   UNL     1      -9.904   5.210 130.265  0.00  0.00    +0.000 C 
BRANCH   8   9
ATOM      9  N   UNL     1     -11.038   5.886 129.329  0.00  0.00    +0.000 NA
ATOM     10  H   UNL     1     -11.369   5.118 128.730  0.00  0.00    +0.000 HD
BRANCH   9  11
ATOM     11  S   UNL     1     -10.360   6.968 128.244  0.00  0.00    +0.000 S 
ATOM     12  O   UNL     1      -9.579   6.119 127.383  0.00  0.00    +0.000 OA
ATOM     13  O   UNL     1      -9.917   8.094 129.048  0.00  0.00    +0.000 OA
BRANCH  11  14
ATOM     14  C   UNL     1     -11.412   7.777 127.116  0.00  0.00    +0.000 C 
BRANCH  14  15
ATOM     15  C   UNL     1     -12.813   7.121 127.301  0.00  0.00    +0.000 C 
BRANCH  15  17
ATOM     16  C   UNL     1     -13.229   9.177 128.673  0.00  0.00    +0.000 C 
ATOM     17  C   UNL     1     -13.800   8.196 127.671  0.00  0.00    +0.000 C 
ENDBRANCH  15  17
ENDBRANCH  14  15
ENDBRANCH  11  14
ENDBRANCH   9  11
ENDBRANCH   8   9
BRANCH   8  18
ATOM     18  C   UNL     1     -10.254   3.728 130.459  0.00  0.00    +0.000 C 
ATOM     19  O   UNL     1      -9.427   2.854 130.680  0.00  0.00    +0.000 OA
BRANCH  18  20
ATOM     20  O   UNL     1     -11.568   3.436 130.295  0.00  0.00    +0.000 OA
ATOM     21  H   UNL     1     -11.781   3.271 129.354  0.00  0.00    +0.000 HD
ENDBRANCH  18  20
ENDBRANCH   8  18
ENDBRANCH   7   8
ENDBRANCH   1   7
BRANCH   4  22
ATOM     22  O   UNL     1      -3.971   6.187 131.846  0.00  0.00    +0.000 OA
BRANCH  22  23
ATOM     23  C   UNL     1      -3.359   5.105 132.561  0.00  0.00    +0.000 C 
BRANCH  23  24
ATOM     24  C   UNL     1      -2.800   4.103 131.573  0.00  0.00    +0.000 C 
BRANCH  24  25
ATOM     25  C   UNL     1      -3.842   3.018 131.271  0.00  0.00    +0.000 C 
BRANCH  25  26
ATOM     26  C   UNL     1      -4.056   2.958 129.782  0.00  0.00    +0.000 C 
BRANCH  26  27
ATOM     27  C   UNL     1      -4.883   4.060 129.101  0.00  0.00    +0.000 C 
ATOM     28  C   UNL     1      -6.398   3.878 129.283  0.00  0.00    +0.000 C 
ATOM     29  C   UNL     1      -7.183   3.618 127.992  0.00  0.00    +0.000 C 
ATOM     30  N   UNL     1      -6.906   4.624 126.973  0.00  0.00    +0.000 NA
ATOM     31  C   UNL     1      -5.488   4.572 126.614  0.00  0.00    +0.000 C 
ATOM     32  C   UNL     1      -4.579   4.837 127.811  0.00  0.00    +0.000 C 
ATOM     33  H   UNL     1      -7.138   5.549 127.340  0.00  0.00    +0.000 HD
ENDBRANCH  26  27
ENDBRANCH  25  26
ENDBRANCH  24  25
ENDBRANCH  23  24
ENDBRANCH  22  23
ENDBRANCH   4  22
TORSDOF 15
ENDMDL
MODEL 6
REMARK VINA RESULT:      -7.0      3.681      8.229
REMARK  Name = Tirofiban
REMARK  16 active torsions:
REMARK  status: ('A' for Active; 'I' for Inactive)
REMARK    1  A    between atoms: C_1  and  C_2
REMARK    2  A    between atoms: C_2  and  C_3
REMARK    3  A    between atoms: C_3  and  C_4
REMARK    4  A    between atoms: C_4  and  S_5
REMARK    5  A    between atoms: S_5  and  N_8
REMARK    6  A    between atoms: N_8  and  C_9
REMARK    7  A    between atoms: C_9  and  C_10
REMARK    8  A    between atoms: C_9  and  C_28
REMARK    9  A    between atoms: C_10  and  C_11
REMARK   10  A    between atoms: C_14  and  O_15
REMARK   11  A    between atoms: O_15  and  C_16
REMARK   12  A    between atoms: C_16  and  C_17
REMARK   13  A    between atoms: C_17  and  C_18
REMARK   14  A    between atoms: C_18  and  C_19
REMARK   15  A    between atoms: C_19  and  C_20
REMARK   16  A    between atoms: C_28  and  O_29
REMARK                            x       y       z     vdW  Elec       q    Type
REMARK                         _______ _______ _______ _____ _____    ______ ____
ROOT
ATOM      1  C   UNL     1      -8.251  -2.995 127.124  0.00  0.00    +0.000 A 
ATOM      2  C   UNL     1      -8.670  -3.559 128.339  0.00  0.00    +0.000 A 
ATOM      3  C   UNL     1      -8.090  -3.137 129.558  0.00  0.00    +0.000 A 
ATOM      4  C   UNL     1      -7.086  -2.168 129.579  0.00  0.00    +0.000 A 
ATOM      5  C   UNL     1      -6.605  -1.715 128.363  0.00  0.00    +0.000 A 
ATOM      6  C   UNL     1      -7.071  -2.253 127.152  0.00  0.00    +0.000 A 
ENDROOT
BRANCH   1   7
ATOM      7  C   UNL     1      -9.189  -2.910 125.908  0.00  0.00    +0.000 C 
BRANCH   7   8
ATOM      8  C   UNL     1      -8.900  -1.822 124.801  0.00  0.00    +0.000 C 
BRANCH   8   9
ATOM      9  N   UNL     1      -9.743  -0.442 124.821  0.00  0.00    +0.000 NA
ATOM     10  H   UNL     1      -9.920  -0.233 123.829  0.00  0.00    +0.000 HD
BRANCH   9  11
ATOM     11  S   UNL     1      -8.792   0.842 125.329  0.00  0.00    +0.000 S 
ATOM     12  O   UNL     1      -7.466   0.436 124.943  0.00  0.00    +0.000 OA
ATOM     13  O   UNL     1      -9.285   1.185 126.652  0.00  0.00    +0.000 OA
BRANCH  11  14
ATOM     14  C   UNL     1      -8.967   2.373 124.518  0.00  0.00    +0.000 C 
BRANCH  14  15
ATOM     15  C   UNL     1      -9.252   2.029 123.025  0.00  0.00    +0.000 C 
BRANCH  15  17
ATOM     16  C   UNL     1      -7.074   3.163 122.520  0.00  0.00    +0.000 C 
ATOM     17  C   UNL     1      -8.538   3.034 122.159  0.00  0.00    +0.000 C 
ENDBRANCH  15  17
ENDBRANCH  14  15
ENDBRANCH  11  14
ENDBRANCH   9  11
ENDBRANCH   8   9
BRANCH   8  18
ATOM     18  C   UNL     1      -9.059  -2.469 123.418  0.00  0.00    +0.000 C 
ATOM     19  O   UNL     1      -8.343  -2.215 122.459  0.00  0.00    +0.000 OA
BRANCH  18  20
ATOM     20  O   UNL     1     -10.117  -3.311 123.311  0.00  0.00    +0.000 OA
ATOM     21  H   UNL     1     -10.710  -3.044 122.580  0.00  0.00    +0.000 HD
ENDBRANCH  18  20
ENDBRANCH   8  18
ENDBRANCH   7   8
ENDBRANCH   1   7
BRANCH   4  22
ATOM     22  O   UNL     1      -6.639  -1.722 130.795  0.00  0.00    +0.000 OA
BRANCH  22  23
ATOM     23  C   UNL     1      -7.582  -1.809 131.872  0.00  0.00    +0.000 C 
BRANCH  23  24
ATOM     24  C   UNL     1      -7.884  -0.417 132.388  0.00  0.00    +0.000 C 
BRANCH  24  25
ATOM     25  C   UNL     1      -8.935   0.261 131.498  0.00  0.00    +0.000 C 
BRANCH  25  26
ATOM     26  C   UNL     1      -8.578   1.717 131.354  0.00  0.00    +0.000 C 
BRANCH  26  27
ATOM     27  C   UNL     1      -9.348   2.579 130.342  0.00  0.00    +0.000 C 
ATOM     28  C   UNL     1      -8.431   3.278 129.325  0.00  0.00    +0.000 C 
ATOM     29  C   UNL     1      -8.426   4.810 129.399  0.00  0.00    +0.000 C 
ATOM     30  N   UNL     1      -9.774   5.364 129.341  0.00  0.00    +0.000 NA
ATOM     31  C   UNL     1     -10.540   4.895 130.497  0.00  0.00    +0.000 C 
ATOM     32  C   UNL     1     -10.647   3.374 130.541  0.00  0.00    +0.000 C 
ATOM     33  H   UNL     1     -10.227   5.059 128.477  0.00  0.00    +0.000 HD
ENDBRANCH  26  27
ENDBRANCH  25  26
ENDBRANCH  24  25
ENDBRANCH  23  24
ENDBRANCH  22  23
ENDBRANCH   4  22
TORSDOF 15
ENDMDL
MODEL 7
REMARK VINA RESULT:      -7.0      5.315      7.570
REMARK  Name = Tirofiban
REMARK  16 active torsions:
REMARK  status: ('A' for Active; 'I' for Inactive)
REMARK    1  A    between atoms: C_1  and  C_2
REMARK    2  A    between atoms: C_2  and  C_3
REMARK    3  A    between atoms: C_3  and  C_4
REMARK    4  A    between atoms: C_4  and  S_5
REMARK    5  A    between atoms: S_5  and  N_8
REMARK    6  A    between atoms: N_8  and  C_9
REMARK    7  A    between atoms: C_9  and  C_10
REMARK    8  A    between atoms: C_9  and  C_28
REMARK    9  A    between atoms: C_10  and  C_11
REMARK   10  A    between atoms: C_14  and  O_15
REMARK   11  A    between atoms: O_15  and  C_16
REMARK   12  A    between atoms: C_16  and  C_17
REMARK   13  A    between atoms: C_17  and  C_18
REMARK   14  A    between atoms: C_18  and  C_19
REMARK   15  A    between atoms: C_19  and  C_20
REMARK   16  A    between atoms: C_28  and  O_29
REMARK                            x       y       z     vdW  Elec       q    Type
REMARK                         _______ _______ _______ _____ _____    ______ ____
ROOT
ATOM      1  C   UNL     1      -7.371  -2.516 129.093  0.00  0.00    +0.000 A 
ATOM      2  C   UNL     1      -8.264  -3.596 129.024  0.00  0.00    +0.000 A 
ATOM      3  C   UNL     1      -9.001  -3.836 127.841  0.00  0.00    +0.000 A 
ATOM      4  C   UNL     1      -8.869  -3.002 126.729  0.00  0.00    +0.000 A 
ATOM      5  C   UNL     1      -8.075  -1.876 126.863  0.00  0.00    +0.000 A 
ATOM      6  C   UNL     1      -7.471  -1.555 128.089  0.00  0.00    +0.000 A 
ENDROOT
BRANCH   1   7
ATOM      7  C   UNL     1      -6.139  -2.546 130.015  0.00  0.00    +0.000 C 
BRANCH   7   8
ATOM      8  C   UNL     1      -6.336  -2.930 131.534  0.00  0.00    +0.000 C 
BRANCH   8   9
ATOM      9  N   UNL     1      -5.825  -1.902 132.674  0.00  0.00    +0.000 NA
ATOM     10  H   UNL     1      -5.691  -2.489 133.509  0.00  0.00    +0.000 HD
BRANCH   9  11
ATOM     11  S   UNL     1      -7.045  -0.846 133.127  0.00  0.00    +0.000 S 
ATOM     12  O   UNL     1      -6.448  -0.104 134.206  0.00  0.00    +0.000 OA
ATOM     13  O   UNL     1      -8.260  -1.642 133.140  0.00  0.00    +0.000 OA
BRANCH  11  14
ATOM     14  C   UNL     1      -7.504   0.414 132.015  0.00  0.00    +0.000 C 
BRANCH  14  15
ATOM     15  C   UNL     1      -9.027   0.213 131.754  0.00  0.00    +0.000 C 
BRANCH  15  17
ATOM     16  C   UNL     1      -9.098   2.421 132.938  0.00  0.00    +0.000 C 
ATOM     17  C   UNL     1      -9.711   1.550 131.862  0.00  0.00    +0.000 C 
ENDBRANCH  15  17
ENDBRANCH  14  15
ENDBRANCH  11  14
ENDBRANCH   9  11
ENDBRANCH   8   9
BRANCH   8  18
ATOM     18  C   UNL     1      -5.688  -4.298 131.786  0.00  0.00    +0.000 C 
ATOM     19  O   UNL     1      -5.326  -4.689 132.888  0.00  0.00    +0.000 OA
BRANCH  18  20
ATOM     20  O   UNL     1      -5.475  -5.033 130.667  0.00  0.00    +0.000 OA
ATOM     21  H   UNL     1      -5.704  -4.527 129.861  0.00  0.00    +0.000 HD
ENDBRANCH  18  20
ENDBRANCH   8  18
ENDBRANCH   7   8
ENDBRANCH   1   7
BRANCH   4  22
ATOM     22  O   UNL     1      -9.525  -3.346 125.577  0.00  0.00    +0.000 OA
BRANCH  22  23
ATOM     23  C   UNL     1      -8.693  -3.559 124.429  0.00  0.00    +0.000 C 
BRANCH  23  24
ATOM     24  C   UNL     1      -9.295  -2.848 123.235  0.00  0.00    +0.000 C 
BRANCH  24  25
ATOM     25  C   UNL     1      -8.202  -2.097 122.460  0.00  0.00    +0.000 C 
BRANCH  25  26
ATOM     26  C   UNL     1      -7.535  -1.121 123.392  0.00  0.00    +0.000 C 
BRANCH  26  27
ATOM     27  C   UNL     1      -7.996   0.345 123.394  0.00  0.00    +0.000 C 
ATOM     28  C   UNL     1      -7.389   1.166 124.543  0.00  0.00    +0.000 C 
ATOM     29  C   UNL     1      -8.397   1.694 125.570  0.00  0.00    +0.000 C 
ATOM     30  N   UNL     1      -9.489   2.426 124.937  0.00  0.00    +0.000 NA
ATOM     31  C   UNL     1     -10.229   1.522 124.055  0.00  0.00    +0.000 C 
ATOM     32  C   UNL     1      -9.346   0.933 122.959  0.00  0.00    +0.000 C 
ATOM     33  H   UNL     1      -9.105   3.203 124.396  0.00  0.00    +0.000 HD
ENDBRANCH  26  27
ENDBRANCH  25  26
ENDBRANCH  24  25
ENDBRANCH  23  24
ENDBRANCH  22  23
ENDBRANCH   4  22
TORSDOF 15
ENDMDL
MODEL 8
REMARK VINA RESULT:      -7.0      4.765      9.627
REMARK  Name = Tirofiban
REMARK  16 active torsions:
REMARK  status: ('A' for Active; 'I' for Inactive)
REMARK    1  A    between atoms: C_1  and  C_2
REMARK    2  A    between atoms: C_2  and  C_3
REMARK    3  A    between atoms: C_3  and  C_4
REMARK    4  A    between atoms: C_4  and  S_5
REMARK    5  A    between atoms: S_5  and  N_8
REMARK    6  A    between atoms: N_8  and  C_9
REMARK    7  A    between atoms: C_9  and  C_10
REMARK    8  A    between atoms: C_9  and  C_28
REMARK    9  A    between atoms: C_10  and  C_11
REMARK   10  A    between atoms: C_14  and  O_15
REMARK   11  A    between atoms: O_15  and  C_16
REMARK   12  A    between atoms: C_16  and  C_17
REMARK   13  A    between atoms: C_17  and  C_18
REMARK   14  A    between atoms: C_18  and  C_19
REMARK   15  A    between atoms: C_19  and  C_20
REMARK   16  A    between atoms: C_28  and  O_29
REMARK                            x       y       z     vdW  Elec       q    Type
REMARK                         _______ _______ _______ _____ _____    ______ ____
ROOT
ATOM      1  C   UNL     1      -6.610   1.666 125.046  0.00  0.00    +0.000 A 
ATOM      2  C   UNL     1      -6.497   3.052 124.861  0.00  0.00    +0.000 A 
ATOM      3  C   UNL     1      -5.355   3.743 125.327  0.00  0.00    +0.000 A 
ATOM      4  C   UNL     1      -4.328   3.070 125.991  0.00  0.00    +0.000 A 
ATOM      5  C   UNL     1      -4.517   1.727 126.269  0.00  0.00    +0.000 A 
ATOM      6  C   UNL     1      -5.721   1.080 125.946  0.00  0.00    +0.000 A 
ENDROOT
BRANCH   1   7
ATOM      7  C   UNL     1      -7.428   0.786 124.084  0.00  0.00    +0.000 C 
BRANCH   7   8
ATOM      8  C   UNL     1      -8.626  -0.062 124.665  0.00  0.00    +0.000 C 
BRANCH   8   9
ATOM      9  N   UNL     1      -9.443  -1.044 123.672  0.00  0.00    +0.000 NA
ATOM     10  H   UNL     1     -10.245  -1.367 124.231  0.00  0.00    +0.000 HD
BRANCH   9  11
ATOM     11  S   UNL     1      -8.584  -2.450 123.367  0.00  0.00    +0.000 S 
ATOM     12  O   UNL     1      -7.895  -2.150 122.139  0.00  0.00    +0.000 OA
ATOM     13  O   UNL     1      -9.509  -3.535 123.644  0.00  0.00    +0.000 OA
BRANCH  11  14
ATOM     14  C   UNL     1      -7.275  -2.868 124.438  0.00  0.00    +0.000 C 
BRANCH  14  15
ATOM     15  C   UNL     1      -5.972  -2.692 123.602  0.00  0.00    +0.000 C 
BRANCH  15  17
ATOM     16  C   UNL     1      -4.475  -4.701 123.549  0.00  0.00    +0.000 C 
ATOM     17  C   UNL     1      -4.859  -3.438 124.289  0.00  0.00    +0.000 C 
ENDBRANCH  15  17
ENDBRANCH  14  15
ENDBRANCH  11  14
ENDBRANCH   9  11
ENDBRANCH   8   9
BRANCH   8  18
ATOM     18  C   UNL     1      -9.624   0.889 125.339  0.00  0.00    +0.000 C 
ATOM     19  O   UNL     1     -10.576   1.400 124.764  0.00  0.00    +0.000 OA
BRANCH  18  20
ATOM     20  O   UNL     1      -9.332   1.186 126.630  0.00  0.00    +0.000 OA
ATOM     21  H   UNL     1      -9.962   1.839 126.995  0.00  0.00    +0.000 HD
ENDBRANCH  18  20
ENDBRANCH   8  18
ENDBRANCH   7   8
ENDBRANCH   1   7
BRANCH   4  22
ATOM     22  O   UNL     1      -3.200   3.772 126.324  0.00  0.00    +0.000 OA
BRANCH  22  23
ATOM     23  C   UNL     1      -2.538   3.350 127.523  0.00  0.00    +0.000 C 
BRANCH  23  24
ATOM     24  C   UNL     1      -2.943   4.257 128.666  0.00  0.00    +0.000 C 
BRANCH  24  25
ATOM     25  C   UNL     1      -3.976   3.555 129.559  0.00  0.00    +0.000 C 
BRANCH  25  26
ATOM     26  C   UNL     1      -5.303   4.248 129.396  0.00  0.00    +0.000 C 
BRANCH  26  27
ATOM     27  C   UNL     1      -6.504   3.448 128.869  0.00  0.00    +0.000 C 
ATOM     28  C   UNL     1      -7.720   4.330 128.543  0.00  0.00    +0.000 C 
ATOM     29  C   UNL     1      -8.961   4.073 129.406  0.00  0.00    +0.000 C 
ATOM     30  N   UNL     1      -9.338   2.664 129.416  0.00  0.00    +0.000 NA
ATOM     31  C   UNL     1      -8.252   1.878 130.005  0.00  0.00    +0.000 C 
ATOM     32  C   UNL     1      -6.947   2.022 129.228  0.00  0.00    +0.000 C 
ATOM     33  H   UNL     1      -9.510   2.354 128.458  0.00  0.00    +0.000 HD
ENDBRANCH  26  27
ENDBRANCH  25  26
ENDBRANCH  24  25
ENDBRANCH  23  24
ENDBRANCH  22  23
ENDBRANCH   4  22
TORSDOF 15
ENDMDL
MODEL 9
REMARK VINA RESULT:      -7.0      5.096      6.625
REMARK  Name = Tirofiban
REMARK  16 active torsions:
REMARK  status: ('A' for Active; 'I' for Inactive)
REMARK    1  A    between atoms: C_1  and  C_2
REMARK    2  A    between atoms: C_2  and  C_3
REMARK    3  A    between atoms: C_3  and  C_4
REMARK    4  A    between atoms: C_4  and  S_5
REMARK    5  A    between atoms: S_5  and  N_8
REMARK    6  A    between atoms: N_8  and  C_9
REMARK    7  A    between atoms: C_9  and  C_10
REMARK    8  A    between atoms: C_9  and  C_28
REMARK    9  A    between atoms: C_10  and  C_11
REMARK   10  A    between atoms: C_14  and  O_15
REMARK   11  A    between atoms: O_15  and  C_16
REMARK   12  A    between atoms: C_16  and  C_17
REMARK   13  A    between atoms: C_17  and  C_18
REMARK   14  A    between atoms: C_18  and  C_19
REMARK   15  A    between atoms: C_19  and  C_20
REMARK   16  A    between atoms: C_28  and  O_29
REMARK                            x       y       z     vdW  Elec       q    Type
REMARK                         _______ _______ _______ _____ _____    ______ ____
ROOT
ATOM      1  C   UNL     1      -8.032   1.787 126.015  0.00  0.00    +0.000 A 
ATOM      2  C   UNL     1      -7.317   1.486 124.846  0.00  0.00    +0.000 A 
ATOM      3  C   UNL     1      -7.811   0.520 123.938  0.00  0.00    +0.000 A 
ATOM      4  C   UNL     1      -9.002  -0.161 124.190  0.00  0.00    +0.000 A 
ATOM      5  C   UNL     1      -9.625   0.064 125.405  0.00  0.00    +0.000 A 
ATOM      6  C   UNL     1      -9.050   0.904 126.372  0.00  0.00    +0.000 A 
ENDROOT
BRANCH   1   7
ATOM      7  C   UNL     1      -7.937   3.169 126.686  0.00  0.00    +0.000 C 
BRANCH   7   8
ATOM      8  C   UNL     1      -6.635   4.032 126.462  0.00  0.00    +0.000 C 
BRANCH   8   9
ATOM      9  N   UNL     1      -5.940   4.747 127.737  0.00  0.00    +0.000 NA
ATOM     10  H   UNL     1      -6.253   5.726 127.687  0.00  0.00    +0.000 HD
BRANCH   9  11
ATOM     11  S   UNL     1      -4.279   4.854 127.541  0.00  0.00    +0.000 S 
ATOM     12  O   UNL     1      -4.038   6.272 127.581  0.00  0.00    +0.000 OA
ATOM     13  O   UNL     1      -3.954   3.910 126.485  0.00  0.00    +0.000 OA
BRANCH  11  14
ATOM     14  C   UNL     1      -3.255   4.263 128.820  0.00  0.00    +0.000 C 
BRANCH  14  15
ATOM     15  C   UNL     1      -3.693   5.034 130.102  0.00  0.00    +0.000 C 
BRANCH  15  17
ATOM     16  C   UNL     1      -1.802   6.314 131.134  0.00  0.00    +0.000 C 
ATOM     17  C   UNL     1      -2.557   5.003 131.090  0.00  0.00    +0.000 C 
ENDBRANCH  15  17
ENDBRANCH  14  15
ENDBRANCH  11  14
ENDBRANCH   9  11
ENDBRANCH   8   9
BRANCH   8  18
ATOM     18  C   UNL     1      -6.929   5.105 125.405  0.00  0.00    +0.000 C 
ATOM     19  O   UNL     1      -6.094   5.542 124.624  0.00  0.00    +0.000 OA
BRANCH  18  20
ATOM     20  O   UNL     1      -8.191   5.598 125.442  0.00  0.00    +0.000 OA
ATOM     21  H   UNL     1      -8.485   5.752 126.363  0.00  0.00    +0.000 HD
ENDBRANCH  18  20
ENDBRANCH   8  18
ENDBRANCH   7   8
ENDBRANCH   1   7
BRANCH   4  22
ATOM     22  O   UNL     1      -9.484  -1.006 123.224  0.00  0.00    +0.000 OA
BRANCH  22  23
ATOM     23  C   UNL     1      -8.754  -2.226 123.047  0.00  0.00    +0.000 C 
BRANCH  23  24
ATOM     24  C   UNL     1      -9.287  -3.273 124.002  0.00  0.00    +0.000 C 
BRANCH  24  25
ATOM     25  C   UNL     1      -8.125  -4.016 124.677  0.00  0.00    +0.000 C 
BRANCH  25  26
ATOM     26  C   UNL     1      -7.049  -3.019 125.016  0.00  0.00    +0.000 C 
BRANCH  26  27
ATOM     27  C   UNL     1      -7.096  -2.303 126.375  0.00  0.00    +0.000 C 
ATOM     28  C   UNL     1      -5.723  -1.782 126.830  0.00  0.00    +0.000 C 
ATOM     29  C   UNL     1      -5.170  -2.429 128.104  0.00  0.00    +0.000 C 
ATOM     30  N   UNL     1      -6.128  -2.378 129.203  0.00  0.00    +0.000 NA
ATOM     31  C   UNL     1      -7.324  -3.138 128.837  0.00  0.00    +0.000 C 
ATOM     32  C   UNL     1      -7.999  -2.585 127.585  0.00  0.00    +0.000 C 
ATOM     33  H   UNL     1      -6.377  -1.405 129.388  0.00  0.00    +0.000 HD
ENDBRANCH  26  27
ENDBRANCH  25  26
ENDBRANCH  24  25
ENDBRANCH  23  24
ENDBRANCH  22  23
ENDBRANCH   4  22
TORSDOF 15
ENDMDL
