MODEL 1
REMARK VINA RESULT:      -9.0      0.000      0.000
REMARK  Name = Tivozanib
REMARK  8 active torsions:
REMARK  status: ('A' for Active; 'I' for Inactive)
REMARK    1  A    between atoms: C_1  and  O_2
REMARK    2  A    between atoms: O_2  and  C_3
REMARK    3  A    between atoms: C_4  and  O_5
REMARK    4  A    between atoms: O_5  and  C_6
REMARK    5  A    between atoms: C_9  and  O_10
REMARK    6  A    between atoms: O_10  and  C_11
REMARK    7  A    between atoms: C_15  and  N_16
REMARK    8  A    between atoms: C_23  and  C_24
REMARK                            x       y       z     vdW  Elec       q    Type
REMARK                         _______ _______ _______ _____ _____    ______ ____
ROOT
ATOM      1  C   UNL     1      -7.544   0.982 130.302  0.00  0.00    +0.000 A 
ATOM      2  C   UNL     1      -7.331   2.266 129.834  0.00  0.00    +0.000 A 
ATOM      3  C   UNL     1      -8.051   3.371 130.344  0.00  0.00    +0.000 A 
ATOM      4 CL   UNL     1      -7.151   4.793 129.904  0.00  0.00    +0.000 Cl
ATOM      5  C   UNL     1      -9.177   3.211 131.209  0.00  0.00    +0.000 A 
ATOM      6  C   UNL     1      -9.454   1.858 131.574  0.00  0.00    +0.000 A 
ATOM      7  C   UNL     1      -8.637   0.766 131.139  0.00  0.00    +0.000 A 
ENDROOT
BRANCH   5   8
ATOM      8  N   UNL     1     -10.076   4.257 131.733  0.00  0.00    +0.000 N 
ATOM      9  C   UNL     1     -10.744   5.187 130.948  0.00  0.00    +0.000 C 
ATOM     10  O   UNL     1     -10.566   5.303 129.761  0.00  0.00    +0.000 OA
ATOM     11  N   UNL     1     -11.673   6.034 131.527  0.00  0.00    +0.000 N 
ATOM     12  C   UNL     1     -12.296   6.945 130.630  0.00  0.00    +0.000 A 
ATOM     13  N   UNL     1     -12.501   8.243 130.900  0.00  0.00    +0.000 NA
ATOM     14  O   UNL     1     -13.039   8.800 129.732  0.00  0.00    +0.000 OA
ATOM     15  C   UNL     1     -13.237   7.824 128.803  0.00  0.00    +0.000 A 
ATOM     16  C   UNL     1     -13.887   8.182 127.520  0.00  0.00    +0.000 C 
ATOM     17  C   UNL     1     -12.778   6.643 129.320  0.00  0.00    +0.000 A 
ATOM     18  H   UNL     1     -10.227   4.274 132.733  0.00  0.00    +0.000 HD
ATOM     19  H   UNL     1     -11.600   6.349 132.479  0.00  0.00    +0.000 HD
ENDBRANCH   5   8
BRANCH   1  20
ATOM     20  O   UNL     1      -6.634  -0.027 130.053  0.00  0.00    +0.000 OA
BRANCH  20  25
ATOM     21  C   UNL     1      -9.000  -2.310 125.903  0.00  0.00    +0.000 A 
ATOM     22  C   UNL     1      -8.670  -0.996 126.180  0.00  0.00    +0.000 A 
ATOM     23  C   UNL     1      -7.917  -0.746 127.322  0.00  0.00    +0.000 A 
ATOM     24  C   UNL     1      -7.639  -1.644 128.355  0.00  0.00    +0.000 A 
ATOM     25  C   UNL     1      -7.040  -1.295 129.605  0.00  0.00    +0.000 A 
ATOM     26  C   UNL     1      -6.762  -2.326 130.504  0.00  0.00    +0.000 A 
ATOM     27  C   UNL     1      -7.080  -3.623 130.137  0.00  0.00    +0.000 A 
ATOM     28  N   UNL     1      -7.681  -3.959 128.969  0.00  0.00    +0.000 NA
ATOM     29  C   UNL     1      -7.978  -2.979 128.092  0.00  0.00    +0.000 A 
ATOM     30  C   UNL     1      -8.619  -3.278 126.871  0.00  0.00    +0.000 A 
BRANCH  21  32
ATOM     31  C   UNL     1      -9.170  -3.099 123.615  0.00  0.00    +0.000 C 
ATOM     32  O   UNL     1      -9.762  -2.813 124.881  0.00  0.00    +0.000 OA
ENDBRANCH  21  32
BRANCH  22  33
ATOM     33  O   UNL     1      -8.958   0.218 125.622  0.00  0.00    +0.000 OA
ATOM     34  C   UNL     1      -8.217   0.594 124.509  0.00  0.00    +0.000 C 
ENDBRANCH  22  33
ENDBRANCH  20  25
ENDBRANCH   1  20
TORSDOF 5
ENDMDL
MODEL 2
REMARK VINA RESULT:      -8.3      1.906      2.470
REMARK  Name = Tivozanib
REMARK  8 active torsions:
REMARK  status: ('A' for Active; 'I' for Inactive)
REMARK    1  A    between atoms: C_1  and  O_2
REMARK    2  A    between atoms: O_2  and  C_3
REMARK    3  A    between atoms: C_4  and  O_5
REMARK    4  A    between atoms: O_5  and  C_6
REMARK    5  A    between atoms: C_9  and  O_10
REMARK    6  A    between atoms: O_10  and  C_11
REMARK    7  A    between atoms: C_15  and  N_16
REMARK    8  A    between atoms: C_23  and  C_24
REMARK                            x       y       z     vdW  Elec       q    Type
REMARK                         _______ _______ _______ _____ _____    ______ ____
ROOT
ATOM      1  C   UNL     1      -6.534  -0.253 129.632  0.00  0.00    +0.000 A 
ATOM      2  C   UNL     1      -7.507   0.041 130.570  0.00  0.00    +0.000 A 
ATOM      3  C   UNL     1      -7.917   1.372 130.821  0.00  0.00    +0.000 A 
ATOM      4 CL   UNL     1      -9.454   1.270 131.629  0.00  0.00    +0.000 Cl
ATOM      5  C   UNL     1      -7.218   2.497 130.285  0.00  0.00    +0.000 A 
ATOM      6  C   UNL     1      -6.133   2.161 129.419  0.00  0.00    +0.000 A 
ATOM      7  C   UNL     1      -5.811   0.806 129.087  0.00  0.00    +0.000 A 
ENDROOT
BRANCH   5   8
ATOM      8  N   UNL     1      -7.470   3.928 130.541  0.00  0.00    +0.000 N 
ATOM      9  C   UNL     1      -8.544   4.643 130.028  0.00  0.00    +0.000 C 
ATOM     10  O   UNL     1      -9.322   4.187 129.228  0.00  0.00    +0.000 OA
ATOM     11  N   UNL     1      -8.764   5.944 130.444  0.00  0.00    +0.000 N 
ATOM     12  C   UNL     1      -9.891   6.580 129.856  0.00  0.00    +0.000 A 
ATOM     13  N   UNL     1      -9.888   7.839 129.394  0.00  0.00    +0.000 NA
ATOM     14  O   UNL     1     -11.145   8.040 128.809  0.00  0.00    +0.000 OA
ATOM     15  C   UNL     1     -11.925   6.939 129.000  0.00  0.00    +0.000 A 
ATOM     16  C   UNL     1     -13.334   6.975 128.540  0.00  0.00    +0.000 C 
ATOM     17  C   UNL     1     -11.177   5.993 129.647  0.00  0.00    +0.000 A 
ATOM     18  H   UNL     1      -6.820   4.406 131.151  0.00  0.00    +0.000 HD
ATOM     19  H   UNL     1      -8.018   6.559 130.718  0.00  0.00    +0.000 HD
ENDBRANCH   5   8
BRANCH   1  20
ATOM     20  O   UNL     1      -6.369  -1.540 129.157  0.00  0.00    +0.000 OA
BRANCH  20  25
ATOM     21  C   UNL     1      -8.430  -1.196 124.291  0.00  0.00    +0.000 A 
ATOM     22  C   UNL     1      -7.445  -0.474 124.939  0.00  0.00    +0.000 A 
ATOM     23  C   UNL     1      -7.037  -0.915 126.193  0.00  0.00    +0.000 A 
ATOM     24  C   UNL     1      -7.663  -1.881 126.985  0.00  0.00    +0.000 A 
ATOM     25  C   UNL     1      -7.337  -2.159 128.348  0.00  0.00    +0.000 A 
ATOM     26  C   UNL     1      -8.009  -3.208 128.978  0.00  0.00    +0.000 A 
ATOM     27  C   UNL     1      -8.951  -3.917 128.250  0.00  0.00    +0.000 A 
ATOM     28  N   UNL     1      -9.293  -3.636 126.969  0.00  0.00    +0.000 NA
ATOM     29  C   UNL     1      -8.672  -2.616 126.345  0.00  0.00    +0.000 A 
ATOM     30  C   UNL     1      -9.006  -2.274 125.016  0.00  0.00    +0.000 A 
BRANCH  21  32
ATOM     31  C   UNL     1      -9.731   0.274 122.867  0.00  0.00    +0.000 C 
ATOM     32  O   UNL     1      -9.033  -0.950 123.086  0.00  0.00    +0.000 OA
ENDBRANCH  21  32
BRANCH  22  33
ATOM     33  O   UNL     1      -6.757   0.678 124.682  0.00  0.00    +0.000 OA
ATOM     34  C   UNL     1      -7.227   1.843 125.277  0.00  0.00    +0.000 C 
ENDBRANCH  22  33
ENDBRANCH  20  25
ENDBRANCH   1  20
TORSDOF 5
ENDMDL
MODEL 3
REMARK VINA RESULT:      -8.3      4.735      6.001
REMARK  Name = Tivozanib
REMARK  8 active torsions:
REMARK  status: ('A' for Active; 'I' for Inactive)
REMARK    1  A    between atoms: C_1  and  O_2
REMARK    2  A    between atoms: O_2  and  C_3
REMARK    3  A    between atoms: C_4  and  O_5
REMARK    4  A    between atoms: O_5  and  C_6
REMARK    5  A    between atoms: C_9  and  O_10
REMARK    6  A    between atoms: O_10  and  C_11
REMARK    7  A    between atoms: C_15  and  N_16
REMARK    8  A    between atoms: C_23  and  C_24
REMARK                            x       y       z     vdW  Elec       q    Type
REMARK                         _______ _______ _______ _____ _____    ______ ____
ROOT
ATOM      1  C   UNL     1      -6.488   3.806 133.771  0.00  0.00    +0.000 A 
ATOM      2  C   UNL     1      -7.598   3.006 133.570  0.00  0.00    +0.000 A 
ATOM      3  C   UNL     1      -8.855   3.555 133.223  0.00  0.00    +0.000 A 
ATOM      4 CL   UNL     1      -9.799   2.251 132.564  0.00  0.00    +0.000 Cl
ATOM      5  C   UNL     1      -9.109   4.961 133.265  0.00  0.00    +0.000 A 
ATOM      6  C   UNL     1      -7.972   5.756 133.603  0.00  0.00    +0.000 A 
ATOM      7  C   UNL     1      -6.680   5.185 133.835  0.00  0.00    +0.000 A 
ENDROOT
BRANCH   5   8
ATOM      8  N   UNL     1     -10.386   5.660 133.030  0.00  0.00    +0.000 N 
ATOM      9  C   UNL     1     -10.812   6.127 131.794  0.00  0.00    +0.000 C 
ATOM     10  O   UNL     1     -10.125   6.104 130.804  0.00  0.00    +0.000 OA
ATOM     11  N   UNL     1     -12.089   6.643 131.657  0.00  0.00    +0.000 N 
ATOM     12  C   UNL     1     -12.419   7.091 130.349  0.00  0.00    +0.000 A 
ATOM     13  N   UNL     1     -13.059   8.240 130.087  0.00  0.00    +0.000 NA
ATOM     14  O   UNL     1     -13.095   8.353 128.690  0.00  0.00    +0.000 OA
ATOM     15  C   UNL     1     -12.561   7.235 128.122  0.00  0.00    +0.000 A 
ATOM     16  C   UNL     1     -12.585   7.105 126.646  0.00  0.00    +0.000 C 
ATOM     17  C   UNL     1     -12.116   6.418 129.125  0.00  0.00    +0.000 A 
ATOM     18  H   UNL     1     -10.996   5.783 133.828  0.00  0.00    +0.000 HD
ATOM     19  H   UNL     1     -12.566   7.114 132.406  0.00  0.00    +0.000 HD
ENDBRANCH   5   8
BRANCH   1  20
ATOM     20  O   UNL     1      -5.216   3.268 133.782  0.00  0.00    +0.000 OA
BRANCH  20  25
ATOM     21  C   UNL     1      -3.989   4.087 128.696  0.00  0.00    +0.000 A 
ATOM     22  C   UNL     1      -5.096   3.530 129.309  0.00  0.00    +0.000 A 
ATOM     23  C   UNL     1      -5.165   3.589 130.697  0.00  0.00    +0.000 A 
ATOM     24  C   UNL     1      -4.137   3.948 131.572  0.00  0.00    +0.000 A 
ATOM     25  C   UNL     1      -4.181   3.799 132.992  0.00  0.00    +0.000 A 
ATOM     26  C   UNL     1      -3.097   4.274 133.731  0.00  0.00    +0.000 A 
ATOM     27  C   UNL     1      -2.043   4.862 133.049  0.00  0.00    +0.000 A 
ATOM     28  N   UNL     1      -1.977   4.974 131.701  0.00  0.00    +0.000 NA
ATOM     29  C   UNL     1      -3.003   4.505 130.964  0.00  0.00    +0.000 A 
ATOM     30  C   UNL     1      -2.971   4.584 129.555  0.00  0.00    +0.000 A 
BRANCH  21  32
ATOM     31  C   UNL     1      -2.342   3.780 126.941  0.00  0.00    +0.000 C 
ATOM     32  O   UNL     1      -3.661   4.119 127.366  0.00  0.00    +0.000 OA
ENDBRANCH  21  32
BRANCH  22  33
ATOM     33  O   UNL     1      -6.193   2.833 128.888  0.00  0.00    +0.000 OA
ATOM     34  C   UNL     1      -7.351   3.562 128.643  0.00  0.00    +0.000 C 
ENDBRANCH  22  33
ENDBRANCH  20  25
ENDBRANCH   1  20
TORSDOF 5
ENDMDL
MODEL 4
REMARK VINA RESULT:      -8.3      2.352      9.664
REMARK  Name = Tivozanib
REMARK  8 active torsions:
REMARK  status: ('A' for Active; 'I' for Inactive)
REMARK    1  A    between atoms: C_1  and  O_2
REMARK    2  A    between atoms: O_2  and  C_3
REMARK    3  A    between atoms: C_4  and  O_5
REMARK    4  A    between atoms: O_5  and  C_6
REMARK    5  A    between atoms: C_9  and  O_10
REMARK    6  A    between atoms: O_10  and  C_11
REMARK    7  A    between atoms: C_15  and  N_16
REMARK    8  A    between atoms: C_23  and  C_24
REMARK                            x       y       z     vdW  Elec       q    Type
REMARK                         _______ _______ _______ _____ _____    ______ ____
ROOT
ATOM      1  C   UNL     1      -7.919   4.207 129.754  0.00  0.00    +0.000 A 
ATOM      2  C   UNL     1      -6.647   3.715 129.529  0.00  0.00    +0.000 A 
ATOM      3  C   UNL     1      -6.431   2.392 129.076  0.00  0.00    +0.000 A 
ATOM      4 CL   UNL     1      -4.816   2.347 128.432  0.00  0.00    +0.000 Cl
ATOM      5  C   UNL     1      -7.482   1.425 129.026  0.00  0.00    +0.000 A 
ATOM      6  C   UNL     1      -8.768   1.931 129.390  0.00  0.00    +0.000 A 
ATOM      7  C   UNL     1      -8.981   3.304 129.731  0.00  0.00    +0.000 A 
ENDROOT
BRANCH   5   8
ATOM      8  N   UNL     1      -7.386  -0.004 128.674  0.00  0.00    +0.000 N 
ATOM      9  C   UNL     1      -7.257  -0.490 127.380  0.00  0.00    +0.000 C 
ATOM     10  O   UNL     1      -7.325   0.209 126.400  0.00  0.00    +0.000 OA
ATOM     11  N   UNL     1      -7.032  -1.840 127.172  0.00  0.00    +0.000 N 
ATOM     12  C   UNL     1      -6.917  -2.226 125.809  0.00  0.00    +0.000 A 
ATOM     13  N   UNL     1      -7.500  -3.314 125.284  0.00  0.00    +0.000 NA
ATOM     14  O   UNL     1      -7.226  -3.275 123.910  0.00  0.00    +0.000 OA
ATOM     15  C   UNL     1      -6.410  -2.221 123.631  0.00  0.00    +0.000 A 
ATOM     16  C   UNL     1      -5.919  -2.047 122.244  0.00  0.00    +0.000 C 
ATOM     17  C   UNL     1      -6.195  -1.529 124.792  0.00  0.00    +0.000 A 
ATOM     18  H   UNL     1      -7.391  -0.667 129.439  0.00  0.00    +0.000 HD
ATOM     19  H   UNL     1      -7.382  -2.550 127.792  0.00  0.00    +0.000 HD
ENDBRANCH   5   8
BRANCH   1  20
ATOM     20  O   UNL     1      -8.148   5.564 129.873  0.00  0.00    +0.000 OA
BRANCH  20  25
ATOM     21  C   UNL     1     -12.409   8.595 129.044  0.00  0.00    +0.000 A 
ATOM     22  C   UNL     1     -11.379   8.191 128.216  0.00  0.00    +0.000 A 
ATOM     23  C   UNL     1     -10.470   7.267 128.719  0.00  0.00    +0.000 A 
ATOM     24  C   UNL     1     -10.339   6.860 130.049  0.00  0.00    +0.000 A 
ATOM     25  C   UNL     1      -9.264   6.069 130.561  0.00  0.00    +0.000 A 
ATOM     26  C   UNL     1      -9.319   5.686 131.903  0.00  0.00    +0.000 A 
ATOM     27  C   UNL     1     -10.407   6.092 132.658  0.00  0.00    +0.000 A 
ATOM     28  N   UNL     1     -11.411   6.872 132.190  0.00  0.00    +0.000 NA
ATOM     29  C   UNL     1     -11.371   7.271 130.904  0.00  0.00    +0.000 A 
ATOM     30  C   UNL     1     -12.386   8.099 130.376  0.00  0.00    +0.000 A 
BRANCH  21  32
ATOM     31  C   UNL     1     -13.472  10.706 129.595  0.00  0.00    +0.000 C 
ATOM     32  O   UNL     1     -13.397   9.517 128.811  0.00  0.00    +0.000 OA
ENDBRANCH  21  32
BRANCH  22  33
ATOM     33  O   UNL     1     -10.950   8.526 126.963  0.00  0.00    +0.000 OA
ATOM     34  C   UNL     1     -10.870   7.503 126.026  0.00  0.00    +0.000 C 
ENDBRANCH  22  33
ENDBRANCH  20  25
ENDBRANCH   1  20
TORSDOF 5
ENDMDL
MODEL 5
REMARK VINA RESULT:      -8.3      4.106      9.782
REMARK  Name = Tivozanib
REMARK  8 active torsions:
REMARK  status: ('A' for Active; 'I' for Inactive)
REMARK    1  A    between atoms: C_1  and  O_2
REMARK    2  A    between atoms: O_2  and  C_3
REMARK    3  A    between atoms: C_4  and  O_5
REMARK    4  A    between atoms: O_5  and  C_6
REMARK    5  A    between atoms: C_9  and  O_10
REMARK    6  A    between atoms: O_10  and  C_11
REMARK    7  A    between atoms: C_15  and  N_16
REMARK    8  A    between atoms: C_23  and  C_24
REMARK                            x       y       z     vdW  Elec       q    Type
REMARK                         _______ _______ _______ _____ _____    ______ ____
ROOT
ATOM      1  C   UNL     1      -5.928   5.243 129.984  0.00  0.00    +0.000 A 
ATOM      2  C   UNL     1      -6.638   4.324 129.233  0.00  0.00    +0.000 A 
ATOM      3  C   UNL     1      -6.159   3.009 129.022  0.00  0.00    +0.000 A 
ATOM      4 CL   UNL     1      -7.526   2.062 128.514  0.00  0.00    +0.000 Cl
ATOM      5  C   UNL     1      -4.835   2.615 129.385  0.00  0.00    +0.000 A 
ATOM      6  C   UNL     1      -4.077   3.629 130.047  0.00  0.00    +0.000 A 
ATOM      7  C   UNL     1      -4.625   4.915 130.354  0.00  0.00    +0.000 A 
ENDROOT
BRANCH   5   8
ATOM      8  N   UNL     1      -4.173   1.320 129.138  0.00  0.00    +0.000 N 
ATOM      9  C   UNL     1      -4.287   0.207 129.960  0.00  0.00    +0.000 C 
ATOM     10  O   UNL     1      -4.853   0.224 131.024  0.00  0.00    +0.000 OA
ATOM     11  N   UNL     1      -3.739  -1.000 129.562  0.00  0.00    +0.000 N 
ATOM     12  C   UNL     1      -3.915  -2.071 130.480  0.00  0.00    +0.000 A 
ATOM     13  N   UNL     1      -2.950  -2.941 130.813  0.00  0.00    +0.000 NA
ATOM     14  O   UNL     1      -3.497  -3.762 131.809  0.00  0.00    +0.000 OA
ATOM     15  C   UNL     1      -4.807  -3.442 132.004  0.00  0.00    +0.000 A 
ATOM     16  C   UNL     1      -5.606  -4.254 132.953  0.00  0.00    +0.000 C 
ATOM     17  C   UNL     1      -5.112  -2.380 131.196  0.00  0.00    +0.000 A 
ATOM     18  H   UNL     1      -3.618   1.242 128.295  0.00  0.00    +0.000 HD
ATOM     19  H   UNL     1      -2.918  -1.059 128.984  0.00  0.00    +0.000 HD
ENDBRANCH   5   8
BRANCH   1  20
ATOM     20  O   UNL     1      -6.530   6.392 130.460  0.00  0.00    +0.000 OA
BRANCH  20  25
ATOM     21  C   UNL     1     -11.672   7.459 129.784  0.00  0.00    +0.000 A 
ATOM     22  C   UNL     1     -10.581   7.562 128.942  0.00  0.00    +0.000 A 
ATOM     23  C   UNL     1      -9.365   7.062 129.393  0.00  0.00    +0.000 A 
ATOM     24  C   UNL     1      -9.055   6.664 130.696  0.00  0.00    +0.000 A 
ATOM     25  C   UNL     1      -7.743   6.353 131.168  0.00  0.00    +0.000 A 
ATOM     26  C   UNL     1      -7.613   5.900 132.482  0.00  0.00    +0.000 A 
ATOM     27  C   UNL     1      -8.758   5.779 133.252  0.00  0.00    +0.000 A 
ATOM     28  N   UNL     1     -10.002   6.107 132.825  0.00  0.00    +0.000 NA
ATOM     29  C   UNL     1     -10.151   6.565 131.566  0.00  0.00    +0.000 A 
ATOM     30  C   UNL     1     -11.424   6.935 131.082  0.00  0.00    +0.000 A 
BRANCH  21  32
ATOM     31  C   UNL     1     -13.619   7.696 128.357  0.00  0.00    +0.000 C 
ATOM     32  O   UNL     1     -12.954   7.908 129.600  0.00  0.00    +0.000 OA
ENDBRANCH  21  32
BRANCH  22  33
ATOM     33  O   UNL     1     -10.348   8.119 127.716  0.00  0.00    +0.000 OA
ATOM     34  C   UNL     1     -10.476   7.289 126.609  0.00  0.00    +0.000 C 
ENDBRANCH  22  33
ENDBRANCH  20  25
ENDBRANCH   1  20
TORSDOF 5
ENDMDL
MODEL 6
REMARK VINA RESULT:      -8.2      4.450      5.193
REMARK  Name = Tivozanib
REMARK  8 active torsions:
REMARK  status: ('A' for Active; 'I' for Inactive)
REMARK    1  A    between atoms: C_1  and  O_2
REMARK    2  A    between atoms: O_2  and  C_3
REMARK    3  A    between atoms: C_4  and  O_5
REMARK    4  A    between atoms: O_5  and  C_6
REMARK    5  A    between atoms: C_9  and  O_10
REMARK    6  A    between atoms: O_10  and  C_11
REMARK    7  A    between atoms: C_15  and  N_16
REMARK    8  A    between atoms: C_23  and  C_24
REMARK                            x       y       z     vdW  Elec       q    Type
REMARK                         _______ _______ _______ _____ _____    ______ ____
ROOT
ATOM      1  C   UNL     1      -6.606   3.230 133.549  0.00  0.00    +0.000 A 
ATOM      2  C   UNL     1      -7.800   2.584 133.286  0.00  0.00    +0.000 A 
ATOM      3  C   UNL     1      -8.988   3.301 133.013  0.00  0.00    +0.000 A 
ATOM      4 CL   UNL     1     -10.074   2.183 132.240  0.00  0.00    +0.000 Cl
ATOM      5  C   UNL     1      -9.083   4.715 133.198  0.00  0.00    +0.000 A 
ATOM      6  C   UNL     1      -7.862   5.341 133.597  0.00  0.00    +0.000 A 
ATOM      7  C   UNL     1      -6.642   4.609 133.753  0.00  0.00    +0.000 A 
ENDROOT
BRANCH   5   8
ATOM      8  N   UNL     1     -10.273   5.573 133.051  0.00  0.00    +0.000 N 
ATOM      9  C   UNL     1     -10.757   6.049 131.839  0.00  0.00    +0.000 C 
ATOM     10  O   UNL     1     -10.181   5.898 130.791  0.00  0.00    +0.000 OA
ATOM     11  N   UNL     1     -11.962   6.729 131.800  0.00  0.00    +0.000 N 
ATOM     12  C   UNL     1     -12.359   7.170 130.508  0.00  0.00    +0.000 A 
ATOM     13  N   UNL     1     -12.865   8.386 130.253  0.00  0.00    +0.000 NA
ATOM     14  O   UNL     1     -13.027   8.453 128.862  0.00  0.00    +0.000 OA
ATOM     15  C   UNL     1     -12.705   7.253 128.301  0.00  0.00    +0.000 A 
ATOM     16  C   UNL     1     -12.894   7.075 126.842  0.00  0.00    +0.000 C 
ATOM     17  C   UNL     1     -12.273   6.419 129.296  0.00  0.00    +0.000 A 
ATOM     18  H   UNL     1     -10.778   5.806 133.896  0.00  0.00    +0.000 HD
ATOM     19  H   UNL     1     -12.294   7.287 132.567  0.00  0.00    +0.000 HD
ENDBRANCH   5   8
BRANCH   1  20
ATOM     20  O   UNL     1      -5.402   2.556 133.489  0.00  0.00    +0.000 OA
BRANCH  20  25
ATOM     21  C   UNL     1      -3.921   3.799 128.560  0.00  0.00    +0.000 A 
ATOM     22  C   UNL     1      -4.342   4.569 129.628  0.00  0.00    +0.000 A 
ATOM     23  C   UNL     1      -4.530   3.933 130.850  0.00  0.00    +0.000 A 
ATOM     24  C   UNL     1      -4.559   2.556 131.081  0.00  0.00    +0.000 A 
ATOM     25  C   UNL     1      -4.958   1.939 132.307  0.00  0.00    +0.000 A 
ATOM     26  C   UNL     1      -4.861   0.550 132.399  0.00  0.00    +0.000 A 
ATOM     27  C   UNL     1      -4.386  -0.151 131.302  0.00  0.00    +0.000 A 
ATOM     28  N   UNL     1      -4.041   0.422 130.124  0.00  0.00    +0.000 NA
ATOM     29  C   UNL     1      -4.144   1.761 130.003  0.00  0.00    +0.000 A 
ATOM     30  C   UNL     1      -3.812   2.401 128.790  0.00  0.00    +0.000 A 
BRANCH  21  32
ATOM     31  C   UNL     1      -4.187   3.349 126.191  0.00  0.00    +0.000 C 
ATOM     32  O   UNL     1      -3.709   4.167 127.257  0.00  0.00    +0.000 OA
ENDBRANCH  21  32
BRANCH  22  33
ATOM     33  O   UNL     1      -4.709   5.874 129.801  0.00  0.00    +0.000 OA
ATOM     34  C   UNL     1      -3.699   6.827 129.748  0.00  0.00    +0.000 C 
ENDBRANCH  22  33
ENDBRANCH  20  25
ENDBRANCH   1  20
TORSDOF 5
ENDMDL
MODEL 7
REMARK VINA RESULT:      -7.9      2.069      2.197
REMARK  Name = Tivozanib
REMARK  8 active torsions:
REMARK  status: ('A' for Active; 'I' for Inactive)
REMARK    1  A    between atoms: C_1  and  O_2
REMARK    2  A    between atoms: O_2  and  C_3
REMARK    3  A    between atoms: C_4  and  O_5
REMARK    4  A    between atoms: O_5  and  C_6
REMARK    5  A    between atoms: C_9  and  O_10
REMARK    6  A    between atoms: O_10  and  C_11
REMARK    7  A    between atoms: C_15  and  N_16
REMARK    8  A    between atoms: C_23  and  C_24
REMARK                            x       y       z     vdW  Elec       q    Type
REMARK                         _______ _______ _______ _____ _____    ______ ____
ROOT
ATOM      1  C   UNL     1      -6.389   2.026 128.812  0.00  0.00    +0.000 A 
ATOM      2  C   UNL     1      -6.225   3.196 129.531  0.00  0.00    +0.000 A 
ATOM      3  C   UNL     1      -7.266   3.732 130.325  0.00  0.00    +0.000 A 
ATOM      4 CL   UNL     1      -6.519   4.846 131.432  0.00  0.00    +0.000 Cl
ATOM      5  C   UNL     1      -8.602   3.228 130.269  0.00  0.00    +0.000 A 
ATOM      6  C   UNL     1      -8.770   2.095 129.415  0.00  0.00    +0.000 A 
ATOM      7  C   UNL     1      -7.675   1.497 128.713  0.00  0.00    +0.000 A 
ENDROOT
BRANCH   5   8
ATOM      8  N   UNL     1      -9.799   3.747 130.957  0.00  0.00    +0.000 N 
ATOM      9  C   UNL     1     -10.431   4.943 130.643  0.00  0.00    +0.000 C 
ATOM     10  O   UNL     1      -9.994   5.734 129.845  0.00  0.00    +0.000 OA
ATOM     11  N   UNL     1     -11.628   5.268 131.256  0.00  0.00    +0.000 N 
ATOM     12  C   UNL     1     -12.186   6.514 130.859  0.00  0.00    +0.000 A 
ATOM     13  N   UNL     1     -12.716   7.405 131.711  0.00  0.00    +0.000 NA
ATOM     14  O   UNL     1     -13.053   8.525 130.939  0.00  0.00    +0.000 OA
ATOM     15  C   UNL     1     -12.810   8.269 129.623  0.00  0.00    +0.000 A 
ATOM     16  C   UNL     1     -13.184   9.291 128.617  0.00  0.00    +0.000 C 
ATOM     17  C   UNL     1     -12.257   7.021 129.526  0.00  0.00    +0.000 A 
ATOM     18  H   UNL     1     -10.191   3.173 131.692  0.00  0.00    +0.000 HD
ATOM     19  H   UNL     1     -11.859   4.971 132.188  0.00  0.00    +0.000 HD
ENDBRANCH   5   8
BRANCH   1  20
ATOM     20  O   UNL     1      -5.301   1.336 128.315  0.00  0.00    +0.000 OA
BRANCH  20  25
ATOM     21  C   UNL     1      -6.722  -1.307 123.952  0.00  0.00    +0.000 A 
ATOM     22  C   UNL     1      -6.671   0.042 124.248  0.00  0.00    +0.000 A 
ATOM     23  C   UNL     1      -6.112   0.417 125.465  0.00  0.00    +0.000 A 
ATOM     24  C   UNL     1      -5.793  -0.423 126.534  0.00  0.00    +0.000 A 
ATOM     25  C   UNL     1      -5.415   0.019 127.839  0.00  0.00    +0.000 A 
ATOM     26  C   UNL     1      -5.056  -0.951 128.777  0.00  0.00    +0.000 A 
ATOM     27  C   UNL     1      -5.087  -2.282 128.392  0.00  0.00    +0.000 A 
ATOM     28  N   UNL     1      -5.480  -2.712 127.168  0.00  0.00    +0.000 NA
ATOM     29  C   UNL     1      -5.849  -1.796 126.251  0.00  0.00    +0.000 A 
ATOM     30  C   UNL     1      -6.282  -2.197 124.969  0.00  0.00    +0.000 A 
BRANCH  21  32
ATOM     31  C   UNL     1      -8.613  -2.374 122.870  0.00  0.00    +0.000 C 
ATOM     32  O   UNL     1      -7.257  -1.933 122.856  0.00  0.00    +0.000 OA
ENDBRANCH  21  32
BRANCH  22  33
ATOM     33  O   UNL     1      -7.111   1.188 123.646  0.00  0.00    +0.000 OA
ATOM     34  C   UNL     1      -7.040   2.360 124.388  0.00  0.00    +0.000 C 
ENDBRANCH  22  33
ENDBRANCH  20  25
ENDBRANCH   1  20
TORSDOF 5
ENDMDL
MODEL 8
REMARK VINA RESULT:      -7.9      4.713      9.280
REMARK  Name = Tivozanib
REMARK  8 active torsions:
REMARK  status: ('A' for Active; 'I' for Inactive)
REMARK    1  A    between atoms: C_1  and  O_2
REMARK    2  A    between atoms: O_2  and  C_3
REMARK    3  A    between atoms: C_4  and  O_5
REMARK    4  A    between atoms: O_5  and  C_6
REMARK    5  A    between atoms: C_9  and  O_10
REMARK    6  A    between atoms: O_10  and  C_11
REMARK    7  A    between atoms: C_15  and  N_16
REMARK    8  A    between atoms: C_23  and  C_24
REMARK                            x       y       z     vdW  Elec       q    Type
REMARK                         _______ _______ _______ _____ _____    ______ ____
ROOT
ATOM      1  C   UNL     1      -6.772   4.988 129.378  0.00  0.00    +0.000 A 
ATOM      2  C   UNL     1      -5.538   4.781 128.790  0.00  0.00    +0.000 A 
ATOM      3  C   UNL     1      -5.412   4.142 127.533  0.00  0.00    +0.000 A 
ATOM      4 CL   UNL     1      -3.831   4.545 126.930  0.00  0.00    +0.000 Cl
ATOM      5  C   UNL     1      -6.514   3.489 126.899  0.00  0.00    +0.000 A 
ATOM      6  C   UNL     1      -7.753   3.610 127.598  0.00  0.00    +0.000 A 
ATOM      7  C   UNL     1      -7.880   4.362 128.809  0.00  0.00    +0.000 A 
ENDROOT
BRANCH   5   8
ATOM      8  N   UNL     1      -6.507   2.704 125.650  0.00  0.00    +0.000 N 
ATOM      9  C   UNL     1      -6.426   3.251 124.376  0.00  0.00    +0.000 C 
ATOM     10  O   UNL     1      -6.466   4.436 124.160  0.00  0.00    +0.000 OA
ATOM     11  N   UNL     1      -6.285   2.419 123.279  0.00  0.00    +0.000 N 
ATOM     12  C   UNL     1      -6.212   3.086 122.026  0.00  0.00    +0.000 A 
ATOM     13  N   UNL     1      -6.866   2.689 120.925  0.00  0.00    +0.000 NA
ATOM     14  O   UNL     1      -6.610   3.663 119.950  0.00  0.00    +0.000 OA
ATOM     15  C   UNL     1      -5.735   4.587 120.439  0.00  0.00    +0.000 A 
ATOM     16  C   UNL     1      -5.254   5.660 119.537  0.00  0.00    +0.000 C 
ATOM     17  C   UNL     1      -5.463   4.269 121.742  0.00  0.00    +0.000 A 
ATOM     18  H   UNL     1      -6.542   1.697 125.741  0.00  0.00    +0.000 HD
ATOM     19  H   UNL     1      -6.668   1.490 123.251  0.00  0.00    +0.000 HD
ENDBRANCH   5   8
BRANCH   1  20
ATOM     20  O   UNL     1      -6.924   5.883 130.419  0.00  0.00    +0.000 OA
BRANCH  20  25
ATOM     21  C   UNL     1     -11.825   7.838 129.978  0.00  0.00    +0.000 A 
ATOM     22  C   UNL     1     -10.739   7.845 129.122  0.00  0.00    +0.000 A 
ATOM     23  C   UNL     1      -9.618   7.111 129.493  0.00  0.00    +0.000 A 
ATOM     24  C   UNL     1      -9.368   6.540 130.743  0.00  0.00    +0.000 A 
ATOM     25  C   UNL     1      -8.120   5.972 131.150  0.00  0.00    +0.000 A 
ATOM     26  C   UNL     1      -8.056   5.376 132.410  0.00  0.00    +0.000 A 
ATOM     27  C   UNL     1      -9.199   5.367 133.193  0.00  0.00    +0.000 A 
ATOM     28  N   UNL     1     -10.375   5.935 132.831  0.00  0.00    +0.000 NA
ATOM     29  C   UNL     1     -10.457   6.534 131.626  0.00  0.00    +0.000 A 
ATOM     30  C   UNL     1     -11.656   7.154 131.212  0.00  0.00    +0.000 A 
BRANCH  21  32
ATOM     31  C   UNL     1     -13.060   9.813 129.301  0.00  0.00    +0.000 C 
ATOM     32  O   UNL     1     -13.016   8.506 129.870  0.00  0.00    +0.000 OA
ENDBRANCH  21  32
BRANCH  22  33
ATOM     33  O   UNL     1     -10.428   8.476 127.951  0.00  0.00    +0.000 OA
ATOM     34  C   UNL     1     -10.876   7.885 126.775  0.00  0.00    +0.000 C 
ENDBRANCH  22  33
ENDBRANCH  20  25
ENDBRANCH   1  20
TORSDOF 5
ENDMDL
MODEL 9
REMARK VINA RESULT:      -7.8      3.410      4.447
REMARK  Name = Tivozanib
REMARK  8 active torsions:
REMARK  status: ('A' for Active; 'I' for Inactive)
REMARK    1  A    between atoms: C_1  and  O_2
REMARK    2  A    between atoms: O_2  and  C_3
REMARK    3  A    between atoms: C_4  and  O_5
REMARK    4  A    between atoms: O_5  and  C_6
REMARK    5  A    between atoms: C_9  and  O_10
REMARK    6  A    between atoms: O_10  and  C_11
REMARK    7  A    between atoms: C_15  and  N_16
REMARK    8  A    between atoms: C_23  and  C_24
REMARK                            x       y       z     vdW  Elec       q    Type
REMARK                         _______ _______ _______ _____ _____    ______ ____
ROOT
ATOM      1  C   UNL     1      -6.792   2.946 133.783  0.00  0.00    +0.000 A 
ATOM      2  C   UNL     1      -7.948   2.390 133.268  0.00  0.00    +0.000 A 
ATOM      3  C   UNL     1      -9.068   3.186 132.930  0.00  0.00    +0.000 A 
ATOM      4 CL   UNL     1     -10.054   2.225 131.867  0.00  0.00    +0.000 Cl
ATOM      5  C   UNL     1      -9.158   4.566 133.292  0.00  0.00    +0.000 A 
ATOM      6  C   UNL     1      -7.995   5.082 133.941  0.00  0.00    +0.000 A 
ATOM      7  C   UNL     1      -6.826   4.286 134.166  0.00  0.00    +0.000 A 
ENDROOT
BRANCH   5   8
ATOM      8  N   UNL     1     -10.295   5.484 133.097  0.00  0.00    +0.000 N 
ATOM      9  C   UNL     1     -10.713   5.970 131.865  0.00  0.00    +0.000 C 
ATOM     10  O   UNL     1     -10.113   5.775 130.838  0.00  0.00    +0.000 OA
ATOM     11  N   UNL     1     -11.878   6.712 131.779  0.00  0.00    +0.000 N 
ATOM     12  C   UNL     1     -12.210   7.158 130.470  0.00  0.00    +0.000 A 
ATOM     13  N   UNL     1     -12.642   8.396 130.186  0.00  0.00    +0.000 NA
ATOM     14  O   UNL     1     -12.754   8.454 128.790  0.00  0.00    +0.000 OA
ATOM     15  C   UNL     1     -12.479   7.232 128.252  0.00  0.00    +0.000 A 
ATOM     16  C   UNL     1     -12.630   7.047 126.790  0.00  0.00    +0.000 C 
ATOM     17  C   UNL     1     -12.125   6.389 129.270  0.00  0.00    +0.000 A 
ATOM     18  H   UNL     1     -10.814   5.753 133.922  0.00  0.00    +0.000 HD
ATOM     19  H   UNL     1     -12.205   7.296 132.529  0.00  0.00    +0.000 HD
ENDBRANCH   5   8
BRANCH   1  20
ATOM     20  O   UNL     1      -5.607   2.237 133.802  0.00  0.00    +0.000 OA
BRANCH  20  25
ATOM     21  C   UNL     1      -5.927  -2.291 131.075  0.00  0.00    +0.000 A 
ATOM     22  C   UNL     1      -5.975  -0.965 130.687  0.00  0.00    +0.000 A 
ATOM     23  C   UNL     1      -5.719   0.002 131.654  0.00  0.00    +0.000 A 
ATOM     24  C   UNL     1      -5.638  -0.196 133.034  0.00  0.00    +0.000 A 
ATOM     25  C   UNL     1      -5.579   0.847 134.009  0.00  0.00    +0.000 A 
ATOM     26  C   UNL     1      -5.426   0.481 135.348  0.00  0.00    +0.000 A 
ATOM     27  C   UNL     1      -5.340  -0.868 135.654  0.00  0.00    +0.000 A 
ATOM     28  N   UNL     1      -5.431  -1.864 134.740  0.00  0.00    +0.000 NA
ATOM     29  C   UNL     1      -5.598  -1.537 133.444  0.00  0.00    +0.000 A 
ATOM     30  C   UNL     1      -5.715  -2.540 132.458  0.00  0.00    +0.000 A 
BRANCH  21  32
ATOM     31  C   UNL     1      -5.633  -4.674 130.731  0.00  0.00    +0.000 C 
ATOM     32  O   UNL     1      -6.182  -3.418 130.338  0.00  0.00    +0.000 OA
ENDBRANCH  21  32
BRANCH  22  33
ATOM     33  O   UNL     1      -6.289  -0.299 129.536  0.00  0.00    +0.000 OA
ATOM     34  C   UNL     1      -5.233   0.229 128.803  0.00  0.00    +0.000 C 
ENDBRANCH  22  33
ENDBRANCH  20  25
ENDBRANCH   1  20
TORSDOF 5
ENDMDL
