MODEL 1
REMARK VINA RESULT:      -7.9      0.000      0.000
REMARK  Name = Tixocortol
REMARK  7 active torsions:
REMARK  status: ('A' for Active; 'I' for Inactive)
REMARK    1  A    between atoms: C_5  and  O_6
REMARK    2  A    between atoms: C_5  and  C_7
REMARK    3  A    between atoms: C_7  and  C_9
REMARK    4  A    between atoms: C_9  and  S_10
REMARK    5  A    between atoms: C_11  and  C_12
REMARK    6  A    between atoms: C_14  and  O_15
REMARK    7  A    between atoms: C_28  and  C_29
REMARK                            x       y       z     vdW  Elec       q    Type
REMARK                         _______ _______ _______ _____ _____    ______ ____
ROOT
ATOM      1  C   UNL     1      -7.001  -3.288 130.492  0.00  0.00    +0.000 C 
ATOM      2  C   UNL     1      -6.150  -4.411 130.348  0.00  0.00    +0.000 C 
ATOM      3  C   UNL     1      -5.614  -3.109 129.839  0.00  0.00    +0.000 C 
ATOM      4  C   UNL     1      -6.540  -1.354 130.534  0.00  0.00    +0.000 C 
ATOM      5  C   UNL     1      -5.552  -2.168 131.059  0.00  0.00    +0.000 C 
ATOM      6  C   UNL     1      -5.177  -2.391 132.467  0.00  0.00    +0.000 C 
ATOM      7  C   UNL     1      -4.559  -1.274 129.712  0.00  0.00    +0.000 C 
ATOM      8  C   UNL     1      -5.531  -0.965 128.319  0.00  0.00    +0.000 C 
ATOM      9  C   UNL     1      -6.533  -2.138 127.702  0.00  0.00    +0.000 C 
ATOM     10  C   UNL     1      -7.658  -2.755 128.871  0.00  0.00    +0.000 C 
ATOM     11  C   UNL     1      -8.408  -3.949 128.319  0.00  0.00    +0.000 C 
ATOM     12  C   UNL     1      -9.013  -3.662 126.972  0.00  0.00    +0.000 C 
ATOM     13  C   UNL     1      -8.088  -3.087 125.940  0.00  0.00    +0.000 C 
ATOM     14  C   UNL     1      -8.153  -3.522 124.674  0.00  0.00    +0.000 C 
ATOM     15  C   UNL     1      -7.492  -2.647 123.707  0.00  0.00    +0.000 C 
ATOM     16  O   UNL     1      -7.911  -1.557 123.322  0.00  0.00    +0.000 OA
ATOM     17  C   UNL     1      -6.078  -2.912 123.629  0.00  0.00    +0.000 C 
ATOM     18  C   UNL     1      -5.894  -1.949 125.039  0.00  0.00    +0.000 C 
ATOM     19  C   UNL     1      -7.165  -1.922 126.283  0.00  0.00    +0.000 C 
ATOM     20  C   UNL     1      -8.081  -0.690 126.484  0.00  0.00    +0.000 C 
ENDROOT
BRANCH   4  21
ATOM     21  O   UNL     1      -7.707  -1.468 131.454  0.00  0.00    +0.000 OA
ATOM     22  H   UNL     1      -8.369  -2.108 131.149  0.00  0.00    +0.000 HD
ENDBRANCH   4  21
BRANCH   4  23
ATOM     23  C   UNL     1      -5.965   0.180 131.362  0.00  0.00    +0.000 C 
ATOM     24  O   UNL     1      -6.738   1.090 131.713  0.00  0.00    +0.000 OA
BRANCH  23  25
ATOM     25  C   UNL     1      -4.424   0.553 131.570  0.00  0.00    +0.000 C 
BRANCH  25  26
ATOM     26  S   UNL     1      -4.138   2.417 131.238  0.00  0.00    +0.000 S 
ATOM     27  H   UNL     1      -4.184   2.901 132.498  0.00  0.00    +0.000 HD
ENDBRANCH  25  26
ENDBRANCH  23  25
ENDBRANCH   4  23
BRANCH   8  28
ATOM     28  O   UNL     1      -6.296   0.216 128.642  0.00  0.00    +0.000 OA
ATOM     29  H   UNL     1      -5.842   1.014 128.316  0.00  0.00    +0.000 HD
ENDBRANCH   8  28
TORSDOF 5
ENDMDL
MODEL 2
REMARK VINA RESULT:      -7.4      6.588      9.490
REMARK  Name = Tixocortol
REMARK  7 active torsions:
REMARK  status: ('A' for Active; 'I' for Inactive)
REMARK    1  A    between atoms: C_5  and  O_6
REMARK    2  A    between atoms: C_5  and  C_7
REMARK    3  A    between atoms: C_7  and  C_9
REMARK    4  A    between atoms: C_9  and  S_10
REMARK    5  A    between atoms: C_11  and  C_12
REMARK    6  A    between atoms: C_14  and  O_15
REMARK    7  A    between atoms: C_28  and  C_29
REMARK                            x       y       z     vdW  Elec       q    Type
REMARK                         _______ _______ _______ _____ _____    ______ ____
ROOT
ATOM      1  C   UNL     1      -7.779   3.540 129.871  0.00  0.00    +0.000 C 
ATOM      2  C   UNL     1      -7.801   2.565 130.898  0.00  0.00    +0.000 C 
ATOM      3  C   UNL     1      -7.946   3.989 131.338  0.00  0.00    +0.000 C 
ATOM      4  C   UNL     1      -8.503   5.392 129.875  0.00  0.00    +0.000 C 
ATOM      5  C   UNL     1      -9.228   4.516 130.662  0.00  0.00    +0.000 C 
ATOM      6  C   UNL     1     -10.541   3.896 130.402  0.00  0.00    +0.000 C 
ATOM      7  C   UNL     1      -8.792   5.832 131.955  0.00  0.00    +0.000 C 
ATOM      8  C   UNL     1      -7.223   6.495 131.671  0.00  0.00    +0.000 C 
ATOM      9  C   UNL     1      -5.937   5.510 131.303  0.00  0.00    +0.000 C 
ATOM     10  C   UNL     1      -6.226   4.503 129.919  0.00  0.00    +0.000 C 
ATOM     11  C   UNL     1      -5.111   3.493 129.747  0.00  0.00    +0.000 C 
ATOM     12  C   UNL     1      -3.754   4.140 129.765  0.00  0.00    +0.000 C 
ATOM     13  C   UNL     1      -3.472   5.055 130.921  0.00  0.00    +0.000 C 
ATOM     14  C   UNL     1      -2.272   5.023 131.517  0.00  0.00    +0.000 C 
ATOM     15  C   UNL     1      -1.990   6.188 132.355  0.00  0.00    +0.000 C 
ATOM     16  O   UNL     1      -1.725   7.317 131.948  0.00  0.00    +0.000 OA
ATOM     17  C   UNL     1      -2.548   6.040 133.675  0.00  0.00    +0.000 C 
ATOM     18  C   UNL     1      -4.053   6.537 133.016  0.00  0.00    +0.000 C 
ATOM     19  C   UNL     1      -4.489   6.111 131.344  0.00  0.00    +0.000 C 
ATOM     20  C   UNL     1      -4.509   7.168 130.214  0.00  0.00    +0.000 C 
ENDROOT
BRANCH   4  21
ATOM     21  O   UNL     1      -8.682   4.937 128.468  0.00  0.00    +0.000 OA
ATOM     22  H   UNL     1      -9.145   4.088 128.400  0.00  0.00    +0.000 HD
ENDBRANCH   4  21
BRANCH   4  23
ATOM     23  C   UNL     1      -9.846   6.632 129.706  0.00  0.00    +0.000 C 
ATOM     24  O   UNL     1      -9.853   7.504 128.818  0.00  0.00    +0.000 OA
BRANCH  23  25
ATOM     25  C   UNL     1     -11.037   6.800 130.758  0.00  0.00    +0.000 C 
BRANCH  25  26
ATOM     26  S   UNL     1     -12.684   7.164 129.851  0.00  0.00    +0.000 S 
ATOM     27  H   UNL     1     -12.425   8.394 129.354  0.00  0.00    +0.000 HD
ENDBRANCH  25  26
ENDBRANCH  23  25
ENDBRANCH   4  23
BRANCH   8  28
ATOM     28  O   UNL     1      -7.407   7.475 130.627  0.00  0.00    +0.000 OA
ATOM     29  H   UNL     1      -8.000   7.128 129.937  0.00  0.00    +0.000 HD
ENDBRANCH   8  28
TORSDOF 5
ENDMDL
MODEL 3
REMARK VINA RESULT:      -7.4      4.384      7.658
REMARK  Name = Tixocortol
REMARK  7 active torsions:
REMARK  status: ('A' for Active; 'I' for Inactive)
REMARK    1  A    between atoms: C_5  and  O_6
REMARK    2  A    between atoms: C_5  and  C_7
REMARK    3  A    between atoms: C_7  and  C_9
REMARK    4  A    between atoms: C_9  and  S_10
REMARK    5  A    between atoms: C_11  and  C_12
REMARK    6  A    between atoms: C_14  and  O_15
REMARK    7  A    between atoms: C_28  and  C_29
REMARK                            x       y       z     vdW  Elec       q    Type
REMARK                         _______ _______ _______ _____ _____    ______ ____
ROOT
ATOM      1  C   UNL     1      -9.163   2.176 124.056  0.00  0.00    +0.000 C 
ATOM      2  C   UNL     1      -8.648   2.801 122.894  0.00  0.00    +0.000 C 
ATOM      3  C   UNL     1      -7.871   1.631 123.412  0.00  0.00    +0.000 C 
ATOM      4  C   UNL     1      -8.862   0.331 124.734  0.00  0.00    +0.000 C 
ATOM      5  C   UNL     1      -8.828   0.424 123.354  0.00  0.00    +0.000 C 
ATOM      6  C   UNL     1      -9.838   0.003 122.365  0.00  0.00    +0.000 C 
ATOM      7  C   UNL     1      -7.120  -0.335 123.674  0.00  0.00    +0.000 C 
ATOM      8  C   UNL     1      -6.431   0.266 125.139  0.00  0.00    +0.000 C 
ATOM      9  C   UNL     1      -6.491   1.886 125.506  0.00  0.00    +0.000 C 
ATOM     10  C   UNL     1      -8.106   2.523 125.506  0.00  0.00    +0.000 C 
ATOM     11  C   UNL     1      -8.089   4.030 125.651  0.00  0.00    +0.000 C 
ATOM     12  C   UNL     1      -7.250   4.477 126.815  0.00  0.00    +0.000 C 
ATOM     13  C   UNL     1      -5.858   3.918 126.882  0.00  0.00    +0.000 C 
ATOM     14  C   UNL     1      -4.838   4.714 127.232  0.00  0.00    +0.000 C 
ATOM     15  C   UNL     1      -3.627   3.995 127.624  0.00  0.00    +0.000 C 
ATOM     16  O   UNL     1      -3.467   3.379 128.676  0.00  0.00    +0.000 OA
ATOM     17  C   UNL     1      -2.831   3.631 126.480  0.00  0.00    +0.000 C 
ATOM     18  C   UNL     1      -3.884   2.292 126.265  0.00  0.00    +0.000 C 
ATOM     19  C   UNL     1      -5.608   2.426 126.684  0.00  0.00    +0.000 C 
ATOM     20  C   UNL     1      -6.200   1.720 127.927  0.00  0.00    +0.000 C 
ENDROOT
BRANCH   4  21
ATOM     21  O   UNL     1     -10.262   0.642 125.139  0.00  0.00    +0.000 OA
ATOM     22  H   UNL     1     -10.697   1.273 124.546  0.00  0.00    +0.000 HD
ENDBRANCH   4  21
BRANCH   4  23
ATOM     23  C   UNL     1      -9.188  -1.475 124.783  0.00  0.00    +0.000 C 
ATOM     24  O   UNL     1      -9.796  -2.028 125.717  0.00  0.00    +0.000 OA
BRANCH  23  25
ATOM     25  C   UNL     1      -8.598  -2.513 123.720  0.00  0.00    +0.000 C 
BRANCH  25  26
ATOM     26  S   UNL     1      -7.731  -3.967 124.616  0.00  0.00    +0.000 S 
ATOM     27  H   UNL     1      -7.521  -3.416 125.832  0.00  0.00    +0.000 HD
ENDBRANCH  25  26
ENDBRANCH  23  25
ENDBRANCH   4  23
BRANCH   8  28
ATOM     28  O   UNL     1      -7.051  -0.501 126.194  0.00  0.00    +0.000 OA
ATOM     29  H   UNL     1      -7.354   0.088 126.908  0.00  0.00    +0.000 HD
ENDBRANCH   8  28
TORSDOF 5
ENDMDL
MODEL 4
REMARK VINA RESULT:      -7.3      1.579      1.875
REMARK  Name = Tixocortol
REMARK  7 active torsions:
REMARK  status: ('A' for Active; 'I' for Inactive)
REMARK    1  A    between atoms: C_5  and  O_6
REMARK    2  A    between atoms: C_5  and  C_7
REMARK    3  A    between atoms: C_7  and  C_9
REMARK    4  A    between atoms: C_9  and  S_10
REMARK    5  A    between atoms: C_11  and  C_12
REMARK    6  A    between atoms: C_14  and  O_15
REMARK    7  A    between atoms: C_28  and  C_29
REMARK                            x       y       z     vdW  Elec       q    Type
REMARK                         _______ _______ _______ _____ _____    ______ ____
ROOT
ATOM      1  C   UNL     1      -6.730  -2.078 129.534  0.00  0.00    +0.000 C 
ATOM      2  C   UNL     1      -5.624  -2.895 129.192  0.00  0.00    +0.000 C 
ATOM      3  C   UNL     1      -5.658  -1.538 128.562  0.00  0.00    +0.000 C 
ATOM      4  C   UNL     1      -6.906  -0.099 129.453  0.00  0.00    +0.000 C 
ATOM      5  C   UNL     1      -5.619  -0.527 129.726  0.00  0.00    +0.000 C 
ATOM      6  C   UNL     1      -4.881  -0.510 131.003  0.00  0.00    +0.000 C 
ATOM      7  C   UNL     1      -5.296   0.515 128.175  0.00  0.00    +0.000 C 
ATOM      8  C   UNL     1      -6.607   0.399 127.058  0.00  0.00    +0.000 C 
ATOM      9  C   UNL     1      -7.300  -1.070 126.708  0.00  0.00    +0.000 C 
ATOM     10  C   UNL     1      -7.873  -1.903 128.118  0.00  0.00    +0.000 C 
ATOM     11  C   UNL     1      -8.313  -3.310 127.770  0.00  0.00    +0.000 C 
ATOM     12  C   UNL     1      -9.269  -3.332 126.609  0.00  0.00    +0.000 C 
ATOM     13  C   UNL     1      -8.836  -2.588 125.380  0.00  0.00    +0.000 C 
ATOM     14  C   UNL     1      -9.047  -3.123 124.170  0.00  0.00    +0.000 C 
ATOM     15  C   UNL     1      -8.937  -2.168 123.067  0.00  0.00    +0.000 C 
ATOM     16  O   UNL     1      -9.754  -1.294 122.790  0.00  0.00    +0.000 OA
ATOM     17  C   UNL     1      -7.568  -1.995 122.650  0.00  0.00    +0.000 C 
ATOM     18  C   UNL     1      -7.381  -0.911 123.968  0.00  0.00    +0.000 C 
ATOM     19  C   UNL     1      -8.275  -1.173 125.484  0.00  0.00    +0.000 C 
ATOM     20  C   UNL     1      -9.461  -0.267 125.896  0.00  0.00    +0.000 C 
ENDROOT
BRANCH   4  21
ATOM     21  O   UNL     1      -7.734  -0.489 130.629  0.00  0.00    +0.000 OA
ATOM     22  H   UNL     1      -7.379  -0.160 131.469  0.00  0.00    +0.000 HD
ENDBRANCH   4  21
BRANCH   4  23
ATOM     23  C   UNL     1      -6.672   1.599 130.109  0.00  0.00    +0.000 C 
ATOM     24  O   UNL     1      -7.585   2.248 130.651  0.00  0.00    +0.000 OA
BRANCH  23  25
ATOM     25  C   UNL     1      -5.332   2.450 129.914  0.00  0.00    +0.000 C 
BRANCH  25  26
ATOM     26  S   UNL     1      -5.740   4.191 129.229  0.00  0.00    +0.000 S 
ATOM     27  H   UNL     1      -5.651   4.927 130.358  0.00  0.00    +0.000 HD
ENDBRANCH  25  26
ENDBRANCH  23  25
ENDBRANCH   4  23
BRANCH   8  28
ATOM     28  O   UNL     1      -7.610   1.312 127.551  0.00  0.00    +0.000 OA
ATOM     29  H   UNL     1      -8.005   0.970 128.373  0.00  0.00    +0.000 HD
ENDBRANCH   8  28
TORSDOF 5
ENDMDL
MODEL 5
REMARK VINA RESULT:      -7.1      2.363      3.473
REMARK  Name = Tixocortol
REMARK  7 active torsions:
REMARK  status: ('A' for Active; 'I' for Inactive)
REMARK    1  A    between atoms: C_5  and  O_6
REMARK    2  A    between atoms: C_5  and  C_7
REMARK    3  A    between atoms: C_7  and  C_9
REMARK    4  A    between atoms: C_9  and  S_10
REMARK    5  A    between atoms: C_11  and  C_12
REMARK    6  A    between atoms: C_14  and  O_15
REMARK    7  A    between atoms: C_28  and  C_29
REMARK                            x       y       z     vdW  Elec       q    Type
REMARK                         _______ _______ _______ _____ _____    ______ ____
ROOT
ATOM      1  C   UNL     1      -7.001  -0.424 131.423  0.00  0.00    +0.000 C 
ATOM      2  C   UNL     1      -8.334  -0.605 131.867  0.00  0.00    +0.000 C 
ATOM      3  C   UNL     1      -7.647  -1.824 131.334  0.00  0.00    +0.000 C 
ATOM      4  C   UNL     1      -5.549  -1.766 131.217  0.00  0.00    +0.000 C 
ATOM      5  C   UNL     1      -6.426  -2.058 132.246  0.00  0.00    +0.000 C 
ATOM      6  C   UNL     1      -6.234  -1.925 133.702  0.00  0.00    +0.000 C 
ATOM      7  C   UNL     1      -6.576  -3.650 131.227  0.00  0.00    +0.000 C 
ATOM      8  C   UNL     1      -6.453  -3.326 129.535  0.00  0.00    +0.000 C 
ATOM      9  C   UNL     1      -7.270  -2.050 128.852  0.00  0.00    +0.000 C 
ATOM     10  C   UNL     1      -6.901  -0.528 129.601  0.00  0.00    +0.000 C 
ATOM     11  C   UNL     1      -7.811   0.563 129.077  0.00  0.00    +0.000 C 
ATOM     12  C   UNL     1      -7.836   0.605 127.574  0.00  0.00    +0.000 C 
ATOM     13  C   UNL     1      -8.108  -0.697 126.879  0.00  0.00    +0.000 C 
ATOM     14  C   UNL     1      -8.922  -0.725 125.814  0.00  0.00    +0.000 C 
ATOM     15  C   UNL     1      -8.813  -1.942 125.012  0.00  0.00    +0.000 C 
ATOM     16  O   UNL     1      -7.878  -2.230 124.267  0.00  0.00    +0.000 OA
ATOM     17  C   UNL     1      -9.626  -3.005 125.546  0.00  0.00    +0.000 C 
ATOM     18  C   UNL     1      -8.363  -3.307 126.670  0.00  0.00    +0.000 C 
ATOM     19  C   UNL     1      -7.369  -1.967 127.289  0.00  0.00    +0.000 C 
ATOM     20  C   UNL     1      -5.899  -1.774 126.848  0.00  0.00    +0.000 C 
ENDROOT
BRANCH   4  21
ATOM     21  O   UNL     1      -4.836  -0.520 131.616  0.00  0.00    +0.000 OA
ATOM     22  H   UNL     1      -4.404  -0.590 132.480  0.00  0.00    +0.000 HD
ENDBRANCH   4  21
BRANCH   4  23
ATOM     23  C   UNL     1      -4.181  -2.817 131.846  0.00  0.00    +0.000 C 
ATOM     24  O   UNL     1      -2.981  -2.532 131.687  0.00  0.00    +0.000 OA
BRANCH  23  25
ATOM     25  C   UNL     1      -4.400  -4.253 132.514  0.00  0.00    +0.000 C 
BRANCH  25  26
ATOM     26  S   UNL     1      -3.018  -4.613 133.790  0.00  0.00    +0.000 S 
ATOM     27  H   UNL     1      -3.499  -3.954 134.866  0.00  0.00    +0.000 HD
ENDBRANCH  25  26
ENDBRANCH  23  25
ENDBRANCH   4  23
BRANCH   8  28
ATOM     28  O   UNL     1      -5.039  -3.203 129.272  0.00  0.00    +0.000 OA
ATOM     29  H   UNL     1      -4.849  -2.357 128.829  0.00  0.00    +0.000 HD
ENDBRANCH   8  28
TORSDOF 5
ENDMDL
MODEL 6
REMARK VINA RESULT:      -7.0      2.623      6.518
REMARK  Name = Tixocortol
REMARK  7 active torsions:
REMARK  status: ('A' for Active; 'I' for Inactive)
REMARK    1  A    between atoms: C_5  and  O_6
REMARK    2  A    between atoms: C_5  and  C_7
REMARK    3  A    between atoms: C_7  and  C_9
REMARK    4  A    between atoms: C_9  and  S_10
REMARK    5  A    between atoms: C_11  and  C_12
REMARK    6  A    between atoms: C_14  and  O_15
REMARK    7  A    between atoms: C_28  and  C_29
REMARK                            x       y       z     vdW  Elec       q    Type
REMARK                         _______ _______ _______ _____ _____    ______ ____
ROOT
ATOM      1  C   UNL     1      -6.568  -2.904 129.145  0.00  0.00    +0.000 C 
ATOM      2  C   UNL     1      -7.743  -3.638 128.851  0.00  0.00    +0.000 C 
ATOM      3  C   UNL     1      -7.896  -2.514 129.828  0.00  0.00    +0.000 C 
ATOM      4  C   UNL     1      -6.382  -1.057 129.857  0.00  0.00    +0.000 C 
ATOM      5  C   UNL     1      -7.503  -1.232 129.067  0.00  0.00    +0.000 C 
ATOM      6  C   UNL     1      -7.750  -0.782 127.685  0.00  0.00    +0.000 C 
ATOM      7  C   UNL     1      -8.320  -0.611 130.662  0.00  0.00    +0.000 C 
ATOM      8  C   UNL     1      -7.483  -1.185 132.059  0.00  0.00    +0.000 C 
ATOM      9  C   UNL     1      -6.991  -2.769 132.167  0.00  0.00    +0.000 C 
ATOM     10  C   UNL     1      -5.984  -3.259 130.841  0.00  0.00    +0.000 C 
ATOM     11  C   UNL     1      -5.728  -4.751 130.883  0.00  0.00    +0.000 C 
ATOM     12  C   UNL     1      -5.236  -5.202 132.230  0.00  0.00    +0.000 C 
ATOM     13  C   UNL     1      -6.051  -4.766 133.413  0.00  0.00    +0.000 C 
ATOM     14  C   UNL     1      -6.287  -5.628 134.412  0.00  0.00    +0.000 C 
ATOM     15  C   UNL     1      -6.751  -4.998 135.647  0.00  0.00    +0.000 C 
ATOM     16  O   UNL     1      -6.059  -4.338 136.420  0.00  0.00    +0.000 OA
ATOM     17  C   UNL     1      -8.174  -4.773 135.627  0.00  0.00    +0.000 C 
ATOM     18  C   UNL     1      -7.865  -3.361 134.701  0.00  0.00    +0.000 C 
ATOM     19  C   UNL     1      -6.505  -3.316 133.554  0.00  0.00    +0.000 C 
ATOM     20  C   UNL     1      -5.228  -2.489 133.836  0.00  0.00    +0.000 C 
ENDROOT
BRANCH   4  21
ATOM     21  O   UNL     1      -5.206  -1.218 128.956  0.00  0.00    +0.000 OA
ATOM     22  H   UNL     1      -5.147  -0.524 128.281  0.00  0.00    +0.000 HD
ENDBRANCH   4  21
BRANCH   4  23
ATOM     23  C   UNL     1      -6.331   0.771 129.691  0.00  0.00    +0.000 C 
ATOM     24  O   UNL     1      -5.271   1.423 129.709  0.00  0.00    +0.000 OA
BRANCH  23  25
ATOM     25  C   UNL     1      -7.634   1.696 129.661  0.00  0.00    +0.000 C 
BRANCH  25  26
ATOM     26  S   UNL     1      -7.464   3.131 130.918  0.00  0.00    +0.000 S 
ATOM     27  H   UNL     1      -7.534   2.448 132.082  0.00  0.00    +0.000 HD
ENDBRANCH  25  26
ENDBRANCH  23  25
ENDBRANCH   4  23
BRANCH   8  28
ATOM     28  O   UNL     1      -6.348  -0.306 132.211  0.00  0.00    +0.000 OA
ATOM     29  H   UNL     1      -5.591  -0.636 131.694  0.00  0.00    +0.000 HD
ENDBRANCH   8  28
TORSDOF 5
ENDMDL
MODEL 7
REMARK VINA RESULT:      -6.9      5.236      7.880
REMARK  Name = Tixocortol
REMARK  7 active torsions:
REMARK  status: ('A' for Active; 'I' for Inactive)
REMARK    1  A    between atoms: C_5  and  O_6
REMARK    2  A    between atoms: C_5  and  C_7
REMARK    3  A    between atoms: C_7  and  C_9
REMARK    4  A    between atoms: C_9  and  S_10
REMARK    5  A    between atoms: C_11  and  C_12
REMARK    6  A    between atoms: C_14  and  O_15
REMARK    7  A    between atoms: C_28  and  C_29
REMARK                            x       y       z     vdW  Elec       q    Type
REMARK                         _______ _______ _______ _____ _____    ______ ____
ROOT
ATOM      1  C   UNL     1      -6.363   3.743 133.380  0.00  0.00    +0.000 C 
ATOM      2  C   UNL     1      -7.134   4.030 134.533  0.00  0.00    +0.000 C 
ATOM      3  C   UNL     1      -7.759   3.103 133.537  0.00  0.00    +0.000 C 
ATOM      4  C   UNL     1      -6.479   2.192 132.140  0.00  0.00    +0.000 C 
ATOM      5  C   UNL     1      -6.822   1.882 133.444  0.00  0.00    +0.000 C 
ATOM      6  C   UNL     1      -6.052   1.141 134.460  0.00  0.00    +0.000 C 
ATOM      7  C   UNL     1      -8.405   1.341 132.551  0.00  0.00    +0.000 C 
ATOM      8  C   UNL     1      -8.756   2.377 131.215  0.00  0.00    +0.000 C 
ATOM      9  C   UNL     1      -8.639   4.027 131.364  0.00  0.00    +0.000 C 
ATOM     10  C   UNL     1      -7.074   4.551 131.903  0.00  0.00    +0.000 C 
ATOM     11  C   UNL     1      -7.080   6.034 132.209  0.00  0.00    +0.000 C 
ATOM     12  C   UNL     1      -7.644   6.844 131.074  0.00  0.00    +0.000 C 
ATOM     13  C   UNL     1      -8.977   6.402 130.544  0.00  0.00    +0.000 C 
ATOM     14  C   UNL     1      -9.904   7.318 130.231  0.00  0.00    +0.000 C 
ATOM     15  C   UNL     1     -10.987   6.808 129.391  0.00  0.00    +0.000 C 
ATOM     16  O   UNL     1     -10.899   6.533 128.196  0.00  0.00    +0.000 OA
ATOM     17  C   UNL     1     -12.013   6.171 130.175  0.00  0.00    +0.000 C 
ATOM     18  C   UNL     1     -11.016   4.773 130.210  0.00  0.00    +0.000 C 
ATOM     19  C   UNL     1      -9.244   4.932 130.234  0.00  0.00    +0.000 C 
ATOM     20  C   UNL     1      -8.379   4.587 128.999  0.00  0.00    +0.000 C 
ENDROOT
BRANCH   4  21
ATOM     21  O   UNL     1      -5.028   2.533 132.160  0.00  0.00    +0.000 OA
ATOM     22  H   UNL     1      -4.642   2.597 131.273  0.00  0.00    +0.000 HD
ENDBRANCH   4  21
BRANCH   4  23
ATOM     23  C   UNL     1      -6.125   0.464 131.633  0.00  0.00    +0.000 C 
ATOM     24  O   UNL     1      -5.261   0.171 130.786  0.00  0.00    +0.000 OA
BRANCH  23  25
ATOM     25  C   UNL     1      -6.983  -0.796 132.114  0.00  0.00    +0.000 C 
BRANCH  25  26
ATOM     26  S   UNL     1      -7.550  -1.832 130.607  0.00  0.00    +0.000 S 
ATOM     27  H   UNL     1      -8.123  -2.884 131.233  0.00  0.00    +0.000 HD
ENDBRANCH  25  26
ENDBRANCH  23  25
ENDBRANCH   4  23
BRANCH   8  28
ATOM     28  O   UNL     1      -7.906   1.917 130.143  0.00  0.00    +0.000 OA
ATOM     29  H   UNL     1      -8.275   1.111 129.739  0.00  0.00    +0.000 HD
ENDBRANCH   8  28
TORSDOF 5
ENDMDL
MODEL 8
REMARK VINA RESULT:      -6.9      2.604      6.523
REMARK  Name = Tixocortol
REMARK  7 active torsions:
REMARK  status: ('A' for Active; 'I' for Inactive)
REMARK    1  A    between atoms: C_5  and  O_6
REMARK    2  A    between atoms: C_5  and  C_7
REMARK    3  A    between atoms: C_7  and  C_9
REMARK    4  A    between atoms: C_9  and  S_10
REMARK    5  A    between atoms: C_11  and  C_12
REMARK    6  A    between atoms: C_14  and  O_15
REMARK    7  A    between atoms: C_28  and  C_29
REMARK                            x       y       z     vdW  Elec       q    Type
REMARK                         _______ _______ _______ _____ _____    ______ ____
ROOT
ATOM      1  C   UNL     1      -7.626  -2.871 126.130  0.00  0.00    +0.000 C 
ATOM      2  C   UNL     1      -8.748  -3.565 126.646  0.00  0.00    +0.000 C 
ATOM      3  C   UNL     1      -8.921  -2.092 126.442  0.00  0.00    +0.000 C 
ATOM      4  C   UNL     1      -7.552  -1.134 125.166  0.00  0.00    +0.000 C 
ATOM      5  C   UNL     1      -8.716  -1.844 124.934  0.00  0.00    +0.000 C 
ATOM      6  C   UNL     1      -9.122  -2.605 123.738  0.00  0.00    +0.000 C 
ATOM      7  C   UNL     1      -9.447  -0.222 125.592  0.00  0.00    +0.000 C 
ATOM      8  C   UNL     1      -8.443   0.467 126.816  0.00  0.00    +0.000 C 
ATOM      9  C   UNL     1      -7.799  -0.479 128.021  0.00  0.00    +0.000 C 
ATOM     10  C   UNL     1      -6.868  -1.812 127.413  0.00  0.00    +0.000 C 
ATOM     11  C   UNL     1      -6.471  -2.747 128.536  0.00  0.00    +0.000 C 
ATOM     12  C   UNL     1      -5.826  -2.015 129.680  0.00  0.00    +0.000 C 
ATOM     13  C   UNL     1      -6.574  -0.827 130.212  0.00  0.00    +0.000 C 
ATOM     14  C   UNL     1      -6.642  -0.622 131.535  0.00  0.00    +0.000 C 
ATOM     15  C   UNL     1      -7.054   0.730 131.910  0.00  0.00    +0.000 C 
ATOM     16  O   UNL     1      -6.363   1.742 131.819  0.00  0.00    +0.000 OA
ATOM     17  C   UNL     1      -8.488   0.867 131.907  0.00  0.00    +0.000 C 
ATOM     18  C   UNL     1      -8.393   1.074 130.206  0.00  0.00    +0.000 C 
ATOM     19  C   UNL     1      -7.147   0.221 129.264  0.00  0.00    +0.000 C 
ATOM     20  C   UNL     1      -5.933   0.966 128.657  0.00  0.00    +0.000 C 
ENDROOT
BRANCH   4  21
ATOM     21  O   UNL     1      -6.448  -1.931 124.561  0.00  0.00    +0.000 OA
ATOM     22  H   UNL     1      -6.664  -2.872 124.472  0.00  0.00    +0.000 HD
ENDBRANCH   4  21
BRANCH   4  23
ATOM     23  C   UNL     1      -7.686  -0.077 123.671  0.00  0.00    +0.000 C 
ATOM     24  O   UNL     1      -6.697   0.289 123.011  0.00  0.00    +0.000 OA
BRANCH  23  25
ATOM     25  C   UNL     1      -9.052   0.586 123.172  0.00  0.00    +0.000 C 
BRANCH  25  26
ATOM     26  S   UNL     1      -8.810   2.460 122.859  0.00  0.00    +0.000 S 
ATOM     27  H   UNL     1      -8.543   2.455 121.535  0.00  0.00    +0.000 HD
ENDBRANCH  25  26
ENDBRANCH  23  25
ENDBRANCH   4  23
BRANCH   8  28
ATOM     28  O   UNL     1      -7.387   1.146 126.105  0.00  0.00    +0.000 OA
ATOM     29  H   UNL     1      -6.758   0.501 125.735  0.00  0.00    +0.000 HD
ENDBRANCH   8  28
TORSDOF 5
ENDMDL
MODEL 9
REMARK VINA RESULT:      -6.8      3.066      6.103
REMARK  Name = Tixocortol
REMARK  7 active torsions:
REMARK  status: ('A' for Active; 'I' for Inactive)
REMARK    1  A    between atoms: C_5  and  O_6
REMARK    2  A    between atoms: C_5  and  C_7
REMARK    3  A    between atoms: C_7  and  C_9
REMARK    4  A    between atoms: C_9  and  S_10
REMARK    5  A    between atoms: C_11  and  C_12
REMARK    6  A    between atoms: C_14  and  O_15
REMARK    7  A    between atoms: C_28  and  C_29
REMARK                            x       y       z     vdW  Elec       q    Type
REMARK                         _______ _______ _______ _____ _____    ______ ____
ROOT
ATOM      1  C   UNL     1      -7.800   1.282 127.917  0.00  0.00    +0.000 C 
ATOM      2  C   UNL     1      -6.725   2.094 128.356  0.00  0.00    +0.000 C 
ATOM      3  C   UNL     1      -6.361   0.940 127.475  0.00  0.00    +0.000 C 
ATOM      4  C   UNL     1      -7.905   0.077 126.339  0.00  0.00    +0.000 C 
ATOM      5  C   UNL     1      -7.093   1.178 126.138  0.00  0.00    +0.000 C 
ATOM      6  C   UNL     1      -7.351   2.397 125.350  0.00  0.00    +0.000 C 
ATOM      7  C   UNL     1      -5.858  -0.213 125.768  0.00  0.00    +0.000 C 
ATOM      8  C   UNL     1      -6.138  -1.586 126.778  0.00  0.00    +0.000 C 
ATOM      9  C   UNL     1      -6.426  -1.402 128.404  0.00  0.00    +0.000 C 
ATOM     10  C   UNL     1      -7.764  -0.349 128.742  0.00  0.00    +0.000 C 
ATOM     11  C   UNL     1      -7.859  -0.061 130.226  0.00  0.00    +0.000 C 
ATOM     12  C   UNL     1      -7.842  -1.319 131.048  0.00  0.00    +0.000 C 
ATOM     13  C   UNL     1      -6.727  -2.282 130.762  0.00  0.00    +0.000 C 
ATOM     14  C   UNL     1      -6.103  -2.897 131.776  0.00  0.00    +0.000 C 
ATOM     15  C   UNL     1      -5.318  -4.065 131.374  0.00  0.00    +0.000 C 
ATOM     16  O   UNL     1      -5.775  -5.154 131.034  0.00  0.00    +0.000 OA
ATOM     17  C   UNL     1      -4.006  -3.690 130.914  0.00  0.00    +0.000 C 
ATOM     18  C   UNL     1      -4.724  -3.311 129.401  0.00  0.00    +0.000 C 
ATOM     19  C   UNL     1      -6.382  -2.669 129.327  0.00  0.00    +0.000 C 
ATOM     20  C   UNL     1      -7.564  -3.526 128.813  0.00  0.00    +0.000 C 
ENDROOT
BRANCH   4  21
ATOM     21  O   UNL     1      -9.292   0.603 126.487  0.00  0.00    +0.000 OA
ATOM     22  H   UNL     1      -9.923  -0.071 126.782  0.00  0.00    +0.000 HD
ENDBRANCH   4  21
BRANCH   4  23
ATOM     23  C   UNL     1      -8.169  -0.278 124.558  0.00  0.00    +0.000 C 
ATOM     24  O   UNL     1      -9.213  -0.792 124.117  0.00  0.00    +0.000 OA
BRANCH  23  25
ATOM     25  C   UNL     1      -7.038  -0.103 123.441  0.00  0.00    +0.000 C 
BRANCH  25  26
ATOM     26  S   UNL     1      -6.632  -1.789 122.630  0.00  0.00    +0.000 S 
ATOM     27  H   UNL     1      -7.812  -2.065 122.032  0.00  0.00    +0.000 HD
ENDBRANCH  25  26
ENDBRANCH  23  25
ENDBRANCH   4  23
BRANCH   8  28
ATOM     28  O   UNL     1      -7.234  -2.294 126.161  0.00  0.00    +0.000 OA
ATOM     29  H   UNL     1      -7.951  -2.438 126.805  0.00  0.00    +0.000 HD
ENDBRANCH   8  28
TORSDOF 5
ENDMDL
