MODEL 1
REMARK VINA RESULT:      -5.9      0.000      0.000
REMARK  Name = Tizanidine
REMARK  1 active torsions:
REMARK  status: ('A' for Active; 'I' for Inactive)
REMARK    1  A    between atoms: C_3  and  N_4
REMARK                            x       y       z     vdW  Elec       q    Type
REMARK                         _______ _______ _______ _____ _____    ______ ____
ROOT
ATOM      1 CL   UNL     1     -10.220   6.030 132.788  0.00  0.00    +0.000 Cl
ATOM      2  C   UNL     1     -10.715   6.424 131.176  0.00  0.00    +0.000 A 
ATOM      3  C   UNL     1      -9.893   6.261 130.017  0.00  0.00    +0.000 A 
ATOM      4  C   UNL     1     -10.535   6.778 128.830  0.00  0.00    +0.000 A 
ATOM      5  N   UNL     1     -10.017   6.784 127.586  0.00  0.00    +0.000 NA
ATOM      6  S   UNL     1     -11.161   7.463 126.584  0.00  0.00    +0.000 S 
ATOM      7  N   UNL     1     -12.371   7.792 127.665  0.00  0.00    +0.000 NA
ATOM      8  C   UNL     1     -11.932   7.379 128.861  0.00  0.00    +0.000 A 
ATOM      9  C   UNL     1     -12.672   7.470 130.052  0.00  0.00    +0.000 A 
ATOM     10  C   UNL     1     -12.023   6.984 131.182  0.00  0.00    +0.000 A 
ENDROOT
BRANCH   3  11
ATOM     11  N   UNL     1      -8.621   5.635 129.953  0.00  0.00    +0.000 N 
ATOM     12  C   UNL     1      -8.342   4.320 130.194  0.00  0.00    +0.000 C 
ATOM     13  N   UNL     1      -7.737   3.834 131.238  0.00  0.00    +0.000 NA
ATOM     14  C   UNL     1      -7.710   2.353 130.973  0.00  0.00    +0.000 C 
ATOM     15  C   UNL     1      -8.675   2.119 129.811  0.00  0.00    +0.000 C 
ATOM     16  N   UNL     1      -8.651   3.432 129.204  0.00  0.00    +0.000 N 
ATOM     17  H   UNL     1      -7.892   6.275 130.261  0.00  0.00    +0.000 HD
ATOM     18  H   UNL     1      -9.398   3.684 128.574  0.00  0.00    +0.000 HD
ENDBRANCH   3  11
TORSDOF 1
ENDMDL
MODEL 2
REMARK VINA RESULT:      -5.7      7.623      8.923
REMARK  Name = Tizanidine
REMARK  1 active torsions:
REMARK  status: ('A' for Active; 'I' for Inactive)
REMARK    1  A    between atoms: C_3  and  N_4
REMARK                            x       y       z     vdW  Elec       q    Type
REMARK                         _______ _______ _______ _____ _____    ______ ____
ROOT
ATOM      1 CL   UNL     1      -4.914   2.479 125.895  0.00  0.00    +0.000 Cl
ATOM      2  C   UNL     1      -6.263   1.746 125.095  0.00  0.00    +0.000 A 
ATOM      3  C   UNL     1      -7.107   2.417 124.156  0.00  0.00    +0.000 A 
ATOM      4  C   UNL     1      -8.212   1.585 123.740  0.00  0.00    +0.000 A 
ATOM      5  N   UNL     1      -9.187   1.931 122.877  0.00  0.00    +0.000 NA
ATOM      6  S   UNL     1     -10.194   0.615 122.722  0.00  0.00    +0.000 S 
ATOM      7  N   UNL     1      -9.461  -0.465 123.740  0.00  0.00    +0.000 NA
ATOM      8  C   UNL     1      -8.388   0.160 124.245  0.00  0.00    +0.000 A 
ATOM      9  C   UNL     1      -7.484  -0.421 125.151  0.00  0.00    +0.000 A 
ATOM     10  C   UNL     1      -6.442   0.409 125.550  0.00  0.00    +0.000 A 
ENDROOT
BRANCH   3  11
ATOM     11  N   UNL     1      -6.919   3.716 123.615  0.00  0.00    +0.000 N 
ATOM     12  C   UNL     1      -6.405   4.025 122.388  0.00  0.00    +0.000 C 
ATOM     13  N   UNL     1      -5.230   4.529 122.144  0.00  0.00    +0.000 NA
ATOM     14  C   UNL     1      -5.205   4.654 120.645  0.00  0.00    +0.000 C 
ATOM     15  C   UNL     1      -6.395   3.840 120.138  0.00  0.00    +0.000 C 
ATOM     16  N   UNL     1      -7.235   3.873 121.315  0.00  0.00    +0.000 N 
ATOM     17  H   UNL     1      -6.664   4.375 124.348  0.00  0.00    +0.000 HD
ATOM     18  H   UNL     1      -7.975   3.192 121.396  0.00  0.00    +0.000 HD
ENDBRANCH   3  11
TORSDOF 1
ENDMDL
MODEL 3
REMARK VINA RESULT:      -5.7      3.612      6.234
REMARK  Name = Tizanidine
REMARK  1 active torsions:
REMARK  status: ('A' for Active; 'I' for Inactive)
REMARK    1  A    between atoms: C_3  and  N_4
REMARK                            x       y       z     vdW  Elec       q    Type
REMARK                         _______ _______ _______ _____ _____    ______ ____
ROOT
ATOM      1 CL   UNL     1      -7.694   5.658 135.344  0.00  0.00    +0.000 Cl
ATOM      2  C   UNL     1      -7.814   4.205 134.410  0.00  0.00    +0.000 A 
ATOM      3  C   UNL     1      -8.945   3.852 133.609  0.00  0.00    +0.000 A 
ATOM      4  C   UNL     1      -8.803   2.534 133.036  0.00  0.00    +0.000 A 
ATOM      5  N   UNL     1      -9.699   1.910 132.246  0.00  0.00    +0.000 NA
ATOM      6  S   UNL     1      -9.047   0.434 131.838  0.00  0.00    +0.000 S 
ATOM      7  N   UNL     1      -7.599   0.496 132.638  0.00  0.00    +0.000 NA
ATOM      8  C   UNL     1      -7.562   1.682 133.260  0.00  0.00    +0.000 A 
ATOM      9  C   UNL     1      -6.487   2.133 134.046  0.00  0.00    +0.000 A 
ATOM     10  C   UNL     1      -6.659   3.396 134.602  0.00  0.00    +0.000 A 
ENDROOT
BRANCH   3  11
ATOM     11  N   UNL     1     -10.076   4.661 133.326  0.00  0.00    +0.000 N 
ATOM     12  C   UNL     1     -10.304   5.381 132.188  0.00  0.00    +0.000 C 
ATOM     13  N   UNL     1     -10.239   6.674 132.062  0.00  0.00    +0.000 NA
ATOM     14  C   UNL     1     -10.574   6.905 130.614  0.00  0.00    +0.000 C 
ATOM     15  C   UNL     1     -10.497   5.534 129.943  0.00  0.00    +0.000 C 
ATOM     16  N   UNL     1     -10.726   4.685 131.091  0.00  0.00    +0.000 N 
ATOM     17  H   UNL     1     -10.417   5.110 134.173  0.00  0.00    +0.000 HD
ATOM     18  H   UNL     1     -10.462   3.713 131.031  0.00  0.00    +0.000 HD
ENDBRANCH   3  11
TORSDOF 1
ENDMDL
MODEL 4
REMARK VINA RESULT:      -5.6      2.489      5.165
REMARK  Name = Tizanidine
REMARK  1 active torsions:
REMARK  status: ('A' for Active; 'I' for Inactive)
REMARK    1  A    between atoms: C_3  and  N_4
REMARK                            x       y       z     vdW  Elec       q    Type
REMARK                         _______ _______ _______ _____ _____    ______ ____
ROOT
ATOM      1 CL   UNL     1     -12.287   6.790 131.477  0.00  0.00    +0.000 Cl
ATOM      2  C   UNL     1     -10.606   6.381 131.400  0.00  0.00    +0.000 A 
ATOM      3  C   UNL     1      -9.870   6.222 130.185  0.00  0.00    +0.000 A 
ATOM      4  C   UNL     1      -8.519   5.773 130.435  0.00  0.00    +0.000 A 
ATOM      5  N   UNL     1      -7.582   5.518 129.501  0.00  0.00    +0.000 NA
ATOM      6  S   UNL     1      -6.200   5.057 130.308  0.00  0.00    +0.000 S 
ATOM      7  N   UNL     1      -6.709   5.147 131.881  0.00  0.00    +0.000 NA
ATOM      8  C   UNL     1      -7.987   5.548 131.842  0.00  0.00    +0.000 A 
ATOM      9  C   UNL     1      -8.786   5.760 132.978  0.00  0.00    +0.000 A 
ATOM     10  C   UNL     1     -10.087   6.172 132.708  0.00  0.00    +0.000 A 
ENDROOT
BRANCH   3  11
ATOM     11  N   UNL     1     -10.322   6.498 128.869  0.00  0.00    +0.000 N 
ATOM     12  C   UNL     1     -11.463   7.161 128.517  0.00  0.00    +0.000 C 
ATOM     13  N   UNL     1     -12.541   6.637 128.012  0.00  0.00    +0.000 NA
ATOM     14  C   UNL     1     -13.457   7.817 127.832  0.00  0.00    +0.000 C 
ATOM     15  C   UNL     1     -12.821   8.963 128.618  0.00  0.00    +0.000 C 
ATOM     16  N   UNL     1     -11.443   8.523 128.624  0.00  0.00    +0.000 N 
ATOM     17  H   UNL     1     -10.076   5.737 128.239  0.00  0.00    +0.000 HD
ATOM     18  H   UNL     1     -10.813   8.923 129.302  0.00  0.00    +0.000 HD
ENDBRANCH   3  11
TORSDOF 1
ENDMDL
MODEL 5
REMARK VINA RESULT:      -5.6      1.579      2.080
REMARK  Name = Tizanidine
REMARK  1 active torsions:
REMARK  status: ('A' for Active; 'I' for Inactive)
REMARK    1  A    between atoms: C_3  and  N_4
REMARK                            x       y       z     vdW  Elec       q    Type
REMARK                         _______ _______ _______ _____ _____    ______ ____
ROOT
ATOM      1 CL   UNL     1      -9.735   4.898 132.919  0.00  0.00    +0.000 Cl
ATOM      2  C   UNL     1     -10.271   5.674 131.466  0.00  0.00    +0.000 A 
ATOM      3  C   UNL     1      -9.641   5.525 130.192  0.00  0.00    +0.000 A 
ATOM      4  C   UNL     1     -10.245   6.378 129.195  0.00  0.00    +0.000 A 
ATOM      5  N   UNL     1      -9.871   6.479 127.904  0.00  0.00    +0.000 NA
ATOM      6  S   UNL     1     -10.896   7.574 127.181  0.00  0.00    +0.000 S 
ATOM      7  N   UNL     1     -11.866   7.988 128.458  0.00  0.00    +0.000 NA
ATOM      8  C   UNL     1     -11.429   7.280 129.509  0.00  0.00    +0.000 A 
ATOM      9  C   UNL     1     -11.997   7.335 130.794  0.00  0.00    +0.000 A 
ATOM     10  C   UNL     1     -11.384   6.519 131.739  0.00  0.00    +0.000 A 
ENDROOT
BRANCH   3  11
ATOM     11  N   UNL     1      -8.587   4.635 129.859  0.00  0.00    +0.000 N 
ATOM     12  C   UNL     1      -7.247   4.878 129.963  0.00  0.00    +0.000 C 
ATOM     13  N   UNL     1      -6.419   5.094 128.982  0.00  0.00    +0.000 NA
ATOM     14  C   UNL     1      -5.099   5.301 129.673  0.00  0.00    +0.000 C 
ATOM     15  C   UNL     1      -5.428   5.487 131.154  0.00  0.00    +0.000 C 
ATOM     16  N   UNL     1      -6.701   4.803 131.212  0.00  0.00    +0.000 N 
ATOM     17  H   UNL     1      -8.842   4.063 129.057  0.00  0.00    +0.000 HD
ATOM     18  H   UNL     1      -7.311   4.986 131.994  0.00  0.00    +0.000 HD
ENDBRANCH   3  11
TORSDOF 1
ENDMDL
MODEL 6
REMARK VINA RESULT:      -5.5      7.911      8.969
REMARK  Name = Tizanidine
REMARK  1 active torsions:
REMARK  status: ('A' for Active; 'I' for Inactive)
REMARK    1  A    between atoms: C_3  and  N_4
REMARK                            x       y       z     vdW  Elec       q    Type
REMARK                         _______ _______ _______ _____ _____    ______ ____
ROOT
ATOM      1 CL   UNL     1      -5.318   3.447 124.270  0.00  0.00    +0.000 Cl
ATOM      2  C   UNL     1      -6.085   3.776 122.753  0.00  0.00    +0.000 A 
ATOM      3  C   UNL     1      -7.457   3.495 122.465  0.00  0.00    +0.000 A 
ATOM      4  C   UNL     1      -7.781   3.775 121.085  0.00  0.00    +0.000 A 
ATOM      5  N   UNL     1      -8.983   3.602 120.501  0.00  0.00    +0.000 NA
ATOM      6  S   UNL     1      -8.832   4.094 118.917  0.00  0.00    +0.000 S 
ATOM      7  N   UNL     1      -7.240   4.546 118.878  0.00  0.00    +0.000 NA
ATOM      8  C   UNL     1      -6.757   4.335 120.109  0.00  0.00    +0.000 A 
ATOM      9  C   UNL     1      -5.434   4.604 120.499  0.00  0.00    +0.000 A 
ATOM     10  C   UNL     1      -5.144   4.307 121.827  0.00  0.00    +0.000 A 
ENDROOT
BRANCH   3  11
ATOM     11  N   UNL     1      -8.447   3.045 123.377  0.00  0.00    +0.000 N 
ATOM     12  C   UNL     1      -8.632   1.766 123.819  0.00  0.00    +0.000 C 
ATOM     13  N   UNL     1      -9.596   0.960 123.480  0.00  0.00    +0.000 NA
ATOM     14  C   UNL     1      -9.298  -0.293 124.258  0.00  0.00    +0.000 C 
ATOM     15  C   UNL     1      -7.872  -0.129 124.784  0.00  0.00    +0.000 C 
ATOM     16  N   UNL     1      -7.772   1.314 124.779  0.00  0.00    +0.000 N 
ATOM     17  H   UNL     1      -9.311   3.568 123.253  0.00  0.00    +0.000 HD
ATOM     18  H   UNL     1      -6.855   1.733 124.811  0.00  0.00    +0.000 HD
ENDBRANCH   3  11
TORSDOF 1
ENDMDL
MODEL 7
REMARK VINA RESULT:      -5.5      8.147      8.749
REMARK  Name = Tizanidine
REMARK  1 active torsions:
REMARK  status: ('A' for Active; 'I' for Inactive)
REMARK    1  A    between atoms: C_3  and  N_4
REMARK                            x       y       z     vdW  Elec       q    Type
REMARK                         _______ _______ _______ _____ _____    ______ ____
ROOT
ATOM      1 CL   UNL     1      -9.380  -2.737 123.125  0.00  0.00    +0.000 Cl
ATOM      2  C   UNL     1      -8.980  -1.052 123.110  0.00  0.00    +0.000 A 
ATOM      3  C   UNL     1      -7.766  -0.506 123.632  0.00  0.00    +0.000 A 
ATOM      4  C   UNL     1      -7.764   0.937 123.580  0.00  0.00    +0.000 A 
ATOM      5  N   UNL     1      -6.774   1.746 124.006  0.00  0.00    +0.000 NA
ATOM      6  S   UNL     1      -7.254   3.311 123.699  0.00  0.00    +0.000 S 
ATOM      7  N   UNL     1      -8.741   3.056 123.016  0.00  0.00    +0.000 NA
ATOM      8  C   UNL     1      -8.925   1.729 122.995  0.00  0.00    +0.000 A 
ATOM      9  C   UNL     1     -10.068   1.095 122.479  0.00  0.00    +0.000 A 
ATOM     10  C   UNL     1     -10.052  -0.294 122.561  0.00  0.00    +0.000 A 
ENDROOT
BRANCH   3  11
ATOM     11  N   UNL     1      -6.642  -1.227 124.112  0.00  0.00    +0.000 N 
ATOM     12  C   UNL     1      -6.348  -1.516 125.413  0.00  0.00    +0.000 C 
ATOM     13  N   UNL     1      -5.412  -0.973 126.137  0.00  0.00    +0.000 NA
ATOM     14  C   UNL     1      -5.551  -1.661 127.467  0.00  0.00    +0.000 C 
ATOM     15  C   UNL     1      -6.893  -2.390 127.423  0.00  0.00    +0.000 C 
ATOM     16  N   UNL     1      -7.047  -2.536 125.992  0.00  0.00    +0.000 N 
ATOM     17  H   UNL     1      -5.824  -1.038 123.536  0.00  0.00    +0.000 HD
ATOM     18  H   UNL     1      -7.965  -2.734 125.625  0.00  0.00    +0.000 HD
ENDBRANCH   3  11
TORSDOF 1
ENDMDL
MODEL 8
REMARK VINA RESULT:      -5.4      2.852      3.393
REMARK  Name = Tizanidine
REMARK  1 active torsions:
REMARK  status: ('A' for Active; 'I' for Inactive)
REMARK    1  A    between atoms: C_3  and  N_4
REMARK                            x       y       z     vdW  Elec       q    Type
REMARK                         _______ _______ _______ _____ _____    ______ ____
ROOT
ATOM      1 CL   UNL     1      -8.357   4.173 128.966  0.00  0.00    +0.000 Cl
ATOM      2  C   UNL     1      -9.524   5.337 129.496  0.00  0.00    +0.000 A 
ATOM      3  C   UNL     1     -10.416   5.141 130.597  0.00  0.00    +0.000 A 
ATOM      4  C   UNL     1     -11.347   6.238 130.731  0.00  0.00    +0.000 A 
ATOM      5  N   UNL     1     -12.318   6.345 131.659  0.00  0.00    +0.000 NA
ATOM      6  S   UNL     1     -13.087   7.799 131.395  0.00  0.00    +0.000 S 
ATOM      7  N   UNL     1     -12.242   8.370 130.092  0.00  0.00    +0.000 NA
ATOM      8  C   UNL     1     -11.314   7.447 129.808  0.00  0.00    +0.000 A 
ATOM      9  C   UNL     1     -10.376   7.557 128.767  0.00  0.00    +0.000 A 
ATOM     10  C   UNL     1      -9.505   6.479 128.648  0.00  0.00    +0.000 A 
ENDROOT
BRANCH   3  11
ATOM     11  N   UNL     1     -10.415   4.059 131.515  0.00  0.00    +0.000 N 
ATOM     12  C   UNL     1      -9.493   3.816 132.493  0.00  0.00    +0.000 C 
ATOM     13  N   UNL     1      -8.586   2.883 132.490  0.00  0.00    +0.000 NA
ATOM     14  C   UNL     1      -7.865   3.088 133.794  0.00  0.00    +0.000 C 
ATOM     15  C   UNL     1      -8.314   4.455 134.310  0.00  0.00    +0.000 C 
ATOM     16  N   UNL     1      -9.584   4.570 133.628  0.00  0.00    +0.000 N 
ATOM     17  H   UNL     1     -10.783   3.218 131.077  0.00  0.00    +0.000 HD
ATOM     18  H   UNL     1     -10.003   5.484 133.543  0.00  0.00    +0.000 HD
ENDBRANCH   3  11
TORSDOF 1
ENDMDL
MODEL 9
REMARK VINA RESULT:      -5.4      2.343      4.990
REMARK  Name = Tizanidine
REMARK  1 active torsions:
REMARK  status: ('A' for Active; 'I' for Inactive)
REMARK    1  A    between atoms: C_3  and  N_4
REMARK                            x       y       z     vdW  Elec       q    Type
REMARK                         _______ _______ _______ _____ _____    ______ ____
ROOT
ATOM      1 CL   UNL     1      -9.373   3.871 133.947  0.00  0.00    +0.000 Cl
ATOM      2  C   UNL     1      -8.665   3.960 132.369  0.00  0.00    +0.000 A 
ATOM      3  C   UNL     1      -9.409   4.128 131.160  0.00  0.00    +0.000 A 
ATOM      4  C   UNL     1      -8.558   4.056 129.995  0.00  0.00    +0.000 A 
ATOM      5  N   UNL     1      -8.957   4.163 128.712  0.00  0.00    +0.000 NA
ATOM      6  S   UNL     1      -7.593   4.036 127.764  0.00  0.00    +0.000 S 
ATOM      7  N   UNL     1      -6.424   3.833 128.918  0.00  0.00    +0.000 NA
ATOM      8  C   UNL     1      -7.053   3.860 130.101  0.00  0.00    +0.000 A 
ATOM      9  C   UNL     1      -6.410   3.732 131.345  0.00  0.00    +0.000 A 
ATOM     10  C   UNL     1      -7.255   3.785 132.448  0.00  0.00    +0.000 A 
ENDROOT
BRANCH   3  11
ATOM     11  N   UNL     1     -10.799   4.387 131.041  0.00  0.00    +0.000 N 
ATOM     12  C   UNL     1     -11.394   5.604 130.864  0.00  0.00    +0.000 C 
ATOM     13  N   UNL     1     -12.069   6.274 131.752  0.00  0.00    +0.000 NA
ATOM     14  C   UNL     1     -12.477   7.522 131.018  0.00  0.00    +0.000 C 
ATOM     15  C   UNL     1     -11.640   7.546 129.739  0.00  0.00    +0.000 C 
ATOM     16  N   UNL     1     -11.350   6.136 129.607  0.00  0.00    +0.000 N 
ATOM     17  H   UNL     1     -11.334   3.748 131.626  0.00  0.00    +0.000 HD
ATOM     18  H   UNL     1     -10.584   5.855 129.014  0.00  0.00    +0.000 HD
ENDBRANCH   3  11
TORSDOF 1
ENDMDL
