MODEL 1
REMARK VINA RESULT:      -6.5      0.000      0.000
REMARK  Name = Tobramycin
REMARK  16 active torsions:
REMARK  status: ('A' for Active; 'I' for Inactive)
REMARK    1  A    between atoms: N_1  and  C_2
REMARK    2  A    between atoms: C_2  and  C_3
REMARK    3  A    between atoms: C_5  and  O_6
REMARK    4  A    between atoms: O_6  and  C_7
REMARK    5  A    between atoms: C_8  and  N_9
REMARK    6  A    between atoms: C_11  and  N_12
REMARK    7  A    between atoms: C_13  and  O_14
REMARK    8  A    between atoms: O_14  and  C_15
REMARK    9  A    between atoms: C_17  and  C_18
REMARK   10  A    between atoms: C_18  and  O_19
REMARK   11  A    between atoms: C_20  and  O_21
REMARK   12  A    between atoms: C_22  and  N_23
REMARK   13  A    between atoms: C_24  and  O_25
REMARK   14  A    between atoms: C_26  and  O_27
REMARK   15  A    between atoms: C_28  and  N_29
REMARK   16  A    between atoms: C_31  and  O_32
REMARK                            x       y       z     vdW  Elec       q    Type
REMARK                         _______ _______ _______ _____ _____    ______ ____
ROOT
ATOM      1  C   UNL     1      -8.139   4.028 129.620  0.00  0.00    +0.000 C 
ATOM      2  C   UNL     1      -9.535   4.662 129.555  0.00  0.00    +0.000 C 
ATOM      3  C   UNL     1      -9.337   6.195 129.629  0.00  0.00    +0.000 C 
ATOM      4  C   UNL     1      -8.798   6.700 130.934  0.00  0.00    +0.000 C 
ATOM      5  C   UNL     1      -7.438   5.971 131.225  0.00  0.00    +0.000 C 
ATOM      6  C   UNL     1      -7.536   4.426 131.024  0.00  0.00    +0.000 C 
ENDROOT
BRANCH   2   7
ATOM      7  N   UNL     1     -10.678   4.074 130.240  0.00  0.00    +0.000 NA
ATOM      8  H   UNL     1     -10.664   3.128 130.524  0.00  0.00    +0.000 HD
ATOM      9  H   UNL     1     -11.539   4.280 129.715  0.00  0.00    +0.000 HD
ENDBRANCH   2   7
BRANCH   4  10
ATOM     10  N   UNL     1      -9.911   6.657 131.884  0.00  0.00    +0.000 NA
ATOM     11  H   UNL     1      -9.796   7.333 132.620  0.00  0.00    +0.000 HD
ATOM     12  H   UNL     1      -9.866   5.758 132.382  0.00  0.00    +0.000 HD
ENDBRANCH   4  10
BRANCH   6  13
ATOM     13  O   UNL     1      -8.286   3.824 132.093  0.00  0.00    +0.000 OA
ATOM     14  H   UNL     1      -7.792   3.927 132.899  0.00  0.00    +0.000 HD
ENDBRANCH   6  13
BRANCH   5  15
ATOM     15  O   UNL     1      -6.324   6.301 130.368  0.00  0.00    +0.000 OA
BRANCH  15  16
ATOM     16  C   UNL     1      -4.999   6.222 130.857  0.00  0.00    +0.000 C 
ATOM     17  O   UNL     1      -4.328   5.118 130.268  0.00  0.00    +0.000 OA
ATOM     18  C   UNL     1      -2.922   5.008 130.578  0.00  0.00    +0.000 C 
ATOM     19  C   UNL     1      -2.171   6.327 130.290  0.00  0.00    +0.000 C 
ATOM     20  C   UNL     1      -2.833   7.537 130.988  0.00  0.00    +0.000 C 
ATOM     21  C   UNL     1      -4.313   7.579 130.580  0.00  0.00    +0.000 C 
BRANCH  20  22
ATOM     22  N   UNL     1      -2.632   7.507 132.452  0.00  0.00    +0.000 NA
ATOM     23  H   UNL     1      -1.828   8.087 132.732  0.00  0.00    +0.000 HD
ATOM     24  H   UNL     1      -2.415   6.571 132.783  0.00  0.00    +0.000 HD
ENDBRANCH  20  22
BRANCH  21  25
ATOM     25  O   UNL     1      -4.439   8.001 129.215  0.00  0.00    +0.000 OA
ATOM     26  H   UNL     1      -5.313   8.420 129.121  0.00  0.00    +0.000 HD
ENDBRANCH  21  25
BRANCH  19  27
ATOM     27  O   UNL     1      -2.119   6.524 128.865  0.00  0.00    +0.000 OA
ATOM     28  H   UNL     1      -2.085   5.651 128.436  0.00  0.00    +0.000 HD
ENDBRANCH  19  27
BRANCH  18  29
ATOM     29  C   UNL     1      -2.649   4.423 131.981  0.00  0.00    +0.000 C 
BRANCH  29  30
ATOM     30  O   UNL     1      -1.328   4.677 132.458  0.00  0.00    +0.000 OA
ATOM     31  H   UNL     1      -0.792   3.934 132.126  0.00  0.00    +0.000 HD
ENDBRANCH  29  30
ENDBRANCH  18  29
ENDBRANCH  15  16
ENDBRANCH   5  15
BRANCH   1  32
ATOM     32  O   UNL     1      -7.400   4.558 128.469  0.00  0.00    +0.000 OA
BRANCH  32  35
ATOM     33  C   UNL     1      -7.757   2.830 125.893  0.00  0.00    +0.000 C 
ATOM     34  O   UNL     1      -6.980   2.545 127.076  0.00  0.00    +0.000 OA
ATOM     35  C   UNL     1      -6.449   3.660 127.809  0.00  0.00    +0.000 C 
ATOM     36  C   UNL     1      -5.548   4.430 126.798  0.00  0.00    +0.000 C 
ATOM     37  C   UNL     1      -6.373   4.839 125.563  0.00  0.00    +0.000 C 
ATOM     38  C   UNL     1      -7.012   3.632 124.841  0.00  0.00    +0.000 C 
BRANCH  36  39
ATOM     39  N   UNL     1      -4.874   5.582 127.402  0.00  0.00    +0.000 NA
ATOM     40  H   UNL     1      -5.109   6.432 126.885  0.00  0.00    +0.000 HD
ATOM     41  H   UNL     1      -3.863   5.473 127.352  0.00  0.00    +0.000 HD
ENDBRANCH  36  39
BRANCH  38  42
ATOM     42  O   UNL     1      -7.919   4.140 123.849  0.00  0.00    +0.000 OA
ATOM     43  H   UNL     1      -8.652   4.613 124.286  0.00  0.00    +0.000 HD
ENDBRANCH  38  42
BRANCH  33  44
ATOM     44  C   UNL     1      -8.704   1.642 125.547  0.00  0.00    +0.000 C 
BRANCH  44  45
ATOM     45  N   UNL     1      -9.826   2.035 124.688  0.00  0.00    +0.000 NA
ATOM     46  H   UNL     1     -10.172   2.951 124.969  0.00  0.00    +0.000 HD
ATOM     47  H   UNL     1     -10.596   1.389 124.895  0.00  0.00    +0.000 HD
ENDBRANCH  44  45
ENDBRANCH  33  44
ENDBRANCH  32  35
ENDBRANCH   1  32
TORSDOF 16
ENDMDL
MODEL 2
REMARK VINA RESULT:      -6.5      2.139      6.795
REMARK  Name = Tobramycin
REMARK  16 active torsions:
REMARK  status: ('A' for Active; 'I' for Inactive)
REMARK    1  A    between atoms: N_1  and  C_2
REMARK    2  A    between atoms: C_2  and  C_3
REMARK    3  A    between atoms: C_5  and  O_6
REMARK    4  A    between atoms: O_6  and  C_7
REMARK    5  A    between atoms: C_8  and  N_9
REMARK    6  A    between atoms: C_11  and  N_12
REMARK    7  A    between atoms: C_13  and  O_14
REMARK    8  A    between atoms: O_14  and  C_15
REMARK    9  A    between atoms: C_17  and  C_18
REMARK   10  A    between atoms: C_18  and  O_19
REMARK   11  A    between atoms: C_20  and  O_21
REMARK   12  A    between atoms: C_22  and  N_23
REMARK   13  A    between atoms: C_24  and  O_25
REMARK   14  A    between atoms: C_26  and  O_27
REMARK   15  A    between atoms: C_28  and  N_29
REMARK   16  A    between atoms: C_31  and  O_32
REMARK                            x       y       z     vdW  Elec       q    Type
REMARK                         _______ _______ _______ _____ _____    ______ ____
ROOT
ATOM      1  C   UNL     1      -5.039   4.727 129.979  0.00  0.00    +0.000 C 
ATOM      2  C   UNL     1      -4.230   5.968 130.384  0.00  0.00    +0.000 C 
ATOM      3  C   UNL     1      -4.255   6.935 129.176  0.00  0.00    +0.000 C 
ATOM      4  C   UNL     1      -3.530   6.443 127.959  0.00  0.00    +0.000 C 
ATOM      5  C   UNL     1      -4.140   5.056 127.545  0.00  0.00    +0.000 C 
ATOM      6  C   UNL     1      -4.277   4.081 128.756  0.00  0.00    +0.000 C 
ENDROOT
BRANCH   2   7
ATOM      7  N   UNL     1      -3.008   5.865 131.169  0.00  0.00    +0.000 NA
ATOM      8  H   UNL     1      -2.312   6.563 131.111  0.00  0.00    +0.000 HD
ATOM      9  H   UNL     1      -2.595   4.931 131.043  0.00  0.00    +0.000 HD
ENDBRANCH   2   7
BRANCH   4  10
ATOM     10  N   UNL     1      -2.102   6.602 128.236  0.00  0.00    +0.000 NA
ATOM     11  H   UNL     1      -1.869   7.559 128.443  0.00  0.00    +0.000 HD
ATOM     12  H   UNL     1      -1.588   6.420 127.364  0.00  0.00    +0.000 HD
ENDBRANCH   4  10
BRANCH   6  13
ATOM     13  O   UNL     1      -2.987   3.590 129.158  0.00  0.00    +0.000 OA
ATOM     14  H   UNL     1      -2.779   3.962 130.009  0.00  0.00    +0.000 HD
ENDBRANCH   6  13
BRANCH   5  15
ATOM     15  O   UNL     1      -5.488   5.063 127.027  0.00  0.00    +0.000 OA
BRANCH  15  16
ATOM     16  C   UNL     1      -5.897   4.088 126.089  0.00  0.00    +0.000 C 
ATOM     17  O   UNL     1      -6.784   3.164 126.702  0.00  0.00    +0.000 OA
ATOM     18  C   UNL     1      -7.386   2.198 125.815  0.00  0.00    +0.000 C 
ATOM     19  C   UNL     1      -8.054   2.879 124.600  0.00  0.00    +0.000 C 
ATOM     20  C   UNL     1      -7.084   3.830 123.861  0.00  0.00    +0.000 C 
ATOM     21  C   UNL     1      -6.517   4.828 124.881  0.00  0.00    +0.000 C 
BRANCH  20  22
ATOM     22  N   UNL     1      -6.038   3.089 123.126  0.00  0.00    +0.000 NA
ATOM     23  H   UNL     1      -5.109   3.239 123.544  0.00  0.00    +0.000 HD
ATOM     24  H   UNL     1      -5.954   3.412 122.165  0.00  0.00    +0.000 HD
ENDBRANCH  20  22
BRANCH  21  25
ATOM     25  O   UNL     1      -7.525   5.774 125.263  0.00  0.00    +0.000 OA
ATOM     26  H   UNL     1      -7.347   6.599 124.777  0.00  0.00    +0.000 HD
ENDBRANCH  21  25
BRANCH  19  27
ATOM     27  O   UNL     1      -9.219   3.590 125.055  0.00  0.00    +0.000 OA
ATOM     28  H   UNL     1      -9.076   4.541 124.908  0.00  0.00    +0.000 HD
ENDBRANCH  19  27
BRANCH  18  29
ATOM     29  C   UNL     1      -6.438   1.037 125.441  0.00  0.00    +0.000 C 
BRANCH  29  30
ATOM     30  O   UNL     1      -6.827   0.341 124.257  0.00  0.00    +0.000 OA
ATOM     31  H   UNL     1      -7.794   0.439 124.212  0.00  0.00    +0.000 HD
ENDBRANCH  29  30
ENDBRANCH  18  29
ENDBRANCH  15  16
ENDBRANCH   5  15
BRANCH   1  32
ATOM     32  O   UNL     1      -6.389   5.209 129.667  0.00  0.00    +0.000 OA
BRANCH  32  35
ATOM     33  C   UNL     1      -8.401   4.751 132.012  0.00  0.00    +0.000 C 
ATOM     34  O   UNL     1      -7.845   3.787 131.092  0.00  0.00    +0.000 OA
ATOM     35  C   UNL     1      -7.488   4.247 129.779  0.00  0.00    +0.000 C 
ATOM     36  C   UNL     1      -8.804   4.813 129.167  0.00  0.00    +0.000 C 
ATOM     37  C   UNL     1      -9.374   5.919 130.075  0.00  0.00    +0.000 C 
ATOM     38  C   UNL     1      -9.665   5.427 131.510  0.00  0.00    +0.000 C 
BRANCH  36  39
ATOM     39  N   UNL     1      -8.633   5.281 127.789  0.00  0.00    +0.000 NA
ATOM     40  H   UNL     1      -7.892   4.746 127.330  0.00  0.00    +0.000 HD
ATOM     41  H   UNL     1      -8.347   6.257 127.775  0.00  0.00    +0.000 HD
ENDBRANCH  36  39
BRANCH  38  42
ATOM     42  O   UNL     1      -9.983   6.574 132.315  0.00  0.00    +0.000 OA
ATOM     43  H   UNL     1      -9.910   6.344 133.260  0.00  0.00    +0.000 HD
ENDBRANCH  38  42
BRANCH  33  44
ATOM     44  C   UNL     1      -8.208   4.291 133.488  0.00  0.00    +0.000 C 
BRANCH  44  45
ATOM     45  N   UNL     1      -9.477   4.060 134.187  0.00  0.00    +0.000 NA
ATOM     46  H   UNL     1     -10.247   4.440 133.639  0.00  0.00    +0.000 HD
ATOM     47  H   UNL     1      -9.453   4.633 135.038  0.00  0.00    +0.000 HD
ENDBRANCH  44  45
ENDBRANCH  33  44
ENDBRANCH  32  35
ENDBRANCH   1  32
TORSDOF 16
ENDMDL
MODEL 3
REMARK VINA RESULT:      -6.3      3.884      6.168
REMARK  Name = Tobramycin
REMARK  16 active torsions:
REMARK  status: ('A' for Active; 'I' for Inactive)
REMARK    1  A    between atoms: N_1  and  C_2
REMARK    2  A    between atoms: C_2  and  C_3
REMARK    3  A    between atoms: C_5  and  O_6
REMARK    4  A    between atoms: O_6  and  C_7
REMARK    5  A    between atoms: C_8  and  N_9
REMARK    6  A    between atoms: C_11  and  N_12
REMARK    7  A    between atoms: C_13  and  O_14
REMARK    8  A    between atoms: O_14  and  C_15
REMARK    9  A    between atoms: C_17  and  C_18
REMARK   10  A    between atoms: C_18  and  O_19
REMARK   11  A    between atoms: C_20  and  O_21
REMARK   12  A    between atoms: C_22  and  N_23
REMARK   13  A    between atoms: C_24  and  O_25
REMARK   14  A    between atoms: C_26  and  O_27
REMARK   15  A    between atoms: C_28  and  N_29
REMARK   16  A    between atoms: C_31  and  O_32
REMARK                            x       y       z     vdW  Elec       q    Type
REMARK                         _______ _______ _______ _____ _____    ______ ____
ROOT
ATOM      1  C   UNL     1      -8.596   1.572 125.385  0.00  0.00    +0.000 C 
ATOM      2  C   UNL     1      -8.796   1.358 123.878  0.00  0.00    +0.000 C 
ATOM      3  C   UNL     1      -7.408   1.525 123.212  0.00  0.00    +0.000 C 
ATOM      4  C   UNL     1      -6.837   2.909 123.282  0.00  0.00    +0.000 C 
ATOM      5  C   UNL     1      -6.760   3.338 124.791  0.00  0.00    +0.000 C 
ATOM      6  C   UNL     1      -8.090   3.059 125.558  0.00  0.00    +0.000 C 
ENDROOT
BRANCH   2   7
ATOM      7  N   UNL     1      -9.969   1.864 123.179  0.00  0.00    +0.000 NA
ATOM      8  H   UNL     1     -10.417   2.691 123.480  0.00  0.00    +0.000 HD
ATOM      9  H   UNL     1     -10.654   1.105 123.060  0.00  0.00    +0.000 HD
ENDBRANCH   2   7
BRANCH   4  10
ATOM     10  N   UNL     1      -7.564   3.706 122.293  0.00  0.00    +0.000 NA
ATOM     11  H   UNL     1      -8.309   4.232 122.716  0.00  0.00    +0.000 HD
ATOM     12  H   UNL     1      -8.060   3.057 121.667  0.00  0.00    +0.000 HD
ENDBRANCH   4  10
BRANCH   6  13
ATOM     13  O   UNL     1      -9.108   3.994 125.163  0.00  0.00    +0.000 OA
ATOM     14  H   UNL     1      -8.857   4.857 125.477  0.00  0.00    +0.000 HD
ENDBRANCH   6  13
BRANCH   5  15
ATOM     15  O   UNL     1      -5.800   2.647 125.619  0.00  0.00    +0.000 OA
BRANCH  15  16
ATOM     16  C   UNL     1      -4.782   3.368 126.284  0.00  0.00    +0.000 C 
ATOM     17  O   UNL     1      -5.338   4.125 127.350  0.00  0.00    +0.000 OA
ATOM     18  C   UNL     1      -4.383   4.798 128.198  0.00  0.00    +0.000 C 
ATOM     19  C   UNL     1      -3.300   3.827 128.718  0.00  0.00    +0.000 C 
ATOM     20  C   UNL     1      -2.618   3.048 127.571  0.00  0.00    +0.000 C 
ATOM     21  C   UNL     1      -3.710   2.353 126.744  0.00  0.00    +0.000 C 
BRANCH  20  22
ATOM     22  N   UNL     1      -1.737   3.916 126.761  0.00  0.00    +0.000 NA
ATOM     23  H   UNL     1      -1.866   3.744 125.754  0.00  0.00    +0.000 HD
ATOM     24  H   UNL     1      -0.755   3.727 126.942  0.00  0.00    +0.000 HD
ENDBRANCH  20  22
BRANCH  21  25
ATOM     25  O   UNL     1      -4.262   1.251 127.477  0.00  0.00    +0.000 OA
ATOM     26  H   UNL     1      -3.878   1.278 128.372  0.00  0.00    +0.000 HD
ENDBRANCH  21  25
BRANCH  19  27
ATOM     27  O   UNL     1      -3.908   2.924 129.660  0.00  0.00    +0.000 OA
ATOM     28  H   UNL     1      -3.295   2.800 130.406  0.00  0.00    +0.000 HD
ENDBRANCH  19  27
BRANCH  18  29
ATOM     29  C   UNL     1      -3.818   6.093 127.575  0.00  0.00    +0.000 C 
BRANCH  29  30
ATOM     30  O   UNL     1      -2.568   6.496 128.132  0.00  0.00    +0.000 OA
ATOM     31  H   UNL     1      -1.894   6.145 127.523  0.00  0.00    +0.000 HD
ENDBRANCH  29  30
ENDBRANCH  18  29
ENDBRANCH  15  16
ENDBRANCH   5  15
BRANCH   1  32
ATOM     32  O   UNL     1      -7.636   0.550 125.815  0.00  0.00    +0.000 OA
BRANCH  32  35
ATOM     33  C   UNL     1      -7.986  -2.186 124.353  0.00  0.00    +0.000 C 
ATOM     34  O   UNL     1      -8.813  -1.592 125.376  0.00  0.00    +0.000 OA
ATOM     35  C   UNL     1      -8.180  -0.713 126.318  0.00  0.00    +0.000 C 
ATOM     36  C   UNL     1      -7.078  -1.572 127.009  0.00  0.00    +0.000 C 
ATOM     37  C   UNL     1      -6.114  -2.141 125.951  0.00  0.00    +0.000 C 
ATOM     38  C   UNL     1      -6.830  -3.009 124.893  0.00  0.00    +0.000 C 
BRANCH  36  39
ATOM     39  N   UNL     1      -6.360  -0.838 128.054  0.00  0.00    +0.000 NA
ATOM     40  H   UNL     1      -6.559  -1.251 128.968  0.00  0.00    +0.000 HD
ATOM     41  H   UNL     1      -6.671   0.131 128.091  0.00  0.00    +0.000 HD
ENDBRANCH  36  39
BRANCH  38  42
ATOM     42  O   UNL     1      -5.884  -3.305 123.852  0.00  0.00    +0.000 OA
ATOM     43  H   UNL     1      -5.734  -2.510 123.308  0.00  0.00    +0.000 HD
ENDBRANCH  38  42
BRANCH  33  44
ATOM     44  C   UNL     1      -8.841  -2.620 123.124  0.00  0.00    +0.000 C 
BRANCH  44  45
ATOM     45  N   UNL     1     -10.021  -3.408 123.497  0.00  0.00    +0.000 NA
ATOM     46  H   UNL     1     -10.868  -2.898 123.250  0.00  0.00    +0.000 HD
ATOM     47  H   UNL     1     -10.032  -3.455 124.522  0.00  0.00    +0.000 HD
ENDBRANCH  44  45
ENDBRANCH  33  44
ENDBRANCH  32  35
ENDBRANCH   1  32
TORSDOF 16
ENDMDL
MODEL 4
REMARK VINA RESULT:      -6.3      2.424      5.323
REMARK  Name = Tobramycin
REMARK  16 active torsions:
REMARK  status: ('A' for Active; 'I' for Inactive)
REMARK    1  A    between atoms: N_1  and  C_2
REMARK    2  A    between atoms: C_2  and  C_3
REMARK    3  A    between atoms: C_5  and  O_6
REMARK    4  A    between atoms: O_6  and  C_7
REMARK    5  A    between atoms: C_8  and  N_9
REMARK    6  A    between atoms: C_11  and  N_12
REMARK    7  A    between atoms: C_13  and  O_14
REMARK    8  A    between atoms: O_14  and  C_15
REMARK    9  A    between atoms: C_17  and  C_18
REMARK   10  A    between atoms: C_18  and  O_19
REMARK   11  A    between atoms: C_20  and  O_21
REMARK   12  A    between atoms: C_22  and  N_23
REMARK   13  A    between atoms: C_24  and  O_25
REMARK   14  A    between atoms: C_26  and  O_27
REMARK   15  A    between atoms: C_28  and  N_29
REMARK   16  A    between atoms: C_31  and  O_32
REMARK                            x       y       z     vdW  Elec       q    Type
REMARK                         _______ _______ _______ _____ _____    ______ ____
ROOT
ATOM      1  C   UNL     1      -4.554   4.385 126.562  0.00  0.00    +0.000 C 
ATOM      2  C   UNL     1      -3.467   3.448 127.108  0.00  0.00    +0.000 C 
ATOM      3  C   UNL     1      -4.019   2.833 128.416  0.00  0.00    +0.000 C 
ATOM      4  C   UNL     1      -4.218   3.808 129.538  0.00  0.00    +0.000 C 
ATOM      5  C   UNL     1      -5.175   4.950 129.039  0.00  0.00    +0.000 C 
ATOM      6  C   UNL     1      -4.752   5.515 127.647  0.00  0.00    +0.000 C 
ENDROOT
BRANCH   2   7
ATOM      7  N   UNL     1      -2.054   3.792 127.042  0.00  0.00    +0.000 NA
ATOM      8  H   UNL     1      -1.650   4.395 127.713  0.00  0.00    +0.000 HD
ATOM      9  H   UNL     1      -1.817   4.102 126.090  0.00  0.00    +0.000 HD
ENDBRANCH   2   7
BRANCH   4  10
ATOM     10  N   UNL     1      -2.887   4.100 130.072  0.00  0.00    +0.000 NA
ATOM     11  H   UNL     1      -2.210   4.216 129.336  0.00  0.00    +0.000 HD
ATOM     12  H   UNL     1      -2.553   3.262 130.566  0.00  0.00    +0.000 HD
ENDBRANCH   4  10
BRANCH   6  13
ATOM     13  O   UNL     1      -3.568   6.322 127.768  0.00  0.00    +0.000 OA
ATOM     14  H   UNL     1      -3.762   7.051 128.347  0.00  0.00    +0.000 HD
ENDBRANCH   6  13
BRANCH   5  15
ATOM     15  O   UNL     1      -6.551   4.589 128.797  0.00  0.00    +0.000 OA
BRANCH  15  16
ATOM     16  C   UNL     1      -7.552   4.918 129.740  0.00  0.00    +0.000 C 
ATOM     17  O   UNL     1      -7.265   6.176 130.335  0.00  0.00    +0.000 OA
ATOM     18  C   UNL     1      -8.285   6.695 131.214  0.00  0.00    +0.000 C 
ATOM     19  C   UNL     1      -9.671   6.711 130.533  0.00  0.00    +0.000 C 
ATOM     20  C   UNL     1     -10.047   5.331 129.948  0.00  0.00    +0.000 C 
ATOM     21  C   UNL     1      -8.915   4.878 129.012  0.00  0.00    +0.000 C 
BRANCH  20  22
ATOM     22  N   UNL     1     -10.357   4.348 131.007  0.00  0.00    +0.000 NA
ATOM     23  H   UNL     1      -9.593   4.285 131.695  0.00  0.00    +0.000 HD
ATOM     24  H   UNL     1     -10.456   3.408 130.631  0.00  0.00    +0.000 HD
ENDBRANCH  20  22
BRANCH  21  25
ATOM     25  O   UNL     1      -8.929   5.653 127.806  0.00  0.00    +0.000 OA
ATOM     26  H   UNL     1      -8.076   5.509 127.359  0.00  0.00    +0.000 HD
ENDBRANCH  21  25
BRANCH  19  27
ATOM     27  O   UNL     1      -9.664   7.718 129.504  0.00  0.00    +0.000 OA
ATOM     28  H   UNL     1     -10.212   7.403 128.763  0.00  0.00    +0.000 HD
ENDBRANCH  19  27
BRANCH  18  29
ATOM     29  C   UNL     1      -8.280   6.035 132.611  0.00  0.00    +0.000 C 
BRANCH  29  30
ATOM     30  O   UNL     1      -9.479   6.259 133.352  0.00  0.00    +0.000 OA
ATOM     31  H   UNL     1      -9.645   7.216 133.283  0.00  0.00    +0.000 HD
ENDBRANCH  29  30
ENDBRANCH  18  29
ENDBRANCH  15  16
ENDBRANCH   5  15
BRANCH   1  32
ATOM     32  O   UNL     1      -5.736   3.545 126.337  0.00  0.00    +0.000 OA
BRANCH  32  35
ATOM     33  C   UNL     1      -7.792   1.367 125.458  0.00  0.00    +0.000 C 
ATOM     34  O   UNL     1      -6.362   1.396 125.262  0.00  0.00    +0.000 OA
ATOM     35  C   UNL     1      -5.731   2.681 125.154  0.00  0.00    +0.000 C 
ATOM     36  C   UNL     1      -6.413   3.378 123.938  0.00  0.00    +0.000 C 
ATOM     37  C   UNL     1      -7.935   3.454 124.161  0.00  0.00    +0.000 C 
ATOM     38  C   UNL     1      -8.582   2.067 124.366  0.00  0.00    +0.000 C 
BRANCH  36  39
ATOM     39  N   UNL     1      -5.843   4.696 123.648  0.00  0.00    +0.000 NA
ATOM     40  H   UNL     1      -5.454   4.705 122.702  0.00  0.00    +0.000 HD
ATOM     41  H   UNL     1      -5.078   4.905 124.286  0.00  0.00    +0.000 HD
ENDBRANCH  36  39
BRANCH  38  42
ATOM     42  O   UNL     1      -9.945   2.271 124.773  0.00  0.00    +0.000 OA
ATOM     43  H   UNL     1     -10.246   1.512 125.307  0.00  0.00    +0.000 HD
ENDBRANCH  38  42
BRANCH  33  44
ATOM     44  C   UNL     1      -8.240   0.022 126.105  0.00  0.00    +0.000 C 
BRANCH  44  45
ATOM     45  N   UNL     1      -9.423  -0.559 125.460  0.00  0.00    +0.000 NA
ATOM     46  H   UNL     1      -9.799   0.095 124.777  0.00  0.00    +0.000 HD
ATOM     47  H   UNL     1     -10.148  -0.629 126.184  0.00  0.00    +0.000 HD
ENDBRANCH  44  45
ENDBRANCH  33  44
ENDBRANCH  32  35
ENDBRANCH   1  32
TORSDOF 16
ENDMDL
MODEL 5
REMARK VINA RESULT:      -6.2      3.686      6.277
REMARK  Name = Tobramycin
REMARK  16 active torsions:
REMARK  status: ('A' for Active; 'I' for Inactive)
REMARK    1  A    between atoms: N_1  and  C_2
REMARK    2  A    between atoms: C_2  and  C_3
REMARK    3  A    between atoms: C_5  and  O_6
REMARK    4  A    between atoms: O_6  and  C_7
REMARK    5  A    between atoms: C_8  and  N_9
REMARK    6  A    between atoms: C_11  and  N_12
REMARK    7  A    between atoms: C_13  and  O_14
REMARK    8  A    between atoms: O_14  and  C_15
REMARK    9  A    between atoms: C_17  and  C_18
REMARK   10  A    between atoms: C_18  and  O_19
REMARK   11  A    between atoms: C_20  and  O_21
REMARK   12  A    between atoms: C_22  and  N_23
REMARK   13  A    between atoms: C_24  and  O_25
REMARK   14  A    between atoms: C_26  and  O_27
REMARK   15  A    between atoms: C_28  and  N_29
REMARK   16  A    between atoms: C_31  and  O_32
REMARK                            x       y       z     vdW  Elec       q    Type
REMARK                         _______ _______ _______ _____ _____    ______ ____
ROOT
ATOM      1  C   UNL     1     -10.076   4.911 131.775  0.00  0.00    +0.000 C 
ATOM      2  C   UNL     1      -8.848   5.527 132.461  0.00  0.00    +0.000 C 
ATOM      3  C   UNL     1      -7.648   5.316 131.507  0.00  0.00    +0.000 C 
ATOM      4  C   UNL     1      -7.241   3.886 131.311  0.00  0.00    +0.000 C 
ATOM      5  C   UNL     1      -8.486   3.084 130.788  0.00  0.00    +0.000 C 
ATOM      6  C   UNL     1      -9.772   3.368 131.625  0.00  0.00    +0.000 C 
ENDROOT
BRANCH   2   7
ATOM      7  N   UNL     1      -8.628   5.406 133.895  0.00  0.00    +0.000 NA
ATOM      8  H   UNL     1      -7.748   5.620 134.289  0.00  0.00    +0.000 HD
ATOM      9  H   UNL     1      -8.954   4.485 134.218  0.00  0.00    +0.000 HD
ENDBRANCH   2   7
BRANCH   4  10
ATOM     10  N   UNL     1      -6.526   3.490 132.524  0.00  0.00    +0.000 NA
ATOM     11  H   UNL     1      -6.873   2.620 132.891  0.00  0.00    +0.000 HD
ATOM     12  H   UNL     1      -6.761   4.166 133.264  0.00  0.00    +0.000 HD
ENDBRANCH   4  10
BRANCH   6  13
ATOM     13  O   UNL     1      -9.686   2.735 132.913  0.00  0.00    +0.000 OA
ATOM     14  H   UNL     1      -8.783   2.784 133.209  0.00  0.00    +0.000 HD
ENDBRANCH   6  13
BRANCH   5  15
ATOM     15  O   UNL     1      -8.942   3.383 129.451  0.00  0.00    +0.000 OA
BRANCH  15  16
ATOM     16  C   UNL     1      -8.197   2.949 128.330  0.00  0.00    +0.000 C 
ATOM     17  O   UNL     1      -8.991   2.094 127.519  0.00  0.00    +0.000 OA
ATOM     18  C   UNL     1      -8.394   1.693 126.268  0.00  0.00    +0.000 C 
ATOM     19  C   UNL     1      -7.896   2.911 125.459  0.00  0.00    +0.000 C 
ATOM     20  C   UNL     1      -6.960   3.818 126.292  0.00  0.00    +0.000 C 
ATOM     21  C   UNL     1      -7.691   4.206 127.586  0.00  0.00    +0.000 C 
BRANCH  20  22
ATOM     22  N   UNL     1      -5.647   3.185 126.531  0.00  0.00    +0.000 NA
ATOM     23  H   UNL     1      -5.237   2.829 125.655  0.00  0.00    +0.000 HD
ATOM     24  H   UNL     1      -5.725   2.373 127.139  0.00  0.00    +0.000 HD
ENDBRANCH  20  22
BRANCH  21  25
ATOM     25  O   UNL     1      -8.736   5.147 127.302  0.00  0.00    +0.000 OA
ATOM     26  H   UNL     1      -9.050   5.496 128.156  0.00  0.00    +0.000 HD
ENDBRANCH  21  25
BRANCH  19  27
ATOM     27  O   UNL     1      -9.038   3.649 124.989  0.00  0.00    +0.000 OA
ATOM     28  H   UNL     1      -9.014   4.538 125.386  0.00  0.00    +0.000 HD
ENDBRANCH  19  27
BRANCH  18  29
ATOM     29  C   UNL     1      -7.345   0.570 126.422  0.00  0.00    +0.000 C 
BRANCH  29  30
ATOM     30  O   UNL     1      -6.450   0.469 125.316  0.00  0.00    +0.000 OA
ATOM     31  H   UNL     1      -7.021   0.468 124.527  0.00  0.00    +0.000 HD
ENDBRANCH  29  30
ENDBRANCH  18  29
ENDBRANCH  15  16
ENDBRANCH   5  15
BRANCH   1  32
ATOM     32  O   UNL     1     -10.232   5.625 130.505  0.00  0.00    +0.000 OA
BRANCH  32  35
ATOM     33  C   UNL     1     -11.338   7.505 128.269  0.00  0.00    +0.000 C 
ATOM     34  O   UNL     1     -10.462   7.823 129.371  0.00  0.00    +0.000 OA
ATOM     35  C   UNL     1     -10.588   7.045 130.571  0.00  0.00    +0.000 C 
ATOM     36  C   UNL     1     -12.062   7.240 131.038  0.00  0.00    +0.000 C 
ATOM     37  C   UNL     1     -13.030   6.812 129.919  0.00  0.00    +0.000 C 
ATOM     38  C   UNL     1     -12.816   7.599 128.607  0.00  0.00    +0.000 C 
BRANCH  36  39
ATOM     39  N   UNL     1     -12.354   6.549 132.297  0.00  0.00    +0.000 NA
ATOM     40  H   UNL     1     -13.280   6.119 132.251  0.00  0.00    +0.000 HD
ATOM     41  H   UNL     1     -12.370   7.208 133.072  0.00  0.00    +0.000 HD
ENDBRANCH  36  39
BRANCH  38  42
ATOM     42  O   UNL     1     -13.613   6.978 127.584  0.00  0.00    +0.000 OA
ATOM     43  H   UNL     1     -13.502   6.010 127.623  0.00  0.00    +0.000 HD
ENDBRANCH  38  42
BRANCH  33  44
ATOM     44  C   UNL     1     -10.739   7.996 126.918  0.00  0.00    +0.000 C 
BRANCH  44  45
ATOM     45  N   UNL     1     -10.714   6.952 125.888  0.00  0.00    +0.000 NA
ATOM     46  H   UNL     1     -11.641   6.847 125.480  0.00  0.00    +0.000 HD
ATOM     47  H   UNL     1     -10.539   6.065 126.373  0.00  0.00    +0.000 HD
ENDBRANCH  44  45
ENDBRANCH  33  44
ENDBRANCH  32  35
ENDBRANCH   1  32
TORSDOF 16
ENDMDL
MODEL 6
REMARK VINA RESULT:      -6.2      2.609      5.668
REMARK  Name = Tobramycin
REMARK  16 active torsions:
REMARK  status: ('A' for Active; 'I' for Inactive)
REMARK    1  A    between atoms: N_1  and  C_2
REMARK    2  A    between atoms: C_2  and  C_3
REMARK    3  A    between atoms: C_5  and  O_6
REMARK    4  A    between atoms: O_6  and  C_7
REMARK    5  A    between atoms: C_8  and  N_9
REMARK    6  A    between atoms: C_11  and  N_12
REMARK    7  A    between atoms: C_13  and  O_14
REMARK    8  A    between atoms: O_14  and  C_15
REMARK    9  A    between atoms: C_17  and  C_18
REMARK   10  A    between atoms: C_18  and  O_19
REMARK   11  A    between atoms: C_20  and  O_21
REMARK   12  A    between atoms: C_22  and  N_23
REMARK   13  A    between atoms: C_24  and  O_25
REMARK   14  A    between atoms: C_26  and  O_27
REMARK   15  A    between atoms: C_28  and  N_29
REMARK   16  A    between atoms: C_31  and  O_32
REMARK                            x       y       z     vdW  Elec       q    Type
REMARK                         _______ _______ _______ _____ _____    ______ ____
ROOT
ATOM      1  C   UNL     1      -4.636   4.055 126.498  0.00  0.00    +0.000 C 
ATOM      2  C   UNL     1      -3.977   2.726 126.894  0.00  0.00    +0.000 C 
ATOM      3  C   UNL     1      -4.843   2.113 128.022  0.00  0.00    +0.000 C 
ATOM      4  C   UNL     1      -4.843   2.885 129.307  0.00  0.00    +0.000 C 
ATOM      5  C   UNL     1      -5.318   4.352 129.005  0.00  0.00    +0.000 C 
ATOM      6  C   UNL     1      -4.581   4.976 127.780  0.00  0.00    +0.000 C 
ENDROOT
BRANCH   2   7
ATOM      7  N   UNL     1      -2.530   2.577 126.968  0.00  0.00    +0.000 NA
ATOM      8  H   UNL     1      -2.125   1.722 127.252  0.00  0.00    +0.000 HD
ATOM      9  H   UNL     1      -2.130   3.361 127.502  0.00  0.00    +0.000 HD
ENDBRANCH   2   7
BRANCH   4  10
ATOM     10  N   UNL     1      -3.558   2.612 129.953  0.00  0.00    +0.000 NA
ATOM     11  H   UNL     1      -2.791   2.999 129.430  0.00  0.00    +0.000 HD
ATOM     12  H   UNL     1      -3.388   1.598 129.902  0.00  0.00    +0.000 HD
ENDBRANCH   4  10
BRANCH   6  13
ATOM     13  O   UNL     1      -3.222   5.301 128.119  0.00  0.00    +0.000 OA
ATOM     14  H   UNL     1      -2.754   4.489 128.282  0.00  0.00    +0.000 HD
ENDBRANCH   6  13
BRANCH   5  15
ATOM     15  O   UNL     1      -6.701   4.525 128.628  0.00  0.00    +0.000 OA
BRANCH  15  16
ATOM     16  C   UNL     1      -7.664   4.890 129.597  0.00  0.00    +0.000 C 
ATOM     17  O   UNL     1      -7.308   6.127 130.197  0.00  0.00    +0.000 OA
ATOM     18  C   UNL     1      -8.283   6.681 131.105  0.00  0.00    +0.000 C 
ATOM     19  C   UNL     1      -9.682   6.767 130.456  0.00  0.00    +0.000 C 
ATOM     20  C   UNL     1     -10.133   5.410 129.867  0.00  0.00    +0.000 C 
ATOM     21  C   UNL     1      -9.044   4.918 128.901  0.00  0.00    +0.000 C 
BRANCH  20  22
ATOM     22  N   UNL     1     -10.462   4.431 130.923  0.00  0.00    +0.000 NA
ATOM     23  H   UNL     1     -11.295   3.879 130.676  0.00  0.00    +0.000 HD
ATOM     24  H   UNL     1     -10.695   4.889 131.801  0.00  0.00    +0.000 HD
ENDBRANCH  20  22
BRANCH  21  25
ATOM     25  O   UNL     1      -9.050   5.705 127.703  0.00  0.00    +0.000 OA
ATOM     26  H   UNL     1      -9.395   5.141 126.988  0.00  0.00    +0.000 HD
ENDBRANCH  21  25
BRANCH  19  27
ATOM     27  O   UNL     1      -9.654   7.783 129.437  0.00  0.00    +0.000 OA
ATOM     28  H   UNL     1      -9.513   7.350 128.576  0.00  0.00    +0.000 HD
ENDBRANCH  19  27
BRANCH  18  29
ATOM     29  C   UNL     1      -8.277   6.008 132.495  0.00  0.00    +0.000 C 
BRANCH  29  30
ATOM     30  O   UNL     1      -9.470   6.233 133.244  0.00  0.00    +0.000 OA
ATOM     31  H   UNL     1      -9.199   6.800 133.988  0.00  0.00    +0.000 HD
ENDBRANCH  29  30
ENDBRANCH  18  29
ENDBRANCH  15  16
ENDBRANCH   5  15
BRANCH   1  32
ATOM     32  O   UNL     1      -5.991   3.717 126.050  0.00  0.00    +0.000 OA
BRANCH  32  35
ATOM     33  C   UNL     1      -5.465   4.260 123.020  0.00  0.00    +0.000 C 
ATOM     34  O   UNL     1      -5.886   5.183 124.048  0.00  0.00    +0.000 OA
ATOM     35  C   UNL     1      -6.652   4.657 125.142  0.00  0.00    +0.000 C 
ATOM     36  C   UNL     1      -7.921   4.025 124.494  0.00  0.00    +0.000 C 
ATOM     37  C   UNL     1      -7.508   2.960 123.461  0.00  0.00    +0.000 C 
ATOM     38  C   UNL     1      -6.608   3.526 122.341  0.00  0.00    +0.000 C 
BRANCH  36  39
ATOM     39  N   UNL     1      -8.853   3.484 125.486  0.00  0.00    +0.000 NA
ATOM     40  H   UNL     1      -9.785   3.396 125.074  0.00  0.00    +0.000 HD
ATOM     41  H   UNL     1      -8.937   4.113 126.281  0.00  0.00    +0.000 HD
ENDBRANCH  36  39
BRANCH  38  42
ATOM     42  O   UNL     1      -6.116   2.419 121.568  0.00  0.00    +0.000 OA
ATOM     43  H   UNL     1      -5.876   1.684 122.162  0.00  0.00    +0.000 HD
ENDBRANCH  38  42
BRANCH  33  44
ATOM     44  C   UNL     1      -4.226   4.808 122.250  0.00  0.00    +0.000 C 
BRANCH  44  45
ATOM     45  N   UNL     1      -4.583   5.767 121.199  0.00  0.00    +0.000 NA
ATOM     46  H   UNL     1      -5.358   6.350 121.512  0.00  0.00    +0.000 HD
ATOM     47  H   UNL     1      -4.964   5.220 120.419  0.00  0.00    +0.000 HD
ENDBRANCH  44  45
ENDBRANCH  33  44
ENDBRANCH  32  35
ENDBRANCH   1  32
TORSDOF 16
ENDMDL
MODEL 7
REMARK VINA RESULT:      -6.1      3.160      5.121
REMARK  Name = Tobramycin
REMARK  16 active torsions:
REMARK  status: ('A' for Active; 'I' for Inactive)
REMARK    1  A    between atoms: N_1  and  C_2
REMARK    2  A    between atoms: C_2  and  C_3
REMARK    3  A    between atoms: C_5  and  O_6
REMARK    4  A    between atoms: O_6  and  C_7
REMARK    5  A    between atoms: C_8  and  N_9
REMARK    6  A    between atoms: C_11  and  N_12
REMARK    7  A    between atoms: C_13  and  O_14
REMARK    8  A    between atoms: O_14  and  C_15
REMARK    9  A    between atoms: C_17  and  C_18
REMARK   10  A    between atoms: C_18  and  O_19
REMARK   11  A    between atoms: C_20  and  O_21
REMARK   12  A    between atoms: C_22  and  N_23
REMARK   13  A    between atoms: C_24  and  O_25
REMARK   14  A    between atoms: C_26  and  O_27
REMARK   15  A    between atoms: C_28  and  N_29
REMARK   16  A    between atoms: C_31  and  O_32
REMARK                            x       y       z     vdW  Elec       q    Type
REMARK                         _______ _______ _______ _____ _____    ______ ____
ROOT
ATOM      1  C   UNL     1      -5.260   1.946 127.353  0.00  0.00    +0.000 C 
ATOM      2  C   UNL     1      -5.885   0.555 127.533  0.00  0.00    +0.000 C 
ATOM      3  C   UNL     1      -7.133   0.736 128.429  0.00  0.00    +0.000 C 
ATOM      4  C   UNL     1      -6.843   1.159 129.839  0.00  0.00    +0.000 C 
ATOM      5  C   UNL     1      -6.019   2.495 129.795  0.00  0.00    +0.000 C 
ATOM      6  C   UNL     1      -4.824   2.426 128.793  0.00  0.00    +0.000 C 
ENDROOT
BRANCH   2   7
ATOM      7  N   UNL     1      -5.068  -0.637 127.709  0.00  0.00    +0.000 NA
ATOM      8  H   UNL     1      -5.125  -1.386 127.068  0.00  0.00    +0.000 HD
ATOM      9  H   UNL     1      -5.161  -0.980 128.674  0.00  0.00    +0.000 HD
ENDBRANCH   2   7
BRANCH   4  10
ATOM     10  N   UNL     1      -6.343  -0.029 130.531  0.00  0.00    +0.000 NA
ATOM     11  H   UNL     1      -5.369   0.060 130.763  0.00  0.00    +0.000 HD
ATOM     12  H   UNL     1      -6.355  -0.813 129.864  0.00  0.00    +0.000 HD
ENDBRANCH   4  10
BRANCH   6  13
ATOM     13  O   UNL     1      -3.775   1.592 129.314  0.00  0.00    +0.000 OA
ATOM     14  H   UNL     1      -3.381   1.121 128.587  0.00  0.00    +0.000 HD
ENDBRANCH   6  13
BRANCH   5  15
ATOM     15  O   UNL     1      -6.712   3.675 129.335  0.00  0.00    +0.000 OA
BRANCH  15  16
ATOM     16  C   UNL     1      -7.664   4.312 130.163  0.00  0.00    +0.000 C 
ATOM     17  O   UNL     1      -7.121   5.510 130.699  0.00  0.00    +0.000 OA
ATOM     18  C   UNL     1      -8.042   6.328 131.451  0.00  0.00    +0.000 C 
ATOM     19  C   UNL     1      -9.331   6.618 130.650  0.00  0.00    +0.000 C 
ATOM     20  C   UNL     1      -9.992   5.323 130.124  0.00  0.00    +0.000 C 
ATOM     21  C   UNL     1      -8.942   4.537 129.323  0.00  0.00    +0.000 C 
BRANCH  20  22
ATOM     22  N   UNL     1     -10.605   4.534 131.213  0.00  0.00    +0.000 NA
ATOM     23  H   UNL     1     -11.080   5.143 131.895  0.00  0.00    +0.000 HD
ATOM     24  H   UNL     1      -9.906   4.025 131.749  0.00  0.00    +0.000 HD
ENDBRANCH  20  22
BRANCH  21  25
ATOM     25  O   UNL     1      -8.682   5.190 128.073  0.00  0.00    +0.000 OA
ATOM     26  H   UNL     1      -8.539   6.134 128.264  0.00  0.00    +0.000 HD
ENDBRANCH  21  25
BRANCH  19  27
ATOM     27  O   UNL     1      -9.007   7.504 129.564  0.00  0.00    +0.000 OA
ATOM     28  H   UNL     1      -8.107   7.297 129.256  0.00  0.00    +0.000 HD
ENDBRANCH  19  27
BRANCH  18  29
ATOM     29  C   UNL     1      -8.296   5.806 132.882  0.00  0.00    +0.000 C 
BRANCH  29  30
ATOM     30  O   UNL     1      -9.493   6.313 133.470  0.00  0.00    +0.000 OA
ATOM     31  H   UNL     1     -10.064   6.550 132.718  0.00  0.00    +0.000 HD
ENDBRANCH  29  30
ENDBRANCH  18  29
ENDBRANCH  15  16
ENDBRANCH   5  15
BRANCH   1  32
ATOM     32  O   UNL     1      -6.293   2.775 126.723  0.00  0.00    +0.000 OA
BRANCH  32  35
ATOM     33  C   UNL     1      -7.918   1.353 124.468  0.00  0.00    +0.000 C 
ATOM     34  O   UNL     1      -6.553   1.823 124.444  0.00  0.00    +0.000 OA
ATOM     35  C   UNL     1      -6.222   2.950 125.271  0.00  0.00    +0.000 C 
ATOM     36  C   UNL     1      -7.152   4.104 124.790  0.00  0.00    +0.000 C 
ATOM     37  C   UNL     1      -8.627   3.671 124.898  0.00  0.00    +0.000 C 
ATOM     38  C   UNL     1      -8.942   2.403 124.074  0.00  0.00    +0.000 C 
BRANCH  36  39
ATOM     39  N   UNL     1      -6.906   5.362 125.499  0.00  0.00    +0.000 NA
ATOM     40  H   UNL     1      -7.242   6.148 124.938  0.00  0.00    +0.000 HD
ATOM     41  H   UNL     1      -5.909   5.504 125.643  0.00  0.00    +0.000 HD
ENDBRANCH  36  39
BRANCH  38  42
ATOM     42  O   UNL     1     -10.270   1.974 124.414  0.00  0.00    +0.000 OA
ATOM     43  H   UNL     1     -10.297   1.000 124.468  0.00  0.00    +0.000 HD
ENDBRANCH  38  42
BRANCH  33  44
ATOM     44  C   UNL     1      -8.004  -0.135 124.013  0.00  0.00    +0.000 C 
BRANCH  44  45
ATOM     45  N   UNL     1      -9.222  -0.807 124.478  0.00  0.00    +0.000 NA
ATOM     46  H   UNL     1      -9.854  -0.126 124.897  0.00  0.00    +0.000 HD
ATOM     47  H   UNL     1      -8.943  -1.418 125.254  0.00  0.00    +0.000 HD
ENDBRANCH  44  45
ENDBRANCH  33  44
ENDBRANCH  32  35
ENDBRANCH   1  32
TORSDOF 16
ENDMDL
MODEL 8
REMARK VINA RESULT:      -6.0      3.340      5.932
REMARK  Name = Tobramycin
REMARK  16 active torsions:
REMARK  status: ('A' for Active; 'I' for Inactive)
REMARK    1  A    between atoms: N_1  and  C_2
REMARK    2  A    between atoms: C_2  and  C_3
REMARK    3  A    between atoms: C_5  and  O_6
REMARK    4  A    between atoms: O_6  and  C_7
REMARK    5  A    between atoms: C_8  and  N_9
REMARK    6  A    between atoms: C_11  and  N_12
REMARK    7  A    between atoms: C_13  and  O_14
REMARK    8  A    between atoms: O_14  and  C_15
REMARK    9  A    between atoms: C_17  and  C_18
REMARK   10  A    between atoms: C_18  and  O_19
REMARK   11  A    between atoms: C_20  and  O_21
REMARK   12  A    between atoms: C_22  and  N_23
REMARK   13  A    between atoms: C_24  and  O_25
REMARK   14  A    between atoms: C_26  and  O_27
REMARK   15  A    between atoms: C_28  and  N_29
REMARK   16  A    between atoms: C_31  and  O_32
REMARK                            x       y       z     vdW  Elec       q    Type
REMARK                         _______ _______ _______ _____ _____    ______ ____
ROOT
ATOM      1  C   UNL     1      -8.430   2.374 124.994  0.00  0.00    +0.000 C 
ATOM      2  C   UNL     1      -7.857   2.587 123.585  0.00  0.00    +0.000 C 
ATOM      3  C   UNL     1      -6.316   2.628 123.728  0.00  0.00    +0.000 C 
ATOM      4  C   UNL     1      -5.784   3.806 124.488  0.00  0.00    +0.000 C 
ATOM      5  C   UNL     1      -6.453   3.822 125.910  0.00  0.00    +0.000 C 
ATOM      6  C   UNL     1      -8.001   3.636 125.842  0.00  0.00    +0.000 C 
ENDROOT
BRANCH   2   7
ATOM      7  N   UNL     1      -8.492   3.478 122.625  0.00  0.00    +0.000 NA
ATOM      8  H   UNL     1      -7.971   4.186 122.174  0.00  0.00    +0.000 HD
ATOM      9  H   UNL     1      -9.353   3.866 123.031  0.00  0.00    +0.000 HD
ENDBRANCH   2   7
BRANCH   4  10
ATOM     10  N   UNL     1      -5.873   4.954 123.586  0.00  0.00    +0.000 NA
ATOM     11  H   UNL     1      -5.053   5.534 123.642  0.00  0.00    +0.000 HD
ATOM     12  H   UNL     1      -6.620   5.571 123.931  0.00  0.00    +0.000 HD
ENDBRANCH   4  10
BRANCH   6  13
ATOM     13  O   UNL     1      -8.631   4.827 125.341  0.00  0.00    +0.000 OA
ATOM     14  H   UNL     1      -8.127   5.141 124.597  0.00  0.00    +0.000 HD
ENDBRANCH   6  13
BRANCH   5  15
ATOM     15  O   UNL     1      -6.077   2.766 126.820  0.00  0.00    +0.000 OA
BRANCH  15  16
ATOM     16  C   UNL     1      -5.778   3.061 128.170  0.00  0.00    +0.000 C 
ATOM     17  O   UNL     1      -6.906   2.785 128.990  0.00  0.00    +0.000 OA
ATOM     18  C   UNL     1      -6.687   2.911 130.411  0.00  0.00    +0.000 C 
ATOM     19  C   UNL     1      -5.458   2.097 130.872  0.00  0.00    +0.000 C 
ATOM     20  C   UNL     1      -4.193   2.439 130.052  0.00  0.00    +0.000 C 
ATOM     21  C   UNL     1      -4.520   2.253 128.562  0.00  0.00    +0.000 C 
BRANCH  20  22
ATOM     22  N   UNL     1      -3.674   3.785 130.372  0.00  0.00    +0.000 NA
ATOM     23  H   UNL     1      -4.105   4.505 129.774  0.00  0.00    +0.000 HD
ATOM     24  H   UNL     1      -2.675   3.854 130.197  0.00  0.00    +0.000 HD
ENDBRANCH  20  22
BRANCH  21  25
ATOM     25  O   UNL     1      -4.631   0.858 128.248  0.00  0.00    +0.000 OA
ATOM     26  H   UNL     1      -4.625   0.371 129.092  0.00  0.00    +0.000 HD
ENDBRANCH  21  25
BRANCH  19  27
ATOM     27  O   UNL     1      -5.771   0.696 130.770  0.00  0.00    +0.000 OA
ATOM     28  H   UNL     1      -4.944   0.208 130.604  0.00  0.00    +0.000 HD
ENDBRANCH  19  27
BRANCH  18  29
ATOM     29  C   UNL     1      -6.691   4.375 130.903  0.00  0.00    +0.000 C 
BRANCH  29  30
ATOM     30  O   UNL     1      -6.085   4.549 132.182  0.00  0.00    +0.000 OA
ATOM     31  H   UNL     1      -6.547   5.308 132.581  0.00  0.00    +0.000 HD
ENDBRANCH  29  30
ENDBRANCH  18  29
ENDBRANCH  15  16
ENDBRANCH   5  15
BRANCH   1  32
ATOM     32  O   UNL     1      -7.871   1.105 125.471  0.00  0.00    +0.000 OA
BRANCH  32  35
ATOM     33  C   UNL     1      -8.657  -1.751 124.483  0.00  0.00    +0.000 C 
ATOM     34  O   UNL     1      -9.468  -0.774 125.169  0.00  0.00    +0.000 OA
ATOM     35  C   UNL     1      -8.804   0.138 126.057  0.00  0.00    +0.000 C 
ATOM     36  C   UNL     1      -8.101  -0.757 127.121  0.00  0.00    +0.000 C 
ATOM     37  C   UNL     1      -7.147  -1.749 126.427  0.00  0.00    +0.000 C 
ATOM     38  C   UNL     1      -7.867  -2.660 125.408  0.00  0.00    +0.000 C 
BRANCH  36  39
ATOM     39  N   UNL     1      -7.411   0.023 128.151  0.00  0.00    +0.000 NA
ATOM     40  H   UNL     1      -8.096   0.462 128.771  0.00  0.00    +0.000 HD
ATOM     41  H   UNL     1      -6.868   0.774 127.730  0.00  0.00    +0.000 HD
ENDBRANCH  36  39
BRANCH  38  42
ATOM     42  O   UNL     1      -6.863  -3.383 124.678  0.00  0.00    +0.000 OA
ATOM     43  H   UNL     1      -7.093  -3.400 123.730  0.00  0.00    +0.000 HD
ENDBRANCH  38  42
BRANCH  33  44
ATOM     44  C   UNL     1      -9.366  -2.259 123.191  0.00  0.00    +0.000 C 
BRANCH  44  45
ATOM     45  N   UNL     1     -10.053  -3.541 123.381  0.00  0.00    +0.000 NA
ATOM     46  H   UNL     1      -9.374  -4.301 123.369  0.00  0.00    +0.000 HD
ATOM     47  H   UNL     1     -10.630  -3.692 122.546  0.00  0.00    +0.000 HD
ENDBRANCH  44  45
ENDBRANCH  33  44
ENDBRANCH  32  35
ENDBRANCH   1  32
TORSDOF 16
ENDMDL
MODEL 9
REMARK VINA RESULT:      -5.9      3.034      5.428
REMARK  Name = Tobramycin
REMARK  16 active torsions:
REMARK  status: ('A' for Active; 'I' for Inactive)
REMARK    1  A    between atoms: N_1  and  C_2
REMARK    2  A    between atoms: C_2  and  C_3
REMARK    3  A    between atoms: C_5  and  O_6
REMARK    4  A    between atoms: O_6  and  C_7
REMARK    5  A    between atoms: C_8  and  N_9
REMARK    6  A    between atoms: C_11  and  N_12
REMARK    7  A    between atoms: C_13  and  O_14
REMARK    8  A    between atoms: O_14  and  C_15
REMARK    9  A    between atoms: C_17  and  C_18
REMARK   10  A    between atoms: C_18  and  O_19
REMARK   11  A    between atoms: C_20  and  O_21
REMARK   12  A    between atoms: C_22  and  N_23
REMARK   13  A    between atoms: C_24  and  O_25
REMARK   14  A    between atoms: C_26  and  O_27
REMARK   15  A    between atoms: C_28  and  N_29
REMARK   16  A    between atoms: C_31  and  O_32
REMARK                            x       y       z     vdW  Elec       q    Type
REMARK                         _______ _______ _______ _____ _____    ______ ____
ROOT
ATOM      1  C   UNL     1      -8.444   2.762 125.162  0.00  0.00    +0.000 C 
ATOM      2  C   UNL     1      -7.953   2.686 123.709  0.00  0.00    +0.000 C 
ATOM      3  C   UNL     1      -6.408   2.609 123.761  0.00  0.00    +0.000 C 
ATOM      4  C   UNL     1      -5.730   3.841 124.281  0.00  0.00    +0.000 C 
ATOM      5  C   UNL     1      -6.298   4.152 125.713  0.00  0.00    +0.000 C 
ATOM      6  C   UNL     1      -7.857   4.101 125.759  0.00  0.00    +0.000 C 
ENDROOT
BRANCH   2   7
ATOM      7  N   UNL     1      -8.576   3.462 122.646  0.00  0.00    +0.000 NA
ATOM      8  H   UNL     1      -9.558   3.550 122.596  0.00  0.00    +0.000 HD
ATOM      9  H   UNL     1      -8.192   3.172 121.737  0.00  0.00    +0.000 HD
ENDBRANCH   2   7
BRANCH   4  10
ATOM     10  N   UNL     1      -5.785   4.829 123.203  0.00  0.00    +0.000 NA
ATOM     11  H   UNL     1      -5.476   5.734 123.513  0.00  0.00    +0.000 HD
ATOM     12  H   UNL     1      -6.775   4.987 122.969  0.00  0.00    +0.000 HD
ENDBRANCH   4  10
BRANCH   6  13
ATOM     13  O   UNL     1      -8.420   5.247 125.098  0.00  0.00    +0.000 OA
ATOM     14  H   UNL     1      -9.365   5.138 125.066  0.00  0.00    +0.000 HD
ENDBRANCH   6  13
BRANCH   5  15
ATOM     15  O   UNL     1      -5.949   3.230 126.768  0.00  0.00    +0.000 OA
BRANCH  15  16
ATOM     16  C   UNL     1      -5.169   3.664 127.865  0.00  0.00    +0.000 C 
ATOM     17  O   UNL     1      -4.881   5.050 127.741  0.00  0.00    +0.000 OA
ATOM     18  C   UNL     1      -4.209   5.648 128.869  0.00  0.00    +0.000 C 
ATOM     19  C   UNL     1      -4.949   5.356 130.193  0.00  0.00    +0.000 C 
ATOM     20  C   UNL     1      -5.202   3.844 130.396  0.00  0.00    +0.000 C 
ATOM     21  C   UNL     1      -5.938   3.308 129.158  0.00  0.00    +0.000 C 
BRANCH  20  22
ATOM     22  N   UNL     1      -3.955   3.111 130.697  0.00  0.00    +0.000 NA
ATOM     23  H   UNL     1      -4.042   2.112 130.460  0.00  0.00    +0.000 HD
ATOM     24  H   UNL     1      -3.736   3.133 131.689  0.00  0.00    +0.000 HD
ENDBRANCH  20  22
BRANCH  21  25
ATOM     25  O   UNL     1      -7.295   3.772 129.148  0.00  0.00    +0.000 OA
ATOM     26  H   UNL     1      -7.483   4.096 128.249  0.00  0.00    +0.000 HD
ENDBRANCH  21  25
BRANCH  19  27
ATOM     27  O   UNL     1      -6.188   6.087 130.198  0.00  0.00    +0.000 OA
ATOM     28  H   UNL     1      -6.790   5.676 129.552  0.00  0.00    +0.000 HD
ENDBRANCH  19  27
BRANCH  18  29
ATOM     29  C   UNL     1      -2.696   5.340 128.914  0.00  0.00    +0.000 C 
BRANCH  29  30
ATOM     30  O   UNL     1      -1.887   6.369 128.347  0.00  0.00    +0.000 OA
ATOM     31  H   UNL     1      -1.533   5.989 127.524  0.00  0.00    +0.000 HD
ENDBRANCH  29  30
ENDBRANCH  18  29
ENDBRANCH  15  16
ENDBRANCH   5  15
BRANCH   1  32
ATOM     32  O   UNL     1      -7.961   1.542 125.816  0.00  0.00    +0.000 OA
BRANCH  32  35
ATOM     33  C   UNL     1      -8.971  -0.698 123.890  0.00  0.00    +0.000 C 
ATOM     34  O   UNL     1      -9.691  -0.006 124.933  0.00  0.00    +0.000 OA
ATOM     35  C   UNL     1      -8.937   0.476 126.056  0.00  0.00    +0.000 C 
ATOM     36  C   UNL     1      -8.262  -0.785 126.674  0.00  0.00    +0.000 C 
ATOM     37  C   UNL     1      -7.402  -1.495 125.612  0.00  0.00    +0.000 C 
ATOM     38  C   UNL     1      -8.215  -1.924 124.370  0.00  0.00    +0.000 C 
BRANCH  36  39
ATOM     39  N   UNL     1      -7.488  -0.480 127.879  0.00  0.00    +0.000 NA
ATOM     40  H   UNL     1      -7.254  -1.346 128.371  0.00  0.00    +0.000 HD
ATOM     41  H   UNL     1      -8.034   0.089 128.523  0.00  0.00    +0.000 HD
ENDBRANCH  36  39
BRANCH  38  42
ATOM     42  O   UNL     1      -7.287  -2.375 123.369  0.00  0.00    +0.000 OA
ATOM     43  H   UNL     1      -6.387  -2.405 123.745  0.00  0.00    +0.000 HD
ENDBRANCH  38  42
BRANCH  33  44
ATOM     44  C   UNL     1      -9.756  -0.653 122.545  0.00  0.00    +0.000 C 
BRANCH  44  45
ATOM     45  N   UNL     1     -10.706   0.462 122.473  0.00  0.00    +0.000 NA
ATOM     46  H   UNL     1     -11.210   0.544 123.354  0.00  0.00    +0.000 HD
ATOM     47  H   UNL     1     -11.420   0.197 121.785  0.00  0.00    +0.000 HD
ENDBRANCH  44  45
ENDBRANCH  33  44
ENDBRANCH  32  35
ENDBRANCH   1  32
TORSDOF 16
ENDMDL
