MODEL 1
REMARK VINA RESULT:      -5.7      0.000      0.000
REMARK  Name = Tocainide
REMARK  6 active torsions:
REMARK  status: ('A' for Active; 'I' for Inactive)
REMARK    1  A    between atoms: C_1  and  C_2
REMARK    2  A    between atoms: C_2  and  N_3
REMARK    3  A    between atoms: C_2  and  C_4
REMARK    4  A    between atoms: N_6  and  C_7
REMARK    5  A    between atoms: C_8  and  C_9
REMARK    6  A    between atoms: C_13  and  C_14
REMARK                            x       y       z     vdW  Elec       q    Type
REMARK                         _______ _______ _______ _____ _____    ______ ____
ROOT
ATOM      1  C   UNL     1      -9.156   5.946 129.639  0.00  0.00    +0.000 C 
ATOM      2  O   UNL     1      -8.601   6.918 130.165  0.00  0.00    +0.000 OA
ATOM      3  N   UNL     1     -10.515   5.886 129.352  0.00  0.00    +0.000 N 
ATOM      4  H   UNL     1     -10.937   4.964 129.366  0.00  0.00    +0.000 HD
ENDROOT
BRANCH   3   5
ATOM      5  C   UNL     1     -11.353   7.033 129.432  0.00  0.00    +0.000 A 
ATOM      6  C   UNL     1     -12.002   7.350 130.651  0.00  0.00    +0.000 A 
ATOM      7  C   UNL     1     -11.827   6.577 131.934  0.00  0.00    +0.000 C 
ATOM      8  C   UNL     1     -12.835   8.480 130.725  0.00  0.00    +0.000 A 
ATOM      9  C   UNL     1     -13.013   9.314 129.630  0.00  0.00    +0.000 A 
ATOM     10  C   UNL     1     -12.357   9.025 128.438  0.00  0.00    +0.000 A 
ATOM     11  C   UNL     1     -11.514   7.899 128.322  0.00  0.00    +0.000 A 
ATOM     12  C   UNL     1     -10.900   7.647 126.971  0.00  0.00    +0.000 C 
ENDBRANCH   3   5
BRANCH   1  14
ATOM     13  C   UNL     1      -9.049   3.442 129.808  0.00  0.00    +0.000 C 
ATOM     14  C   UNL     1      -8.341   4.691 129.264  0.00  0.00    +0.000 C 
BRANCH  14  15
ATOM     15  N   UNL     1      -8.241   4.625 127.795  0.00  0.00    +0.000 NA
ATOM     16  H   UNL     1      -7.308   4.964 127.543  0.00  0.00    +0.000 HD
ATOM     17  H   UNL     1      -8.883   5.310 127.393  0.00  0.00    +0.000 HD
ENDBRANCH  14  15
ENDBRANCH   1  14
TORSDOF 3
ENDMDL
MODEL 2
REMARK VINA RESULT:      -5.7      0.100      2.343
REMARK  Name = Tocainide
REMARK  6 active torsions:
REMARK  status: ('A' for Active; 'I' for Inactive)
REMARK    1  A    between atoms: C_1  and  C_2
REMARK    2  A    between atoms: C_2  and  N_3
REMARK    3  A    between atoms: C_2  and  C_4
REMARK    4  A    between atoms: N_6  and  C_7
REMARK    5  A    between atoms: C_8  and  C_9
REMARK    6  A    between atoms: C_13  and  C_14
REMARK                            x       y       z     vdW  Elec       q    Type
REMARK                         _______ _______ _______ _____ _____    ______ ____
ROOT
ATOM      1  C   UNL     1      -9.101   5.909 129.624  0.00  0.00    +0.000 C 
ATOM      2  O   UNL     1      -8.559   6.874 130.176  0.00  0.00    +0.000 OA
ATOM      3  N   UNL     1     -10.454   5.851 129.310  0.00  0.00    +0.000 N 
ATOM      4  H   UNL     1     -10.874   4.929 129.302  0.00  0.00    +0.000 HD
ENDROOT
BRANCH   3   5
ATOM      5  C   UNL     1     -11.295   6.997 129.390  0.00  0.00    +0.000 A 
ATOM      6  C   UNL     1     -11.497   7.806 128.245  0.00  0.00    +0.000 A 
ATOM      7  C   UNL     1     -10.921   7.510 126.883  0.00  0.00    +0.000 C 
ATOM      8  C   UNL     1     -12.323   8.940 128.328  0.00  0.00    +0.000 A 
ATOM      9  C   UNL     1     -12.971   9.271 129.509  0.00  0.00    +0.000 A 
ATOM     10  C   UNL     1     -12.800   8.466 130.631  0.00  0.00    +0.000 A 
ATOM     11  C   UNL     1     -11.978   7.320 130.589  0.00  0.00    +0.000 A 
ATOM     12  C   UNL     1     -11.816   6.553 131.875  0.00  0.00    +0.000 C 
ENDBRANCH   3   5
BRANCH   1  14
ATOM     13  C   UNL     1      -8.954   3.409 129.821  0.00  0.00    +0.000 C 
ATOM     14  C   UNL     1      -8.276   4.661 129.246  0.00  0.00    +0.000 C 
BRANCH  14  15
ATOM     15  N   UNL     1      -8.209   4.577 127.776  0.00  0.00    +0.000 NA
ATOM     16  H   UNL     1      -7.692   3.723 127.548  0.00  0.00    +0.000 HD
ATOM     17  H   UNL     1      -7.617   5.337 127.433  0.00  0.00    +0.000 HD
ENDBRANCH  14  15
ENDBRANCH   1  14
TORSDOF 3
ENDMDL
MODEL 3
REMARK VINA RESULT:      -5.6      7.440     10.324
REMARK  Name = Tocainide
REMARK  6 active torsions:
REMARK  status: ('A' for Active; 'I' for Inactive)
REMARK    1  A    between atoms: C_1  and  C_2
REMARK    2  A    between atoms: C_2  and  N_3
REMARK    3  A    between atoms: C_2  and  C_4
REMARK    4  A    between atoms: N_6  and  C_7
REMARK    5  A    between atoms: C_8  and  C_9
REMARK    6  A    between atoms: C_13  and  C_14
REMARK                            x       y       z     vdW  Elec       q    Type
REMARK                         _______ _______ _______ _____ _____    ______ ____
ROOT
ATOM      1  C   UNL     1      -8.104   1.451 124.610  0.00  0.00    +0.000 C 
ATOM      2  O   UNL     1      -8.672   1.169 125.672  0.00  0.00    +0.000 OA
ATOM      3  N   UNL     1      -7.531   0.512 123.761  0.00  0.00    +0.000 N 
ATOM      4  H   UNL     1      -6.740   0.828 123.210  0.00  0.00    +0.000 HD
ENDROOT
BRANCH   3   5
ATOM      5  C   UNL     1      -7.748  -0.885 123.926  0.00  0.00    +0.000 A 
ATOM      6  C   UNL     1      -8.892  -1.494 123.353  0.00  0.00    +0.000 A 
ATOM      7  C   UNL     1      -9.904  -0.769 122.501  0.00  0.00    +0.000 C 
ATOM      8  C   UNL     1      -9.109  -2.872 123.523  0.00  0.00    +0.000 A 
ATOM      9  C   UNL     1      -8.205  -3.659 124.222  0.00  0.00    +0.000 A 
ATOM     10  C   UNL     1      -7.066  -3.074 124.764  0.00  0.00    +0.000 A 
ATOM     11  C   UNL     1      -6.812  -1.694 124.617  0.00  0.00    +0.000 A 
ATOM     12  C   UNL     1      -5.580  -1.153 125.293  0.00  0.00    +0.000 C 
ENDBRANCH   3   5
BRANCH   1  14
ATOM     13  C   UNL     1      -8.377   3.028 122.674  0.00  0.00    +0.000 C 
ATOM     14  C   UNL     1      -7.986   2.920 124.154  0.00  0.00    +0.000 C 
BRANCH  14  15
ATOM     15  N   UNL     1      -8.888   3.738 124.984  0.00  0.00    +0.000 NA
ATOM     16  H   UNL     1      -9.485   4.269 124.344  0.00  0.00    +0.000 HD
ATOM     17  H   UNL     1      -8.334   4.447 125.468  0.00  0.00    +0.000 HD
ENDBRANCH  14  15
ENDBRANCH   1  14
TORSDOF 3
ENDMDL
MODEL 4
REMARK VINA RESULT:      -5.6      7.938      9.883
REMARK  Name = Tocainide
REMARK  6 active torsions:
REMARK  status: ('A' for Active; 'I' for Inactive)
REMARK    1  A    between atoms: C_1  and  C_2
REMARK    2  A    between atoms: C_2  and  N_3
REMARK    3  A    between atoms: C_2  and  C_4
REMARK    4  A    between atoms: N_6  and  C_7
REMARK    5  A    between atoms: C_8  and  C_9
REMARK    6  A    between atoms: C_13  and  C_14
REMARK                            x       y       z     vdW  Elec       q    Type
REMARK                         _______ _______ _______ _____ _____    ______ ____
ROOT
ATOM      1  C   UNL     1      -9.305   0.348 124.920  0.00  0.00    +0.000 C 
ATOM      2  O   UNL     1     -10.317   0.450 125.623  0.00  0.00    +0.000 OA
ATOM      3  N   UNL     1      -8.229  -0.482 125.218  0.00  0.00    +0.000 N 
ATOM      4  H   UNL     1      -7.321  -0.178 124.885  0.00  0.00    +0.000 HD
ENDROOT
BRANCH   3   5
ATOM      5  C   UNL     1      -8.299  -1.463 126.246  0.00  0.00    +0.000 A 
ATOM      6  C   UNL     1      -8.821  -2.749 125.961  0.00  0.00    +0.000 A 
ATOM      7  C   UNL     1      -9.271  -3.199 124.594  0.00  0.00    +0.000 C 
ATOM      8  C   UNL     1      -8.895  -3.715 126.979  0.00  0.00    +0.000 A 
ATOM      9  C   UNL     1      -8.438  -3.443 128.261  0.00  0.00    +0.000 A 
ATOM     10  C   UNL     1      -7.899  -2.192 128.542  0.00  0.00    +0.000 A 
ATOM     11  C   UNL     1      -7.809  -1.194 127.549  0.00  0.00    +0.000 A 
ATOM     12  C   UNL     1      -7.263   0.143 127.975  0.00  0.00    +0.000 C 
ENDBRANCH   3   5
BRANCH   1  14
ATOM     13  C   UNL     1     -10.156   0.649 122.575  0.00  0.00    +0.000 C 
ATOM     14  C   UNL     1      -9.167   1.176 123.625  0.00  0.00    +0.000 C 
BRANCH  14  15
ATOM     15  N   UNL     1      -9.457   2.585 123.942  0.00  0.00    +0.000 NA
ATOM     16  H   UNL     1      -8.567   3.027 124.187  0.00  0.00    +0.000 HD
ATOM     17  H   UNL     1     -10.008   2.619 124.802  0.00  0.00    +0.000 HD
ENDBRANCH  14  15
ENDBRANCH   1  14
TORSDOF 3
ENDMDL
MODEL 5
REMARK VINA RESULT:      -5.6      8.129     10.416
REMARK  Name = Tocainide
REMARK  6 active torsions:
REMARK  status: ('A' for Active; 'I' for Inactive)
REMARK    1  A    between atoms: C_1  and  C_2
REMARK    2  A    between atoms: C_2  and  N_3
REMARK    3  A    between atoms: C_2  and  C_4
REMARK    4  A    between atoms: N_6  and  C_7
REMARK    5  A    between atoms: C_8  and  C_9
REMARK    6  A    between atoms: C_13  and  C_14
REMARK                            x       y       z     vdW  Elec       q    Type
REMARK                         _______ _______ _______ _____ _____    ______ ____
ROOT
ATOM      1  C   UNL     1      -7.411   1.420 124.261  0.00  0.00    +0.000 C 
ATOM      2  O   UNL     1      -7.898   1.251 125.384  0.00  0.00    +0.000 OA
ATOM      3  N   UNL     1      -7.154   0.391 123.361  0.00  0.00    +0.000 N 
ATOM      4  H   UNL     1      -6.384   0.538 122.718  0.00  0.00    +0.000 HD
ENDROOT
BRANCH   3   5
ATOM      5  C   UNL     1      -7.644  -0.929 123.567  0.00  0.00    +0.000 A 
ATOM      6  C   UNL     1      -6.833  -1.888 124.223  0.00  0.00    +0.000 A 
ATOM      7  C   UNL     1      -5.468  -1.599 124.794  0.00  0.00    +0.000 C 
ATOM      8  C   UNL     1      -7.316  -3.194 124.420  0.00  0.00    +0.000 A 
ATOM      9  C   UNL     1      -8.590  -3.557 124.007  0.00  0.00    +0.000 A 
ATOM     10  C   UNL     1      -9.402  -2.614 123.387  0.00  0.00    +0.000 A 
ATOM     11  C   UNL     1      -8.954  -1.293 123.169  0.00  0.00    +0.000 A 
ATOM     12  C   UNL     1      -9.891  -0.369 122.437  0.00  0.00    +0.000 C 
ENDBRANCH   3   5
BRANCH   1  14
ATOM     13  C   UNL     1      -6.592   2.772 122.308  0.00  0.00    +0.000 C 
ATOM     14  C   UNL     1      -7.035   2.836 123.776  0.00  0.00    +0.000 C 
BRANCH  14  15
ATOM     15  N   UNL     1      -8.218   3.703 123.917  0.00  0.00    +0.000 NA
ATOM     16  H   UNL     1      -8.494   3.676 124.903  0.00  0.00    +0.000 HD
ATOM     17  H   UNL     1      -9.000   3.274 123.419  0.00  0.00    +0.000 HD
ENDBRANCH  14  15
ENDBRANCH   1  14
TORSDOF 3
ENDMDL
MODEL 6
REMARK VINA RESULT:      -5.6     10.436     11.374
REMARK  Name = Tocainide
REMARK  6 active torsions:
REMARK  status: ('A' for Active; 'I' for Inactive)
REMARK    1  A    between atoms: C_1  and  C_2
REMARK    2  A    between atoms: C_2  and  N_3
REMARK    3  A    between atoms: C_2  and  C_4
REMARK    4  A    between atoms: N_6  and  C_7
REMARK    5  A    between atoms: C_8  and  C_9
REMARK    6  A    between atoms: C_13  and  C_14
REMARK                            x       y       z     vdW  Elec       q    Type
REMARK                         _______ _______ _______ _____ _____    ______ ____
ROOT
ATOM      1  C   UNL     1      -8.294  -2.990 124.945  0.00  0.00    +0.000 C 
ATOM      2  O   UNL     1      -7.710  -4.074 124.833  0.00  0.00    +0.000 OA
ATOM      3  N   UNL     1      -8.312  -2.232 126.111  0.00  0.00    +0.000 N 
ATOM      4  H   UNL     1      -9.131  -1.653 126.258  0.00  0.00    +0.000 HD
ENDROOT
BRANCH   3   5
ATOM      5  C   UNL     1      -7.464  -2.529 127.214  0.00  0.00    +0.000 A 
ATOM      6  C   UNL     1      -6.154  -1.992 127.262  0.00  0.00    +0.000 A 
ATOM      7  C   UNL     1      -5.582  -1.050 126.233  0.00  0.00    +0.000 C 
ATOM      8  C   UNL     1      -5.315  -2.292 128.350  0.00  0.00    +0.000 A 
ATOM      9  C   UNL     1      -5.758  -3.086 129.399  0.00  0.00    +0.000 A 
ATOM     10  C   UNL     1      -7.052  -3.594 129.373  0.00  0.00    +0.000 A 
ATOM     11  C   UNL     1      -7.924  -3.318 128.298  0.00  0.00    +0.000 A 
ATOM     12  C   UNL     1      -9.282  -3.966 128.341  0.00  0.00    +0.000 C 
ENDBRANCH   3   5
BRANCH   1  14
ATOM     13  C   UNL     1      -8.102  -2.087 122.609  0.00  0.00    +0.000 C 
ATOM     14  C   UNL     1      -9.076  -2.397 123.754  0.00  0.00    +0.000 C 
BRANCH  14  15
ATOM     15  N   UNL     1     -10.080  -3.384 123.320  0.00  0.00    +0.000 NA
ATOM     16  H   UNL     1      -9.714  -4.310 123.561  0.00  0.00    +0.000 HD
ATOM     17  H   UNL     1     -10.121  -3.381 122.300  0.00  0.00    +0.000 HD
ENDBRANCH  14  15
ENDBRANCH   1  14
TORSDOF 3
ENDMDL
MODEL 7
REMARK VINA RESULT:      -5.6      7.972      9.805
REMARK  Name = Tocainide
REMARK  6 active torsions:
REMARK  status: ('A' for Active; 'I' for Inactive)
REMARK    1  A    between atoms: C_1  and  C_2
REMARK    2  A    between atoms: C_2  and  N_3
REMARK    3  A    between atoms: C_2  and  C_4
REMARK    4  A    between atoms: N_6  and  C_7
REMARK    5  A    between atoms: C_8  and  C_9
REMARK    6  A    between atoms: C_13  and  C_14
REMARK                            x       y       z     vdW  Elec       q    Type
REMARK                         _______ _______ _______ _____ _____    ______ ____
ROOT
ATOM      1  C   UNL     1      -9.274   0.236 124.938  0.00  0.00    +0.000 C 
ATOM      2  O   UNL     1     -10.300   0.328 125.622  0.00  0.00    +0.000 OA
ATOM      3  N   UNL     1      -8.194  -0.578 125.260  0.00  0.00    +0.000 N 
ATOM      4  H   UNL     1      -7.284  -0.264 124.943  0.00  0.00    +0.000 HD
ENDROOT
BRANCH   3   5
ATOM      5  C   UNL     1      -8.270  -1.556 126.291  0.00  0.00    +0.000 A 
ATOM      6  C   UNL     1      -7.828  -1.239 127.599  0.00  0.00    +0.000 A 
ATOM      7  C   UNL     1      -7.321   0.118 128.020  0.00  0.00    +0.000 C 
ATOM      8  C   UNL     1      -7.898  -2.208 128.615  0.00  0.00    +0.000 A 
ATOM      9  C   UNL     1      -8.420  -3.470 128.367  0.00  0.00    +0.000 A 
ATOM     10  C   UNL     1      -8.881  -3.781 127.092  0.00  0.00    +0.000 A 
ATOM     11  C   UNL     1      -8.826  -2.836 126.045  0.00  0.00    +0.000 A 
ATOM     12  C   UNL     1      -9.298  -3.295 124.691  0.00  0.00    +0.000 C 
ENDBRANCH   3   5
BRANCH   1  14
ATOM     13  C   UNL     1     -10.144   0.573 122.605  0.00  0.00    +0.000 C 
ATOM     14  C   UNL     1      -9.122   1.060 123.643  0.00  0.00    +0.000 C 
BRANCH  14  15
ATOM     15  N   UNL     1      -9.356   2.479 123.965  0.00  0.00    +0.000 NA
ATOM     16  H   UNL     1     -10.247   2.529 124.467  0.00  0.00    +0.000 HD
ATOM     17  H   UNL     1      -9.521   2.989 123.095  0.00  0.00    +0.000 HD
ENDBRANCH  14  15
ENDBRANCH   1  14
TORSDOF 3
ENDMDL
MODEL 8
REMARK VINA RESULT:      -5.4      1.790      2.039
REMARK  Name = Tocainide
REMARK  6 active torsions:
REMARK  status: ('A' for Active; 'I' for Inactive)
REMARK    1  A    between atoms: C_1  and  C_2
REMARK    2  A    between atoms: C_2  and  N_3
REMARK    3  A    between atoms: C_2  and  C_4
REMARK    4  A    between atoms: N_6  and  C_7
REMARK    5  A    between atoms: C_8  and  C_9
REMARK    6  A    between atoms: C_13  and  C_14
REMARK                            x       y       z     vdW  Elec       q    Type
REMARK                         _______ _______ _______ _____ _____    ______ ____
ROOT
ATOM      1  C   UNL     1      -9.264   5.487 129.703  0.00  0.00    +0.000 C 
ATOM      2  O   UNL     1      -9.806   4.437 129.339  0.00  0.00    +0.000 OA
ATOM      3  N   UNL     1      -9.797   6.753 129.488  0.00  0.00    +0.000 N 
ATOM      4  H   UNL     1      -9.130   7.511 129.392  0.00  0.00    +0.000 HD
ENDROOT
BRANCH   3   5
ATOM      5  C   UNL     1     -11.132   6.940 129.030  0.00  0.00    +0.000 A 
ATOM      6  C   UNL     1     -12.202   6.939 129.958  0.00  0.00    +0.000 A 
ATOM      7  C   UNL     1     -12.034   6.811 131.451  0.00  0.00    +0.000 C 
ATOM      8  C   UNL     1     -13.521   7.118 129.503  0.00  0.00    +0.000 A 
ATOM      9  C   UNL     1     -13.794   7.324 128.158  0.00  0.00    +0.000 A 
ATOM     10  C   UNL     1     -12.746   7.354 127.245  0.00  0.00    +0.000 A 
ATOM     11  C   UNL     1     -11.408   7.177 127.660  0.00  0.00    +0.000 A 
ATOM     12  C   UNL     1     -10.357   7.168 126.583  0.00  0.00    +0.000 C 
ENDBRANCH   3   5
BRANCH   1  14
ATOM     13  C   UNL     1      -7.653   6.811 131.103  0.00  0.00    +0.000 C 
ATOM     14  C   UNL     1      -7.907   5.452 130.435  0.00  0.00    +0.000 C 
BRANCH  14  15
ATOM     15  N   UNL     1      -7.954   4.384 131.449  0.00  0.00    +0.000 NA
ATOM     16  H   UNL     1      -8.789   4.547 132.018  0.00  0.00    +0.000 HD
ATOM     17  H   UNL     1      -7.172   4.511 132.095  0.00  0.00    +0.000 HD
ENDBRANCH  14  15
ENDBRANCH   1  14
TORSDOF 3
ENDMDL
MODEL 9
REMARK VINA RESULT:      -5.4      8.633      9.544
REMARK  Name = Tocainide
REMARK  6 active torsions:
REMARK  status: ('A' for Active; 'I' for Inactive)
REMARK    1  A    between atoms: C_1  and  C_2
REMARK    2  A    between atoms: C_2  and  N_3
REMARK    3  A    between atoms: C_2  and  C_4
REMARK    4  A    between atoms: N_6  and  C_7
REMARK    5  A    between atoms: C_8  and  C_9
REMARK    6  A    between atoms: C_13  and  C_14
REMARK                            x       y       z     vdW  Elec       q    Type
REMARK                         _______ _______ _______ _____ _____    ______ ____
ROOT
ATOM      1  C   UNL     1      -8.240  -1.842 123.854  0.00  0.00    +0.000 C 
ATOM      2  O   UNL     1      -7.451  -1.862 122.901  0.00  0.00    +0.000 OA
ATOM      3  N   UNL     1      -8.575  -0.693 124.563  0.00  0.00    +0.000 N 
ATOM      4  H   UNL     1      -8.826  -0.823 125.536  0.00  0.00    +0.000 HD
ENDROOT
BRANCH   3   5
ATOM      5  C   UNL     1      -8.212   0.606 124.107  0.00  0.00    +0.000 A 
ATOM      6  C   UNL     1      -7.028   1.217 124.587  0.00  0.00    +0.000 A 
ATOM      7  C   UNL     1      -6.052   0.558 125.529  0.00  0.00    +0.000 C 
ATOM      8  C   UNL     1      -6.675   2.502 124.140  0.00  0.00    +0.000 A 
ATOM      9  C   UNL     1      -7.454   3.178 123.212  0.00  0.00    +0.000 A 
ATOM     10  C   UNL     1      -8.603   2.574 122.715  0.00  0.00    +0.000 A 
ATOM     11  C   UNL     1      -8.994   1.285 123.140  0.00  0.00    +0.000 A 
ATOM     12  C   UNL     1     -10.286   0.749 122.584  0.00  0.00    +0.000 C 
ENDBRANCH   3   5
BRANCH   1  14
ATOM     13  C   UNL     1      -9.405  -2.957 125.779  0.00  0.00    +0.000 C 
ATOM     14  C   UNL     1      -8.917  -3.142 124.336  0.00  0.00    +0.000 C 
BRANCH  14  15
ATOM     15  N   UNL     1     -10.052  -3.432 123.443  0.00  0.00    +0.000 NA
ATOM     16  H   UNL     1     -10.104  -2.666 122.765  0.00  0.00    +0.000 HD
ATOM     17  H   UNL     1     -10.918  -3.360 123.981  0.00  0.00    +0.000 HD
ENDBRANCH  14  15
ENDBRANCH   1  14
TORSDOF 3
ENDMDL
