MODEL 1
REMARK VINA RESULT:      -7.0      0.000      0.000
REMARK  Name = Tofacitinib
REMARK  5 active torsions:
REMARK  status: ('A' for Active; 'I' for Inactive)
REMARK    1  A    between atoms: C_1  and  C_2
REMARK    2  A    between atoms: C_7  and  N_8
REMARK    3  A    between atoms: N_8  and  C_9
REMARK    4  A    between atoms: C_19  and  C_21
REMARK    5  A    between atoms: C_21  and  C_22
REMARK                            x       y       z     vdW  Elec       q    Type
REMARK                         _______ _______ _______ _____ _____    ______ ____
ROOT
ATOM      1  C   UNL     1      -9.111   4.066 133.190  0.00  0.00    +0.000 C 
ATOM      2  C   UNL     1      -8.214   3.786 131.977  0.00  0.00    +0.000 C 
ATOM      3  C   UNL     1      -6.729   3.774 132.383  0.00  0.00    +0.000 C 
ATOM      4  C   UNL     1      -6.207   5.158 132.740  0.00  0.00    +0.000 C 
ATOM      5  N   UNL     1      -6.450   6.077 131.636  0.00  0.00    +0.000 N 
ATOM      6  C   UNL     1      -7.851   6.172 131.217  0.00  0.00    +0.000 C 
ATOM      7  C   UNL     1      -8.476   4.799 130.833  0.00  0.00    +0.000 C 
ATOM      8  C   UNL     1      -5.515   6.932 131.063  0.00  0.00    +0.000 C 
ATOM      9  O   UNL     1      -5.847   7.729 130.180  0.00  0.00    +0.000 OA
ENDROOT
BRANCH   7  10
ATOM     10  N   UNL     1      -9.906   4.896 130.458  0.00  0.00    +0.000 N 
ATOM     11  C   UNL     1     -10.844   3.798 130.625  0.00  0.00    +0.000 C 
ATOM     12  C   UNL     1     -10.372   6.030 129.794  0.00  0.00    +0.000 A 
ATOM     13  N   UNL     1      -9.782   6.445 128.637  0.00  0.00    +0.000 NA
ATOM     14  C   UNL     1     -10.201   7.573 128.029  0.00  0.00    +0.000 A 
ATOM     15  N   UNL     1     -11.154   8.421 128.437  0.00  0.00    +0.000 NA
ATOM     16  C   UNL     1     -11.733   7.979 129.561  0.00  0.00    +0.000 A 
ATOM     17  C   UNL     1     -11.441   6.818 130.264  0.00  0.00    +0.000 A 
ATOM     18  C   UNL     1     -12.345   6.776 131.361  0.00  0.00    +0.000 A 
ATOM     19  C   UNL     1     -13.134   7.904 131.305  0.00  0.00    +0.000 A 
ATOM     20  N   UNL     1     -12.732   8.639 130.221  0.00  0.00    +0.000 N 
ATOM     21  H   UNL     1     -13.099   9.533 129.929  0.00  0.00    +0.000 HD
ENDBRANCH   7  10
BRANCH   8  22
ATOM     22  C   UNL     1      -4.079   6.841 131.551  0.00  0.00    +0.000 C 
BRANCH  22  23
ATOM     23  C   UNL     1      -3.136   6.711 130.366  0.00  0.00    +0.000 C 
ATOM     24  N   UNL     1      -2.354   6.602 129.383  0.00  0.00    +0.000 NA
ENDBRANCH  22  23
ENDBRANCH   8  22
TORSDOF 3
ENDMDL
MODEL 2
REMARK VINA RESULT:      -7.0      2.850      4.536
REMARK  Name = Tofacitinib
REMARK  5 active torsions:
REMARK  status: ('A' for Active; 'I' for Inactive)
REMARK    1  A    between atoms: C_1  and  C_2
REMARK    2  A    between atoms: C_7  and  N_8
REMARK    3  A    between atoms: N_8  and  C_9
REMARK    4  A    between atoms: C_19  and  C_21
REMARK    5  A    between atoms: C_21  and  C_22
REMARK                            x       y       z     vdW  Elec       q    Type
REMARK                         _______ _______ _______ _____ _____    ______ ____
ROOT
ATOM      1  C   UNL     1      -8.173   5.236 133.574  0.00  0.00    +0.000 C 
ATOM      2  C   UNL     1      -9.371   4.478 132.989  0.00  0.00    +0.000 C 
ATOM      3  C   UNL     1      -9.331   2.992 133.391  0.00  0.00    +0.000 C 
ATOM      4  C   UNL     1      -8.214   2.226 132.697  0.00  0.00    +0.000 C 
ATOM      5  N   UNL     1      -8.330   2.384 131.253  0.00  0.00    +0.000 N 
ATOM      6  C   UNL     1      -8.337   3.774 130.790  0.00  0.00    +0.000 C 
ATOM      7  C   UNL     1      -9.449   4.642 131.450  0.00  0.00    +0.000 C 
ATOM      8  C   UNL     1      -8.303   1.360 130.314  0.00  0.00    +0.000 C 
ATOM      9  O   UNL     1      -8.333   1.611 129.106  0.00  0.00    +0.000 OA
ENDROOT
BRANCH   7  10
ATOM     10  N   UNL     1      -9.418   6.056 131.012  0.00  0.00    +0.000 N 
ATOM     11  C   UNL     1      -8.193   6.838 130.948  0.00  0.00    +0.000 C 
ATOM     12  C   UNL     1     -10.612   6.733 130.769  0.00  0.00    +0.000 A 
ATOM     13  N   UNL     1     -11.581   6.790 131.727  0.00  0.00    +0.000 NA
ATOM     14  C   UNL     1     -12.757   7.397 131.467  0.00  0.00    +0.000 A 
ATOM     15  N   UNL     1     -13.153   7.963 130.319  0.00  0.00    +0.000 NA
ATOM     16  C   UNL     1     -12.176   7.915 129.404  0.00  0.00    +0.000 A 
ATOM     17  C   UNL     1     -10.907   7.371 129.547  0.00  0.00    +0.000 A 
ATOM     18  C   UNL     1     -10.234   7.594 128.315  0.00  0.00    +0.000 A 
ATOM     19  C   UNL     1     -11.105   8.240 127.466  0.00  0.00    +0.000 A 
ATOM     20  N   UNL     1     -12.291   8.403 128.132  0.00  0.00    +0.000 N 
ATOM     21  H   UNL     1     -13.135   8.819 127.767  0.00  0.00    +0.000 HD
ENDBRANCH   7  10
BRANCH   8  22
ATOM     22  C   UNL     1      -8.250  -0.070 130.827  0.00  0.00    +0.000 C 
BRANCH  22  23
ATOM     23  C   UNL     1      -7.693  -0.986 129.749  0.00  0.00    +0.000 C 
ATOM     24  N   UNL     1      -7.231  -1.746 128.856  0.00  0.00    +0.000 NA
ENDBRANCH  22  23
ENDBRANCH   8  22
TORSDOF 3
ENDMDL
MODEL 3
REMARK VINA RESULT:      -6.8      8.137      9.843
REMARK  Name = Tofacitinib
REMARK  5 active torsions:
REMARK  status: ('A' for Active; 'I' for Inactive)
REMARK    1  A    between atoms: C_1  and  C_2
REMARK    2  A    between atoms: C_7  and  N_8
REMARK    3  A    between atoms: N_8  and  C_9
REMARK    4  A    between atoms: C_19  and  C_21
REMARK    5  A    between atoms: C_21  and  C_22
REMARK                            x       y       z     vdW  Elec       q    Type
REMARK                         _______ _______ _______ _____ _____    ______ ____
ROOT
ATOM      1  C   UNL     1      -7.504   3.444 126.291  0.00  0.00    +0.000 C 
ATOM      2  C   UNL     1      -6.413   2.652 125.557  0.00  0.00    +0.000 C 
ATOM      3  C   UNL     1      -5.299   3.589 125.055  0.00  0.00    +0.000 C 
ATOM      4  C   UNL     1      -5.752   4.476 123.904  0.00  0.00    +0.000 C 
ATOM      5  N   UNL     1      -6.283   3.652 122.825  0.00  0.00    +0.000 N 
ATOM      6  C   UNL     1      -7.376   2.759 123.220  0.00  0.00    +0.000 C 
ATOM      7  C   UNL     1      -7.006   1.811 124.398  0.00  0.00    +0.000 C 
ATOM      8  C   UNL     1      -5.935   3.741 121.482  0.00  0.00    +0.000 C 
ATOM      9  O   UNL     1      -6.504   3.044 120.636  0.00  0.00    +0.000 OA
ENDROOT
BRANCH   7  10
ATOM     10  N   UNL     1      -8.131   0.946 124.822  0.00  0.00    +0.000 N 
ATOM     11  C   UNL     1      -9.526   1.316 124.640  0.00  0.00    +0.000 C 
ATOM     12  C   UNL     1      -7.876  -0.217 125.546  0.00  0.00    +0.000 A 
ATOM     13  N   UNL     1      -7.151  -0.169 126.700  0.00  0.00    +0.000 NA
ATOM     14  C   UNL     1      -6.860  -1.304 127.366  0.00  0.00    +0.000 A 
ATOM     15  N   UNL     1      -7.170  -2.561 127.022  0.00  0.00    +0.000 NA
ATOM     16  C   UNL     1      -7.902  -2.580 125.900  0.00  0.00    +0.000 A 
ATOM     17  C   UNL     1      -8.317  -1.494 125.142  0.00  0.00    +0.000 A 
ATOM     18  C   UNL     1      -9.091  -2.024 124.073  0.00  0.00    +0.000 A 
ATOM     19  C   UNL     1      -9.107  -3.395 124.200  0.00  0.00    +0.000 A 
ATOM     20  N   UNL     1      -8.357  -3.720 125.299  0.00  0.00    +0.000 N 
ATOM     21  H   UNL     1      -8.157  -4.649 125.638  0.00  0.00    +0.000 HD
ENDBRANCH   7  10
BRANCH   8  22
ATOM     22  C   UNL     1      -4.828   4.709 121.099  0.00  0.00    +0.000 C 
BRANCH  22  23
ATOM     23  C   UNL     1      -5.226   5.483 119.852  0.00  0.00    +0.000 C 
ATOM     24  N   UNL     1      -5.554   6.124 118.818  0.00  0.00    +0.000 NA
ENDBRANCH  22  23
ENDBRANCH   8  22
TORSDOF 3
ENDMDL
MODEL 4
REMARK VINA RESULT:      -6.8      1.868      2.298
REMARK  Name = Tofacitinib
REMARK  5 active torsions:
REMARK  status: ('A' for Active; 'I' for Inactive)
REMARK    1  A    between atoms: C_1  and  C_2
REMARK    2  A    between atoms: C_7  and  N_8
REMARK    3  A    between atoms: N_8  and  C_9
REMARK    4  A    between atoms: C_19  and  C_21
REMARK    5  A    between atoms: C_21  and  C_22
REMARK                            x       y       z     vdW  Elec       q    Type
REMARK                         _______ _______ _______ _____ _____    ______ ____
ROOT
ATOM      1  C   UNL     1      -8.625   3.136 129.144  0.00  0.00    +0.000 C 
ATOM      2  C   UNL     1      -7.912   4.485 129.299  0.00  0.00    +0.000 C 
ATOM      3  C   UNL     1      -6.443   4.286 129.714  0.00  0.00    +0.000 C 
ATOM      4  C   UNL     1      -6.298   3.784 131.143  0.00  0.00    +0.000 C 
ATOM      5  N   UNL     1      -6.991   4.686 132.055  0.00  0.00    +0.000 N 
ATOM      6  C   UNL     1      -8.408   4.896 131.746  0.00  0.00    +0.000 C 
ATOM      7  C   UNL     1      -8.658   5.407 130.298  0.00  0.00    +0.000 C 
ATOM      8  C   UNL     1      -6.466   5.233 133.220  0.00  0.00    +0.000 C 
ATOM      9  O   UNL     1      -7.167   5.926 133.963  0.00  0.00    +0.000 OA
ENDROOT
BRANCH   7  10
ATOM     10  N   UNL     1     -10.095   5.571 129.979  0.00  0.00    +0.000 N 
ATOM     11  C   UNL     1     -11.135   4.743 130.568  0.00  0.00    +0.000 C 
ATOM     12  C   UNL     1     -10.486   6.459 128.979  0.00  0.00    +0.000 A 
ATOM     13  N   UNL     1      -9.963   6.361 127.723  0.00  0.00    +0.000 NA
ATOM     14  C   UNL     1     -10.302   7.257 126.775  0.00  0.00    +0.000 A 
ATOM     15  N   UNL     1     -11.107   8.320 126.900  0.00  0.00    +0.000 NA
ATOM     16  C   UNL     1     -11.627   8.380 128.133  0.00  0.00    +0.000 A 
ATOM     17  C   UNL     1     -11.408   7.505 129.188  0.00  0.00    +0.000 A 
ATOM     18  C   UNL     1     -12.204   7.972 130.269  0.00  0.00    +0.000 A 
ATOM     19  C   UNL     1     -12.858   9.111 129.853  0.00  0.00    +0.000 A 
ATOM     20  N   UNL     1     -12.476   9.362 128.562  0.00  0.00    +0.000 N 
ATOM     21  H   UNL     1     -12.763  10.142 127.989  0.00  0.00    +0.000 HD
ENDBRANCH   7  10
BRANCH   8  22
ATOM     22  C   UNL     1      -5.004   4.959 133.535  0.00  0.00    +0.000 C 
BRANCH  22  23
ATOM     23  C   UNL     1      -4.153   6.150 133.122  0.00  0.00    +0.000 C 
ATOM     24  N   UNL     1      -3.449   7.137 132.780  0.00  0.00    +0.000 NA
ENDBRANCH  22  23
ENDBRANCH   8  22
TORSDOF 3
ENDMDL
MODEL 5
REMARK VINA RESULT:      -6.7      7.791     10.303
REMARK  Name = Tofacitinib
REMARK  5 active torsions:
REMARK  status: ('A' for Active; 'I' for Inactive)
REMARK    1  A    between atoms: C_1  and  C_2
REMARK    2  A    between atoms: C_7  and  N_8
REMARK    3  A    between atoms: N_8  and  C_9
REMARK    4  A    between atoms: C_19  and  C_21
REMARK    5  A    between atoms: C_21  and  C_22
REMARK                            x       y       z     vdW  Elec       q    Type
REMARK                         _______ _______ _______ _____ _____    ______ ____
ROOT
ATOM      1  C   UNL     1      -6.966  -3.404 124.955  0.00  0.00    +0.000 C 
ATOM      2  C   UNL     1      -8.476  -3.141 125.018  0.00  0.00    +0.000 C 
ATOM      3  C   UNL     1      -9.014  -2.701 123.645  0.00  0.00    +0.000 C 
ATOM      4  C   UNL     1      -8.554  -1.304 123.254  0.00  0.00    +0.000 C 
ATOM      5  N   UNL     1      -8.918  -0.354 124.298  0.00  0.00    +0.000 N 
ATOM      6  C   UNL     1      -8.407  -0.687 125.631  0.00  0.00    +0.000 C 
ATOM      7  C   UNL     1      -8.824  -2.106 126.117  0.00  0.00    +0.000 C 
ATOM      8  C   UNL     1      -9.571   0.858 124.109  0.00  0.00    +0.000 C 
ATOM      9  O   UNL     1      -9.763   1.626 125.057  0.00  0.00    +0.000 OA
ENDROOT
BRANCH   7  10
ATOM     10  N   UNL     1      -8.264  -2.453 127.444  0.00  0.00    +0.000 N 
ATOM     11  C   UNL     1      -8.629  -3.662 128.164  0.00  0.00    +0.000 C 
ATOM     12  C   UNL     1      -7.451  -1.541 128.113  0.00  0.00    +0.000 A 
ATOM     13  N   UNL     1      -7.888  -0.271 128.353  0.00  0.00    +0.000 NA
ATOM     14  C   UNL     1      -7.076   0.624 128.950  0.00  0.00    +0.000 A 
ATOM     15  N   UNL     1      -5.807   0.449 129.342  0.00  0.00    +0.000 NA
ATOM     16  C   UNL     1      -5.410  -0.811 129.118  0.00  0.00    +0.000 A 
ATOM     17  C   UNL     1      -6.150  -1.845 128.561  0.00  0.00    +0.000 A 
ATOM     18  C   UNL     1      -5.305  -2.989 128.565  0.00  0.00    +0.000 A 
ATOM     19  C   UNL     1      -4.090  -2.618 129.098  0.00  0.00    +0.000 A 
ATOM     20  N   UNL     1      -4.160  -1.284 129.404  0.00  0.00    +0.000 N 
ATOM     21  H   UNL     1      -3.420  -0.714 129.785  0.00  0.00    +0.000 HD
ENDBRANCH   7  10
BRANCH   8  22
ATOM     22  C   UNL     1     -10.049   1.195 122.706  0.00  0.00    +0.000 C 
BRANCH  22  23
ATOM     23  C   UNL     1      -9.277   2.389 122.169  0.00  0.00    +0.000 C 
ATOM     24  N   UNL     1      -8.637   3.379 121.722  0.00  0.00    +0.000 NA
ENDBRANCH  22  23
ENDBRANCH   8  22
TORSDOF 3
ENDMDL
MODEL 6
REMARK VINA RESULT:      -6.6      3.416      6.590
REMARK  Name = Tofacitinib
REMARK  5 active torsions:
REMARK  status: ('A' for Active; 'I' for Inactive)
REMARK    1  A    between atoms: C_1  and  C_2
REMARK    2  A    between atoms: C_7  and  N_8
REMARK    3  A    between atoms: N_8  and  C_9
REMARK    4  A    between atoms: C_19  and  C_21
REMARK    5  A    between atoms: C_21  and  C_22
REMARK                            x       y       z     vdW  Elec       q    Type
REMARK                         _______ _______ _______ _____ _____    ______ ____
ROOT
ATOM      1  C   UNL     1      -7.535   4.163 132.017  0.00  0.00    +0.000 C 
ATOM      2  C   UNL     1      -7.762   5.380 131.112  0.00  0.00    +0.000 C 
ATOM      3  C   UNL     1      -8.610   6.447 131.828  0.00  0.00    +0.000 C 
ATOM      4  C   UNL     1     -10.060   6.021 132.009  0.00  0.00    +0.000 C 
ATOM      5  N   UNL     1     -10.634   5.663 130.718  0.00  0.00    +0.000 N 
ATOM      6  C   UNL     1      -9.901   4.623 129.991  0.00  0.00    +0.000 C 
ATOM      7  C   UNL     1      -8.401   4.968 129.761  0.00  0.00    +0.000 C 
ATOM      8  C   UNL     1     -11.843   6.120 130.206  0.00  0.00    +0.000 C 
ATOM      9  O   UNL     1     -12.275   5.692 129.132  0.00  0.00    +0.000 OA
ENDROOT
BRANCH   7  10
ATOM     10  N   UNL     1      -7.657   3.891 129.068  0.00  0.00    +0.000 N 
ATOM     11  C   UNL     1      -8.001   2.484 129.197  0.00  0.00    +0.000 C 
ATOM     12  C   UNL     1      -6.495   4.195 128.361  0.00  0.00    +0.000 A 
ATOM     13  N   UNL     1      -5.468   4.854 128.970  0.00  0.00    +0.000 NA
ATOM     14  C   UNL     1      -4.370   5.196 128.267  0.00  0.00    +0.000 A 
ATOM     15  N   UNL     1      -4.134   4.998 126.963  0.00  0.00    +0.000 NA
ATOM     16  C   UNL     1      -5.145   4.328 126.395  0.00  0.00    +0.000 A 
ATOM     17  C   UNL     1      -6.307   3.872 127.002  0.00  0.00    +0.000 A 
ATOM     18  C   UNL     1      -7.047   3.195 125.995  0.00  0.00    +0.000 A 
ATOM     19  C   UNL     1      -6.335   3.274 124.818  0.00  0.00    +0.000 A 
ATOM     20  N   UNL     1      -5.194   3.990 125.071  0.00  0.00    +0.000 N 
ATOM     21  H   UNL     1      -4.481   4.242 124.403  0.00  0.00    +0.000 HD
ENDBRANCH   7  10
BRANCH   8  22
ATOM     22  C   UNL     1     -12.601   7.166 131.006  0.00  0.00    +0.000 C 
BRANCH  22  23
ATOM     23  C   UNL     1     -12.747   8.439 130.188  0.00  0.00    +0.000 C 
ATOM     24  N   UNL     1     -12.868   9.494 129.509  0.00  0.00    +0.000 NA
ENDBRANCH  22  23
ENDBRANCH   8  22
TORSDOF 3
ENDMDL
MODEL 7
REMARK VINA RESULT:      -6.3      1.799      6.616
REMARK  Name = Tofacitinib
REMARK  5 active torsions:
REMARK  status: ('A' for Active; 'I' for Inactive)
REMARK    1  A    between atoms: C_1  and  C_2
REMARK    2  A    between atoms: C_7  and  N_8
REMARK    3  A    between atoms: N_8  and  C_9
REMARK    4  A    between atoms: C_19  and  C_21
REMARK    5  A    between atoms: C_21  and  C_22
REMARK                            x       y       z     vdW  Elec       q    Type
REMARK                         _______ _______ _______ _____ _____    ______ ____
ROOT
ATOM      1  C   UNL     1      -6.904   2.561 131.593  0.00  0.00    +0.000 C 
ATOM      2  C   UNL     1      -7.277   3.759 132.476  0.00  0.00    +0.000 C 
ATOM      3  C   UNL     1      -8.805   3.879 132.621  0.00  0.00    +0.000 C 
ATOM      4  C   UNL     1      -9.486   4.321 131.334  0.00  0.00    +0.000 C 
ATOM      5  N   UNL     1      -8.895   5.570 130.868  0.00  0.00    +0.000 N 
ATOM      6  C   UNL     1      -7.444   5.522 130.668  0.00  0.00    +0.000 C 
ATOM      7  C   UNL     1      -6.659   5.074 131.935  0.00  0.00    +0.000 C 
ATOM      8  C   UNL     1      -9.591   6.711 130.488  0.00  0.00    +0.000 C 
ATOM      9  O   UNL     1      -8.995   7.692 130.033  0.00  0.00    +0.000 OA
ENDROOT
BRANCH   7  10
ATOM     10  N   UNL     1      -5.198   4.982 131.711  0.00  0.00    +0.000 N 
ATOM     11  C   UNL     1      -4.324   4.154 132.527  0.00  0.00    +0.000 C 
ATOM     12  C   UNL     1      -4.587   5.810 130.771  0.00  0.00    +0.000 A 
ATOM     13  N   UNL     1      -4.744   7.163 130.837  0.00  0.00    +0.000 NA
ATOM     14  C   UNL     1      -4.198   7.955 129.893  0.00  0.00    +0.000 A 
ATOM     15  N   UNL     1      -3.504   7.584 128.809  0.00  0.00    +0.000 NA
ATOM     16  C   UNL     1      -3.343   6.254 128.781  0.00  0.00    +0.000 A 
ATOM     17  C   UNL     1      -3.804   5.326 129.704  0.00  0.00    +0.000 A 
ATOM     18  C   UNL     1      -3.354   4.055 129.254  0.00  0.00    +0.000 A 
ATOM     19  C   UNL     1      -2.661   4.242 128.078  0.00  0.00    +0.000 A 
ATOM     20  N   UNL     1      -2.687   5.581 127.789  0.00  0.00    +0.000 N 
ATOM     21  H   UNL     1      -2.289   6.030 126.977  0.00  0.00    +0.000 HD
ENDBRANCH   7  10
BRANCH   8  22
ATOM     22  C   UNL     1     -11.101   6.713 130.666  0.00  0.00    +0.000 C 
BRANCH  22  23
ATOM     23  C   UNL     1     -11.782   6.611 129.310  0.00  0.00    +0.000 C 
ATOM     24  N   UNL     1     -12.347   6.526 128.187  0.00  0.00    +0.000 NA
ENDBRANCH  22  23
ENDBRANCH   8  22
TORSDOF 3
ENDMDL
MODEL 8
REMARK VINA RESULT:      -6.3      3.284      6.228
REMARK  Name = Tofacitinib
REMARK  5 active torsions:
REMARK  status: ('A' for Active; 'I' for Inactive)
REMARK    1  A    between atoms: C_1  and  C_2
REMARK    2  A    between atoms: C_7  and  N_8
REMARK    3  A    between atoms: N_8  and  C_9
REMARK    4  A    between atoms: C_19  and  C_21
REMARK    5  A    between atoms: C_21  and  C_22
REMARK                            x       y       z     vdW  Elec       q    Type
REMARK                         _______ _______ _______ _____ _____    ______ ____
ROOT
ATOM      1  C   UNL     1      -8.207   3.646 132.474  0.00  0.00    +0.000 C 
ATOM      2  C   UNL     1      -8.054   5.074 131.937  0.00  0.00    +0.000 C 
ATOM      3  C   UNL     1      -9.069   6.023 132.601  0.00  0.00    +0.000 C 
ATOM      4  C   UNL     1     -10.499   5.761 132.153  0.00  0.00    +0.000 C 
ATOM      5  N   UNL     1     -10.581   5.827 130.699  0.00  0.00    +0.000 N 
ATOM      6  C   UNL     1      -9.669   4.922 129.995  0.00  0.00    +0.000 C 
ATOM      7  C   UNL     1      -8.176   5.114 130.392  0.00  0.00    +0.000 C 
ATOM      8  C   UNL     1     -11.509   6.556 129.966  0.00  0.00    +0.000 C 
ATOM      9  O   UNL     1     -11.539   6.481 128.733  0.00  0.00    +0.000 OA
ENDROOT
BRANCH   7  10
ATOM     10  N   UNL     1      -7.267   4.163 129.711  0.00  0.00    +0.000 N 
ATOM     11  C   UNL     1      -6.021   3.699 130.301  0.00  0.00    +0.000 C 
ATOM     12  C   UNL     1      -7.524   3.778 128.397  0.00  0.00    +0.000 A 
ATOM     13  N   UNL     1      -7.678   4.718 127.419  0.00  0.00    +0.000 NA
ATOM     14  C   UNL     1      -7.982   4.343 126.161  0.00  0.00    +0.000 A 
ATOM     15  N   UNL     1      -8.202   3.104 125.703  0.00  0.00    +0.000 NA
ATOM     16  C   UNL     1      -8.021   2.199 126.674  0.00  0.00    +0.000 A 
ATOM     17  C   UNL     1      -7.660   2.435 127.994  0.00  0.00    +0.000 A 
ATOM     18  C   UNL     1      -7.563   1.160 128.616  0.00  0.00    +0.000 A 
ATOM     19  C   UNL     1      -7.882   0.204 127.678  0.00  0.00    +0.000 A 
ATOM     20  N   UNL     1      -8.185   0.852 126.510  0.00  0.00    +0.000 N 
ATOM     21  H   UNL     1      -8.483   0.427 125.644  0.00  0.00    +0.000 HD
ENDBRANCH   7  10
BRANCH   8  22
ATOM     22  C   UNL     1     -12.471   7.451 130.729  0.00  0.00    +0.000 C 
BRANCH  22  23
ATOM     23  C   UNL     1     -12.752   8.713 129.929  0.00  0.00    +0.000 C 
ATOM     24  N   UNL     1     -12.984   9.759 129.265  0.00  0.00    +0.000 NA
ENDBRANCH  22  23
ENDBRANCH   8  22
TORSDOF 3
ENDMDL
MODEL 9
REMARK VINA RESULT:      -6.2      1.878      7.007
REMARK  Name = Tofacitinib
REMARK  5 active torsions:
REMARK  status: ('A' for Active; 'I' for Inactive)
REMARK    1  A    between atoms: C_1  and  C_2
REMARK    2  A    between atoms: C_7  and  N_8
REMARK    3  A    between atoms: N_8  and  C_9
REMARK    4  A    between atoms: C_19  and  C_21
REMARK    5  A    between atoms: C_21  and  C_22
REMARK                            x       y       z     vdW  Elec       q    Type
REMARK                         _______ _______ _______ _____ _____    ______ ____
ROOT
ATOM      1  C   UNL     1      -7.938   3.895 132.773  0.00  0.00    +0.000 C 
ATOM      2  C   UNL     1      -7.859   5.377 132.383  0.00  0.00    +0.000 C 
ATOM      3  C   UNL     1      -9.222   6.068 132.573  0.00  0.00    +0.000 C 
ATOM      4  C   UNL     1     -10.257   5.617 131.551  0.00  0.00    +0.000 C 
ATOM      5  N   UNL     1      -9.739   5.819 130.204  0.00  0.00    +0.000 N 
ATOM      6  C   UNL     1      -8.460   5.157 129.935  0.00  0.00    +0.000 C 
ATOM      7  C   UNL     1      -7.335   5.555 130.936  0.00  0.00    +0.000 C 
ATOM      8  C   UNL     1     -10.403   6.452 129.160  0.00  0.00    +0.000 C 
ATOM      9  O   UNL     1      -9.904   6.501 128.032  0.00  0.00    +0.000 OA
ENDROOT
BRANCH   7  10
ATOM     10  N   UNL     1      -6.059   4.846 130.687  0.00  0.00    +0.000 N 
ATOM     11  C   UNL     1      -5.994   3.442 130.312  0.00  0.00    +0.000 C 
ATOM     12  C   UNL     1      -4.848   5.488 130.940  0.00  0.00    +0.000 A 
ATOM     13  N   UNL     1      -4.596   6.030 132.166  0.00  0.00    +0.000 NA
ATOM     14  C   UNL     1      -3.448   6.699 132.389  0.00  0.00    +0.000 A 
ATOM     15  N   UNL     1      -2.464   6.955 131.517  0.00  0.00    +0.000 NA
ATOM     16  C   UNL     1      -2.723   6.393 130.329  0.00  0.00    +0.000 A 
ATOM     17  C   UNL     1      -3.834   5.639 129.974  0.00  0.00    +0.000 A 
ATOM     18  C   UNL     1      -3.632   5.240 128.624  0.00  0.00    +0.000 A 
ATOM     19  C   UNL     1      -2.434   5.771 128.199  0.00  0.00    +0.000 A 
ATOM     20  N   UNL     1      -1.907   6.492 129.237  0.00  0.00    +0.000 N 
ATOM     21  H   UNL     1      -1.048   7.022 129.228  0.00  0.00    +0.000 HD
ENDBRANCH   7  10
BRANCH   8  22
ATOM     22  C   UNL     1     -11.750   7.090 129.460  0.00  0.00    +0.000 C 
BRANCH  22  23
ATOM     23  C   UNL     1     -12.611   7.097 128.206  0.00  0.00    +0.000 C 
ATOM     24  N   UNL     1     -13.325   7.104 127.167  0.00  0.00    +0.000 NA
ENDBRANCH  22  23
ENDBRANCH   8  22
TORSDOF 3
ENDMDL
