MODEL 1
REMARK VINA RESULT:      -6.1      0.000      0.000
REMARK  Name = Tolazoline
REMARK  2 active torsions:
REMARK  status: ('A' for Active; 'I' for Inactive)
REMARK    1  A    between atoms: C_1  and  C_2
REMARK    2  A    between atoms: C_1  and  C_7
REMARK                            x       y       z     vdW  Elec       q    Type
REMARK                         _______ _______ _______ _____ _____    ______ ____
ROOT
ATOM      1  C   UNL     1     -12.277   6.866 131.606  0.00  0.00    +0.000 C 
ENDROOT
BRANCH   1   2
ATOM      2  C   UNL     1     -10.831   6.423 131.745  0.00  0.00    +0.000 C 
ATOM      3  N   UNL     1      -9.907   6.828 130.913  0.00  0.00    +0.000 NA
ATOM      4  C   UNL     1      -8.648   6.235 131.460  0.00  0.00    +0.000 C 
ATOM      5  C   UNL     1      -8.969   5.864 132.910  0.00  0.00    +0.000 C 
ATOM      6  N   UNL     1     -10.394   5.643 132.799  0.00  0.00    +0.000 N 
ATOM      7  H   UNL     1     -10.953   5.607 133.641  0.00  0.00    +0.000 HD
ENDBRANCH   1   2
BRANCH   1   8
ATOM      8  C   UNL     1     -12.652   7.391 130.231  0.00  0.00    +0.000 A 
ATOM      9  C   UNL     1     -12.705   8.776 130.004  0.00  0.00    +0.000 A 
ATOM     10  C   UNL     1     -13.143   9.278 128.773  0.00  0.00    +0.000 A 
ATOM     11  C   UNL     1     -13.473   8.408 127.735  0.00  0.00    +0.000 A 
ATOM     12  C   UNL     1     -13.393   7.038 127.934  0.00  0.00    +0.000 A 
ATOM     13  C   UNL     1     -13.009   6.540 129.175  0.00  0.00    +0.000 A 
ENDBRANCH   1   8
TORSDOF 2
ENDMDL
MODEL 2
REMARK VINA RESULT:      -5.6      2.228      5.136
REMARK  Name = Tolazoline
REMARK  2 active torsions:
REMARK  status: ('A' for Active; 'I' for Inactive)
REMARK    1  A    between atoms: C_1  and  C_2
REMARK    2  A    between atoms: C_1  and  C_7
REMARK                            x       y       z     vdW  Elec       q    Type
REMARK                         _______ _______ _______ _____ _____    ______ ____
ROOT
ATOM      1  C   UNL     1      -9.964   8.033 128.971  0.00  0.00    +0.000 C 
ENDROOT
BRANCH   1   2
ATOM      2  C   UNL     1     -11.327   7.923 128.310  0.00  0.00    +0.000 C 
ATOM      3  N   UNL     1     -11.721   6.820 127.728  0.00  0.00    +0.000 NA
ATOM      4  C   UNL     1     -13.122   7.121 127.302  0.00  0.00    +0.000 C 
ATOM      5  C   UNL     1     -13.548   8.335 128.130  0.00  0.00    +0.000 C 
ATOM      6  N   UNL     1     -12.257   8.945 128.359  0.00  0.00    +0.000 N 
ATOM      7  H   UNL     1     -12.166   9.650 129.078  0.00  0.00    +0.000 HD
ENDBRANCH   1   2
BRANCH   1   8
ATOM      8  C   UNL     1      -9.813   7.231 130.252  0.00  0.00    +0.000 A 
ATOM      9  C   UNL     1     -10.954   6.848 130.974  0.00  0.00    +0.000 A 
ATOM     10  C   UNL     1     -10.830   6.195 132.206  0.00  0.00    +0.000 A 
ATOM     11  C   UNL     1      -9.571   5.862 132.703  0.00  0.00    +0.000 A 
ATOM     12  C   UNL     1      -8.435   6.204 131.984  0.00  0.00    +0.000 A 
ATOM     13  C   UNL     1      -8.558   6.901 130.785  0.00  0.00    +0.000 A 
ENDBRANCH   1   8
TORSDOF 2
ENDMDL
MODEL 3
REMARK VINA RESULT:      -5.6      1.414      1.887
REMARK  Name = Tolazoline
REMARK  2 active torsions:
REMARK  status: ('A' for Active; 'I' for Inactive)
REMARK    1  A    between atoms: C_1  and  C_2
REMARK    2  A    between atoms: C_1  and  C_7
REMARK                            x       y       z     vdW  Elec       q    Type
REMARK                         _______ _______ _______ _____ _____    ______ ____
ROOT
ATOM      1  C   UNL     1     -11.908   6.617 131.441  0.00  0.00    +0.000 C 
ENDROOT
BRANCH   1   2
ATOM      2  C   UNL     1     -10.645   5.911 131.902  0.00  0.00    +0.000 C 
ATOM      3  N   UNL     1      -9.829   6.458 132.766  0.00  0.00    +0.000 NA
ATOM      4  C   UNL     1      -8.792   5.405 132.995  0.00  0.00    +0.000 C 
ATOM      5  C   UNL     1      -9.420   4.100 132.500  0.00  0.00    +0.000 C 
ATOM      6  N   UNL     1     -10.330   4.625 131.506  0.00  0.00    +0.000 N 
ATOM      7  H   UNL     1     -11.069   4.030 131.154  0.00  0.00    +0.000 HD
ENDBRANCH   1   2
BRANCH   1   8
ATOM      8  C   UNL     1     -11.872   7.108 130.004  0.00  0.00    +0.000 A 
ATOM      9  C   UNL     1     -12.938   6.814 129.140  0.00  0.00    +0.000 A 
ATOM     10  C   UNL     1     -12.878   7.173 127.789  0.00  0.00    +0.000 A 
ATOM     11  C   UNL     1     -11.784   7.884 127.297  0.00  0.00    +0.000 A 
ATOM     12  C   UNL     1     -10.738   8.212 128.147  0.00  0.00    +0.000 A 
ATOM     13  C   UNL     1     -10.775   7.807 129.478  0.00  0.00    +0.000 A 
ENDBRANCH   1   8
TORSDOF 2
ENDMDL
MODEL 4
REMARK VINA RESULT:      -5.6      1.688      1.722
REMARK  Name = Tolazoline
REMARK  2 active torsions:
REMARK  status: ('A' for Active; 'I' for Inactive)
REMARK    1  A    between atoms: C_1  and  C_2
REMARK    2  A    between atoms: C_1  and  C_7
REMARK                            x       y       z     vdW  Elec       q    Type
REMARK                         _______ _______ _______ _____ _____    ______ ____
ROOT
ATOM      1  C   UNL     1     -11.580   6.485 130.984  0.00  0.00    +0.000 C 
ENDROOT
BRANCH   1   2
ATOM      2  C   UNL     1     -10.739   5.298 130.549  0.00  0.00    +0.000 C 
ATOM      3  N   UNL     1      -9.529   5.450 130.077  0.00  0.00    +0.000 NA
ATOM      4  C   UNL     1      -9.050   4.049 129.865  0.00  0.00    +0.000 C 
ATOM      5  C   UNL     1      -9.977   3.169 130.706  0.00  0.00    +0.000 C 
ATOM      6  N   UNL     1     -11.166   3.993 130.707  0.00  0.00    +0.000 N 
ATOM      7  H   UNL     1     -11.898   3.798 131.377  0.00  0.00    +0.000 HD
ENDBRANCH   1   2
BRANCH   1   8
ATOM      8  C   UNL     1     -12.313   7.191 129.856  0.00  0.00    +0.000 A 
ATOM      9  C   UNL     1     -12.375   8.593 129.834  0.00  0.00    +0.000 A 
ATOM     10  C   UNL     1     -13.128   9.257 128.858  0.00  0.00    +0.000 A 
ATOM     11  C   UNL     1     -13.776   8.534 127.857  0.00  0.00    +0.000 A 
ATOM     12  C   UNL     1     -13.696   7.149 127.846  0.00  0.00    +0.000 A 
ATOM     13  C   UNL     1     -12.991   6.489 128.848  0.00  0.00    +0.000 A 
ENDBRANCH   1   8
TORSDOF 2
ENDMDL
MODEL 5
REMARK VINA RESULT:      -5.2     10.745     12.125
REMARK  Name = Tolazoline
REMARK  2 active torsions:
REMARK  status: ('A' for Active; 'I' for Inactive)
REMARK    1  A    between atoms: C_1  and  C_2
REMARK    2  A    between atoms: C_1  and  C_7
REMARK                            x       y       z     vdW  Elec       q    Type
REMARK                         _______ _______ _______ _____ _____    ______ ____
ROOT
ATOM      1  C   UNL     1      -9.242  -1.261 122.802  0.00  0.00    +0.000 C 
ENDROOT
BRANCH   1   2
ATOM      2  C   UNL     1      -9.293   0.123 123.424  0.00  0.00    +0.000 C 
ATOM      3  N   UNL     1      -8.952   0.329 124.670  0.00  0.00    +0.000 NA
ATOM      4  C   UNL     1      -9.065   1.811 124.831  0.00  0.00    +0.000 C 
ATOM      5  C   UNL     1      -9.062   2.378 123.410  0.00  0.00    +0.000 C 
ATOM      6  N   UNL     1      -9.617   1.251 122.693  0.00  0.00    +0.000 N 
ATOM      7  H   UNL     1      -9.531   1.218 121.686  0.00  0.00    +0.000 HD
ENDBRANCH   1   2
BRANCH   1   8
ATOM      8  C   UNL     1      -8.019  -2.082 123.176  0.00  0.00    +0.000 A 
ATOM      9  C   UNL     1      -8.154  -3.183 124.036  0.00  0.00    +0.000 A 
ATOM     10  C   UNL     1      -7.026  -3.889 124.469  0.00  0.00    +0.000 A 
ATOM     11  C   UNL     1      -5.758  -3.547 124.001  0.00  0.00    +0.000 A 
ATOM     12  C   UNL     1      -5.613  -2.482 123.123  0.00  0.00    +0.000 A 
ATOM     13  C   UNL     1      -6.730  -1.747 122.736  0.00  0.00    +0.000 A 
ENDBRANCH   1   8
TORSDOF 2
ENDMDL
MODEL 6
REMARK VINA RESULT:      -5.2     11.328     12.348
REMARK  Name = Tolazoline
REMARK  2 active torsions:
REMARK  status: ('A' for Active; 'I' for Inactive)
REMARK    1  A    between atoms: C_1  and  C_2
REMARK    2  A    between atoms: C_1  and  C_7
REMARK                            x       y       z     vdW  Elec       q    Type
REMARK                         _______ _______ _______ _____ _____    ______ ____
ROOT
ATOM      1  C   UNL     1      -8.858  -3.438 125.187  0.00  0.00    +0.000 C 
ENDROOT
BRANCH   1   2
ATOM      2  C   UNL     1      -8.658  -3.131 126.660  0.00  0.00    +0.000 C 
ATOM      3  N   UNL     1      -8.896  -4.023 127.586  0.00  0.00    +0.000 NA
ATOM      4  C   UNL     1      -8.491  -3.341 128.853  0.00  0.00    +0.000 C 
ATOM      5  C   UNL     1      -7.599  -2.175 128.421  0.00  0.00    +0.000 C 
ATOM      6  N   UNL     1      -8.134  -1.929 127.101  0.00  0.00    +0.000 N 
ATOM      7  H   UNL     1      -7.603  -1.364 126.452  0.00  0.00    +0.000 HD
ENDBRANCH   1   2
BRANCH   1   8
ATOM      8  C   UNL     1      -7.674  -3.092 124.299  0.00  0.00    +0.000 A 
ATOM      9  C   UNL     1      -6.472  -3.805 124.432  0.00  0.00    +0.000 A 
ATOM     10  C   UNL     1      -5.342  -3.436 123.692  0.00  0.00    +0.000 A 
ATOM     11  C   UNL     1      -5.414  -2.395 122.768  0.00  0.00    +0.000 A 
ATOM     12  C   UNL     1      -6.605  -1.704 122.601  0.00  0.00    +0.000 A 
ATOM     13  C   UNL     1      -7.712  -2.037 123.376  0.00  0.00    +0.000 A 
ENDBRANCH   1   8
TORSDOF 2
ENDMDL
MODEL 7
REMARK VINA RESULT:      -5.2      9.317     10.229
REMARK  Name = Tolazoline
REMARK  2 active torsions:
REMARK  status: ('A' for Active; 'I' for Inactive)
REMARK    1  A    between atoms: C_1  and  C_2
REMARK    2  A    between atoms: C_1  and  C_7
REMARK                            x       y       z     vdW  Elec       q    Type
REMARK                         _______ _______ _______ _____ _____    ______ ____
ROOT
ATOM      1  C   UNL     1      -8.842   2.844 122.330  0.00  0.00    +0.000 C 
ENDROOT
BRANCH   1   2
ATOM      2  C   UNL     1      -8.615   2.136 123.653  0.00  0.00    +0.000 C 
ATOM      3  N   UNL     1      -9.018   2.651 124.786  0.00  0.00    +0.000 NA
ATOM      4  C   UNL     1      -8.675   1.604 125.797  0.00  0.00    +0.000 C 
ATOM      5  C   UNL     1      -8.469   0.316 124.997  0.00  0.00    +0.000 C 
ATOM      6  N   UNL     1      -8.051   0.876 123.731  0.00  0.00    +0.000 N 
ATOM      7  H   UNL     1      -8.060   0.288 122.907  0.00  0.00    +0.000 HD
ENDBRANCH   1   2
BRANCH   1   8
ATOM      8  C   UNL     1      -7.589   3.425 121.697  0.00  0.00    +0.000 A 
ATOM      9  C   UNL     1      -6.427   3.584 122.468  0.00  0.00    +0.000 A 
ATOM     10  C   UNL     1      -5.296   4.207 121.929  0.00  0.00    +0.000 A 
ATOM     11  C   UNL     1      -5.287   4.622 120.599  0.00  0.00    +0.000 A 
ATOM     12  C   UNL     1      -6.416   4.441 119.814  0.00  0.00    +0.000 A 
ATOM     13  C   UNL     1      -7.559   3.870 120.366  0.00  0.00    +0.000 A 
ENDBRANCH   1   8
TORSDOF 2
ENDMDL
MODEL 8
REMARK VINA RESULT:      -4.9     10.916     12.397
REMARK  Name = Tolazoline
REMARK  2 active torsions:
REMARK  status: ('A' for Active; 'I' for Inactive)
REMARK    1  A    between atoms: C_1  and  C_2
REMARK    2  A    between atoms: C_1  and  C_7
REMARK                            x       y       z     vdW  Elec       q    Type
REMARK                         _______ _______ _______ _____ _____    ______ ____
ROOT
ATOM      1  C   UNL     1      -8.557  -1.649 124.650  0.00  0.00    +0.000 C 
ENDROOT
BRANCH   1   2
ATOM      2  C   UNL     1      -9.081  -0.450 123.880  0.00  0.00    +0.000 C 
ATOM      3  N   UNL     1      -9.956  -0.583 122.916  0.00  0.00    +0.000 NA
ATOM      4  C   UNL     1     -10.251   0.824 122.505  0.00  0.00    +0.000 C 
ATOM      5  C   UNL     1      -9.773   1.697 123.668  0.00  0.00    +0.000 C 
ATOM      6  N   UNL     1      -8.734   0.847 124.205  0.00  0.00    +0.000 N 
ATOM      7  H   UNL     1      -8.374   1.037 125.131  0.00  0.00    +0.000 HD
ENDBRANCH   1   2
BRANCH   1   8
ATOM      8  C   UNL     1      -7.205  -2.162 124.184  0.00  0.00    +0.000 A 
ATOM      9  C   UNL     1      -6.742  -1.840 122.899  0.00  0.00    +0.000 A 
ATOM     10  C   UNL     1      -5.545  -2.384 122.417  0.00  0.00    +0.000 A 
ATOM     11  C   UNL     1      -4.766  -3.203 123.232  0.00  0.00    +0.000 A 
ATOM     12  C   UNL     1      -5.194  -3.503 124.518  0.00  0.00    +0.000 A 
ATOM     13  C   UNL     1      -6.410  -3.005 124.976  0.00  0.00    +0.000 A 
ENDBRANCH   1   8
TORSDOF 2
ENDMDL
MODEL 9
REMARK VINA RESULT:      -4.9      9.473     10.940
REMARK  Name = Tolazoline
REMARK  2 active torsions:
REMARK  status: ('A' for Active; 'I' for Inactive)
REMARK    1  A    between atoms: C_1  and  C_2
REMARK    2  A    between atoms: C_1  and  C_7
REMARK                            x       y       z     vdW  Elec       q    Type
REMARK                         _______ _______ _______ _____ _____    ______ ____
ROOT
ATOM      1  C   UNL     1      -8.528  -1.962 124.888  0.00  0.00    +0.000 C 
ENDROOT
BRANCH   1   2
ATOM      2  C   UNL     1      -8.768  -0.480 124.661  0.00  0.00    +0.000 C 
ATOM      3  N   UNL     1      -9.915   0.082 124.942  0.00  0.00    +0.000 NA
ATOM      4  C   UNL     1      -9.686   1.530 124.653  0.00  0.00    +0.000 C 
ATOM      5  C   UNL     1      -8.166   1.705 124.627  0.00  0.00    +0.000 C 
ATOM      6  N   UNL     1      -7.770   0.373 124.227  0.00  0.00    +0.000 N 
ATOM      7  H   UNL     1      -6.806   0.091 124.343  0.00  0.00    +0.000 HD
ENDBRANCH   1   2
BRANCH   1   8
ATOM      8  C   UNL     1      -8.488  -2.382 126.348  0.00  0.00    +0.000 A 
ATOM      9  C   UNL     1      -7.811  -1.585 127.284  0.00  0.00    +0.000 A 
ATOM     10  C   UNL     1      -7.679  -2.006 128.613  0.00  0.00    +0.000 A 
ATOM     11  C   UNL     1      -8.274  -3.193 129.038  0.00  0.00    +0.000 A 
ATOM     12  C   UNL     1      -8.976  -3.974 128.131  0.00  0.00    +0.000 A 
ATOM     13  C   UNL     1      -9.060  -3.581 126.798  0.00  0.00    +0.000 A 
ENDBRANCH   1   8
TORSDOF 2
ENDMDL
