MODEL 1
REMARK VINA RESULT:      -8.2      0.000      0.000
REMARK  Name = Tolazamide
REMARK  4 active torsions:
REMARK  status: ('A' for Active; 'I' for Inactive)
REMARK    1  A    between atoms: C_1  and  C_2
REMARK    2  A    between atoms: C_5  and  S_8
REMARK    3  A    between atoms: S_8  and  N_11
REMARK    4  A    between atoms: N_14  and  N_15
REMARK                            x       y       z     vdW  Elec       q    Type
REMARK                         _______ _______ _______ _____ _____    ______ ____
ROOT
ATOM      1  N   UNL     1      -7.614   1.298 124.103  0.00  0.00    +0.000 N 
ATOM      2  C   UNL     1      -8.107   0.571 125.196  0.00  0.00    +0.000 C 
ATOM      3  O   UNL     1      -9.162   0.908 125.726  0.00  0.00    +0.000 OA
ATOM      4  N   UNL     1      -7.357  -0.542 125.603  0.00  0.00    +0.000 N 
ATOM      5  H   UNL     1      -6.719   1.092 123.698  0.00  0.00    +0.000 HD
ATOM      6  H   UNL     1      -6.422  -0.686 125.242  0.00  0.00    +0.000 HD
ENDROOT
BRANCH   4   7
ATOM      7  N   UNL     1      -7.828  -1.436 126.659  0.00  0.00    +0.000 NA
ATOM      8  C   UNL     1      -8.049  -2.806 126.154  0.00  0.00    +0.000 C 
ATOM      9  C   UNL     1      -9.238  -3.485 126.831  0.00  0.00    +0.000 C 
ATOM     10  C   UNL     1      -8.892  -4.152 128.149  0.00  0.00    +0.000 C 
ATOM     11  C   UNL     1      -8.283  -3.198 129.169  0.00  0.00    +0.000 C 
ATOM     12  C   UNL     1      -6.912  -2.672 128.748  0.00  0.00    +0.000 C 
ATOM     13  C   UNL     1      -6.954  -1.412 127.856  0.00  0.00    +0.000 C 
ENDBRANCH   4   7
BRANCH   1  14
ATOM     14  S   UNL     1      -8.580   2.529 123.452  0.00  0.00    +0.000 S 
ATOM     15  O   UNL     1      -8.688   3.581 124.441  0.00  0.00    +0.000 OA
ATOM     16  O   UNL     1      -9.737   1.906 122.845  0.00  0.00    +0.000 OA
BRANCH  14  21
ATOM     17  C   UNL     1      -5.709   5.197 118.772  0.00  0.00    +0.000 C 
ATOM     18  C   UNL     1      -6.415   4.515 119.909  0.00  0.00    +0.000 A 
ATOM     19  C   UNL     1      -7.780   4.218 119.846  0.00  0.00    +0.000 A 
ATOM     20  C   UNL     1      -8.419   3.600 120.931  0.00  0.00    +0.000 A 
ATOM     21  C   UNL     1      -7.691   3.274 122.090  0.00  0.00    +0.000 A 
ATOM     22  C   UNL     1      -6.332   3.559 122.151  0.00  0.00    +0.000 A 
ATOM     23  C   UNL     1      -5.701   4.177 121.065  0.00  0.00    +0.000 A 
ENDBRANCH  14  21
ENDBRANCH   1  14
TORSDOF 3
ENDMDL
MODEL 2
REMARK VINA RESULT:      -7.4      9.462     10.494
REMARK  Name = Tolazamide
REMARK  4 active torsions:
REMARK  status: ('A' for Active; 'I' for Inactive)
REMARK    1  A    between atoms: C_1  and  C_2
REMARK    2  A    between atoms: C_5  and  S_8
REMARK    3  A    between atoms: S_8  and  N_11
REMARK    4  A    between atoms: N_14  and  N_15
REMARK                            x       y       z     vdW  Elec       q    Type
REMARK                         _______ _______ _______ _____ _____    ______ ____
ROOT
ATOM      1  N   UNL     1      -7.757   6.773 131.128  0.00  0.00    +0.000 N 
ATOM      2  C   UNL     1      -6.615   6.379 131.842  0.00  0.00    +0.000 C 
ATOM      3  O   UNL     1      -6.730   5.639 132.814  0.00  0.00    +0.000 OA
ATOM      4  N   UNL     1      -5.380   6.845 131.365  0.00  0.00    +0.000 N 
ATOM      5  H   UNL     1      -7.701   7.436 130.376  0.00  0.00    +0.000 HD
ATOM      6  H   UNL     1      -5.348   7.574 130.663  0.00  0.00    +0.000 HD
ENDROOT
BRANCH   4   7
ATOM      7  N   UNL     1      -4.119   6.413 131.962  0.00  0.00    +0.000 NA
ATOM      8  C   UNL     1      -3.620   5.171 131.340  0.00  0.00    +0.000 C 
ATOM      9  C   UNL     1      -2.915   4.264 132.347  0.00  0.00    +0.000 C 
ATOM     10  C   UNL     1      -1.453   4.607 132.560  0.00  0.00    +0.000 C 
ATOM     11  C   UNL     1      -1.227   6.043 133.018  0.00  0.00    +0.000 C 
ATOM     12  C   UNL     1      -1.610   7.073 131.957  0.00  0.00    +0.000 C 
ATOM     13  C   UNL     1      -3.097   7.488 131.970  0.00  0.00    +0.000 C 
ENDBRANCH   4   7
BRANCH   1  14
ATOM     14  S   UNL     1      -9.246   6.081 131.545  0.00  0.00    +0.000 S 
ATOM     15  O   UNL     1      -9.513   6.398 132.932  0.00  0.00    +0.000 OA
ATOM     16  O   UNL     1      -9.259   4.725 131.038  0.00  0.00    +0.000 OA
BRANCH  14  21
ATOM     17  C   UNL     1     -13.532   8.912 128.247  0.00  0.00    +0.000 C 
ATOM     18  C   UNL     1     -12.470   8.241 129.070  0.00  0.00    +0.000 A 
ATOM     19  C   UNL     1     -11.118   8.316 128.718  0.00  0.00    +0.000 A 
ATOM     20  C   UNL     1     -10.150   7.663 129.493  0.00  0.00    +0.000 A 
ATOM     21  C   UNL     1     -10.530   6.927 130.630  0.00  0.00    +0.000 A 
ATOM     22  C   UNL     1     -11.872   6.858 130.988  0.00  0.00    +0.000 A 
ATOM     23  C   UNL     1     -12.833   7.512 130.209  0.00  0.00    +0.000 A 
ENDBRANCH  14  21
ENDBRANCH   1  14
TORSDOF 3
ENDMDL
MODEL 3
REMARK VINA RESULT:      -7.1      1.892      8.601
REMARK  Name = Tolazamide
REMARK  4 active torsions:
REMARK  status: ('A' for Active; 'I' for Inactive)
REMARK    1  A    between atoms: C_1  and  C_2
REMARK    2  A    between atoms: C_5  and  S_8
REMARK    3  A    between atoms: S_8  and  N_11
REMARK    4  A    between atoms: N_14  and  N_15
REMARK                            x       y       z     vdW  Elec       q    Type
REMARK                         _______ _______ _______ _____ _____    ______ ____
ROOT
ATOM      1  N   UNL     1      -7.555  -0.058 125.309  0.00  0.00    +0.000 N 
ATOM      2  C   UNL     1      -7.580   0.405 123.986  0.00  0.00    +0.000 C 
ATOM      3  O   UNL     1      -8.001  -0.324 123.093  0.00  0.00    +0.000 OA
ATOM      4  N   UNL     1      -7.140   1.720 123.769  0.00  0.00    +0.000 N 
ATOM      5  H   UNL     1      -7.148   0.488 126.047  0.00  0.00    +0.000 HD
ATOM      6  H   UNL     1      -6.659   2.224 124.504  0.00  0.00    +0.000 HD
ENDROOT
BRANCH   4   7
ATOM      7  N   UNL     1      -7.223   2.346 122.452  0.00  0.00    +0.000 NA
ATOM      8  C   UNL     1      -8.389   3.246 122.349  0.00  0.00    +0.000 C 
ATOM      9  C   UNL     1      -9.008   3.231 120.953  0.00  0.00    +0.000 C 
ATOM     10  C   UNL     1      -8.337   4.179 119.976  0.00  0.00    +0.000 C 
ATOM     11  C   UNL     1      -6.846   3.918 119.806  0.00  0.00    +0.000 C 
ATOM     12  C   UNL     1      -6.043   4.202 121.075  0.00  0.00    +0.000 C 
ATOM     13  C   UNL     1      -5.959   3.016 122.061  0.00  0.00    +0.000 C 
ENDBRANCH   4   7
BRANCH   1  14
ATOM     14  S   UNL     1      -8.256  -1.562 125.650  0.00  0.00    +0.000 S 
ATOM     15  O   UNL     1      -7.476  -2.580 124.979  0.00  0.00    +0.000 OA
ATOM     16  O   UNL     1      -9.686  -1.432 125.471  0.00  0.00    +0.000 OA
BRANCH  14  21
ATOM     17  C   UNL     1      -7.436  -2.893 131.551  0.00  0.00    +0.000 C 
ATOM     18  C   UNL     1      -7.667  -2.564 130.103  0.00  0.00    +0.000 A 
ATOM     19  C   UNL     1      -8.141  -3.524 129.204  0.00  0.00    +0.000 A 
ATOM     20  C   UNL     1      -8.326  -3.196 127.854  0.00  0.00    +0.000 A 
ATOM     21  C   UNL     1      -8.038  -1.898 127.393  0.00  0.00    +0.000 A 
ATOM     22  C   UNL     1      -7.577  -0.938 128.288  0.00  0.00    +0.000 A 
ATOM     23  C   UNL     1      -7.393  -1.274 129.634  0.00  0.00    +0.000 A 
ENDBRANCH  14  21
ENDBRANCH   1  14
TORSDOF 3
ENDMDL
MODEL 4
REMARK VINA RESULT:      -7.0      6.543      9.666
REMARK  Name = Tolazamide
REMARK  4 active torsions:
REMARK  status: ('A' for Active; 'I' for Inactive)
REMARK    1  A    between atoms: C_1  and  C_2
REMARK    2  A    between atoms: C_5  and  S_8
REMARK    3  A    between atoms: S_8  and  N_11
REMARK    4  A    between atoms: N_14  and  N_15
REMARK                            x       y       z     vdW  Elec       q    Type
REMARK                         _______ _______ _______ _____ _____    ______ ____
ROOT
ATOM      1  N   UNL     1      -9.309   3.202 129.833  0.00  0.00    +0.000 N 
ATOM      2  C   UNL     1      -9.703   4.533 129.639  0.00  0.00    +0.000 C 
ATOM      3  O   UNL     1      -9.077   5.246 128.860  0.00  0.00    +0.000 OA
ATOM      4  N   UNL     1     -10.836   4.966 130.345  0.00  0.00    +0.000 N 
ATOM      5  H   UNL     1      -9.756   2.619 130.519  0.00  0.00    +0.000 HD
ATOM      6  H   UNL     1     -11.221   4.398 131.088  0.00  0.00    +0.000 HD
ENDROOT
BRANCH   4   7
ATOM      7  N   UNL     1     -11.401   6.298 130.139  0.00  0.00    +0.000 NA
ATOM      8  C   UNL     1     -12.369   6.313 129.025  0.00  0.00    +0.000 C 
ATOM      9  C   UNL     1     -12.327   7.623 128.241  0.00  0.00    +0.000 C 
ATOM     10  C   UNL     1     -13.181   8.723 128.843  0.00  0.00    +0.000 C 
ATOM     11  C   UNL     1     -12.815   9.054 130.284  0.00  0.00    +0.000 C 
ATOM     12  C   UNL     1     -13.107   7.907 131.250  0.00  0.00    +0.000 C 
ATOM     13  C   UNL     1     -11.967   6.872 131.383  0.00  0.00    +0.000 C 
ENDBRANCH   4   7
BRANCH   1  14
ATOM     14  S   UNL     1      -8.071   2.577 128.861  0.00  0.00    +0.000 S 
ATOM     15  O   UNL     1      -6.813   3.100 129.350  0.00  0.00    +0.000 OA
ATOM     16  O   UNL     1      -8.486   2.708 127.481  0.00  0.00    +0.000 OA
BRANCH  14  21
ATOM     17  C   UNL     1      -7.577  -3.449 129.702  0.00  0.00    +0.000 C 
ATOM     18  C   UNL     1      -7.726  -1.970 129.484  0.00  0.00    +0.000 A 
ATOM     19  C   UNL     1      -7.592  -1.403 128.212  0.00  0.00    +0.000 A 
ATOM     20  C   UNL     1      -7.714  -0.018 128.041  0.00  0.00    +0.000 A 
ATOM     21  C   UNL     1      -7.972   0.814 129.146  0.00  0.00    +0.000 A 
ATOM     22  C   UNL     1      -8.115   0.252 130.411  0.00  0.00    +0.000 A 
ATOM     23  C   UNL     1      -7.991  -1.132 130.574  0.00  0.00    +0.000 A 
ENDBRANCH  14  21
ENDBRANCH   1  14
TORSDOF 3
ENDMDL
MODEL 5
REMARK VINA RESULT:      -7.0      4.583      6.784
REMARK  Name = Tolazamide
REMARK  4 active torsions:
REMARK  status: ('A' for Active; 'I' for Inactive)
REMARK    1  A    between atoms: C_1  and  C_2
REMARK    2  A    between atoms: C_5  and  S_8
REMARK    3  A    between atoms: S_8  and  N_11
REMARK    4  A    between atoms: N_14  and  N_15
REMARK                            x       y       z     vdW  Elec       q    Type
REMARK                         _______ _______ _______ _____ _____    ______ ____
ROOT
ATOM      1  N   UNL     1      -7.981   0.092 126.604  0.00  0.00    +0.000 N 
ATOM      2  C   UNL     1      -8.559   1.304 127.008  0.00  0.00    +0.000 C 
ATOM      3  O   UNL     1      -9.359   1.873 126.272  0.00  0.00    +0.000 OA
ATOM      4  N   UNL     1      -8.198   1.783 128.277  0.00  0.00    +0.000 N 
ATOM      5  H   UNL     1      -7.269  -0.357 127.151  0.00  0.00    +0.000 HD
ATOM      6  H   UNL     1      -7.423   1.367 128.777  0.00  0.00    +0.000 HD
ENDROOT
BRANCH   4   7
ATOM      7  N   UNL     1      -8.818   2.976 128.848  0.00  0.00    +0.000 NA
ATOM      8  C   UNL     1      -9.381   2.711 130.186  0.00  0.00    +0.000 C 
ATOM      9  C   UNL     1     -10.664   3.499 130.440  0.00  0.00    +0.000 C 
ATOM     10  C   UNL     1     -10.425   4.909 130.949  0.00  0.00    +0.000 C 
ATOM     11  C   UNL     1      -9.561   5.750 130.018  0.00  0.00    +0.000 C 
ATOM     12  C   UNL     1      -8.125   5.238 129.914  0.00  0.00    +0.000 C 
ATOM     13  C   UNL     1      -7.908   4.147 128.843  0.00  0.00    +0.000 C 
ENDBRANCH   4   7
BRANCH   1  14
ATOM     14  S   UNL     1      -8.531  -0.624 125.170  0.00  0.00    +0.000 S 
ATOM     15  O   UNL     1      -8.472   0.372 124.122  0.00  0.00    +0.000 OA
ATOM     16  O   UNL     1      -9.740  -1.359 125.481  0.00  0.00    +0.000 OA
BRANCH  14  21
ATOM     17  C   UNL     1      -4.344  -4.777 123.593  0.00  0.00    +0.000 C 
ATOM     18  C   UNL     1      -5.379  -3.749 123.953  0.00  0.00    +0.000 A 
ATOM     19  C   UNL     1      -5.091  -2.381 123.918  0.00  0.00    +0.000 A 
ATOM     20  C   UNL     1      -6.068  -1.444 124.280  0.00  0.00    +0.000 A 
ATOM     21  C   UNL     1      -7.347  -1.872 124.680  0.00  0.00    +0.000 A 
ATOM     22  C   UNL     1      -7.640  -3.232 124.705  0.00  0.00    +0.000 A 
ATOM     23  C   UNL     1      -6.659  -4.161 124.344  0.00  0.00    +0.000 A 
ENDBRANCH  14  21
ENDBRANCH   1  14
TORSDOF 3
ENDMDL
MODEL 6
REMARK VINA RESULT:      -7.0      7.955      9.616
REMARK  Name = Tolazamide
REMARK  4 active torsions:
REMARK  status: ('A' for Active; 'I' for Inactive)
REMARK    1  A    between atoms: C_1  and  C_2
REMARK    2  A    between atoms: C_5  and  S_8
REMARK    3  A    between atoms: S_8  and  N_11
REMARK    4  A    between atoms: N_14  and  N_15
REMARK                            x       y       z     vdW  Elec       q    Type
REMARK                         _______ _______ _______ _____ _____    ______ ____
ROOT
ATOM      1  N   UNL     1      -6.744   5.191 130.576  0.00  0.00    +0.000 N 
ATOM      2  C   UNL     1      -7.707   6.210 130.545  0.00  0.00    +0.000 C 
ATOM      3  O   UNL     1      -7.395   7.353 130.863  0.00  0.00    +0.000 OA
ATOM      4  N   UNL     1      -8.992   5.851 130.109  0.00  0.00    +0.000 N 
ATOM      5  H   UNL     1      -6.988   4.234 130.393  0.00  0.00    +0.000 HD
ATOM      6  H   UNL     1      -9.242   4.875 130.010  0.00  0.00    +0.000 HD
ENDROOT
BRANCH   4   7
ATOM      7  N   UNL     1     -10.045   6.848 129.933  0.00  0.00    +0.000 NA
ATOM      8  C   UNL     1     -10.428   6.991 128.514  0.00  0.00    +0.000 C 
ATOM      9  C   UNL     1     -10.792   8.430 128.157  0.00  0.00    +0.000 C 
ATOM     10  C   UNL     1     -12.234   8.791 128.461  0.00  0.00    +0.000 C 
ATOM     11  C   UNL     1     -12.614   8.585 129.922  0.00  0.00    +0.000 C 
ATOM     12  C   UNL     1     -12.593   7.116 130.341  0.00  0.00    +0.000 C 
ATOM     13  C   UNL     1     -11.215   6.600 130.809  0.00  0.00    +0.000 C 
ENDBRANCH   4   7
BRANCH   1  14
ATOM     14  S   UNL     1      -5.136   5.611 130.905  0.00  0.00    +0.000 S 
ATOM     15  O   UNL     1      -4.743   4.944 132.128  0.00  0.00    +0.000 OA
ATOM     16  O   UNL     1      -5.009   7.041 130.720  0.00  0.00    +0.000 OA
BRANCH  14  21
ATOM     17  C   UNL     1      -1.757   3.027 126.527  0.00  0.00    +0.000 C 
ATOM     18  C   UNL     1      -2.570   3.653 127.625  0.00  0.00    +0.000 A 
ATOM     19  C   UNL     1      -3.442   2.892 128.410  0.00  0.00    +0.000 A 
ATOM     20  C   UNL     1      -4.205   3.504 129.413  0.00  0.00    +0.000 A 
ATOM     21  C   UNL     1      -4.100   4.889 129.638  0.00  0.00    +0.000 A 
ATOM     22  C   UNL     1      -3.226   5.647 128.866  0.00  0.00    +0.000 A 
ATOM     23  C   UNL     1      -2.468   5.028 127.865  0.00  0.00    +0.000 A 
ENDBRANCH  14  21
ENDBRANCH   1  14
TORSDOF 3
ENDMDL
MODEL 7
REMARK VINA RESULT:      -7.0      4.926      6.368
REMARK  Name = Tolazamide
REMARK  4 active torsions:
REMARK  status: ('A' for Active; 'I' for Inactive)
REMARK    1  A    between atoms: C_1  and  C_2
REMARK    2  A    between atoms: C_5  and  S_8
REMARK    3  A    between atoms: S_8  and  N_11
REMARK    4  A    between atoms: N_14  and  N_15
REMARK                            x       y       z     vdW  Elec       q    Type
REMARK                         _______ _______ _______ _____ _____    ______ ____
ROOT
ATOM      1  N   UNL     1      -6.506   2.721 126.088  0.00  0.00    +0.000 N 
ATOM      2  C   UNL     1      -6.263   3.996 126.621  0.00  0.00    +0.000 C 
ATOM      3  O   UNL     1      -6.974   4.940 126.290  0.00  0.00    +0.000 OA
ATOM      4  N   UNL     1      -5.214   4.103 127.547  0.00  0.00    +0.000 N 
ATOM      5  H   UNL     1      -5.897   1.948 126.284  0.00  0.00    +0.000 HD
ATOM      6  H   UNL     1      -4.562   3.339 127.668  0.00  0.00    +0.000 HD
ENDROOT
BRANCH   4   7
ATOM      7  N   UNL     1      -4.939   5.355 128.248  0.00  0.00    +0.000 NA
ATOM      8  C   UNL     1      -4.818   5.149 129.704  0.00  0.00    +0.000 C 
ATOM      9  C   UNL     1      -5.373   6.328 130.502  0.00  0.00    +0.000 C 
ATOM     10  C   UNL     1      -4.379   7.457 130.697  0.00  0.00    +0.000 C 
ATOM     11  C   UNL     1      -3.838   8.020 129.389  0.00  0.00    +0.000 C 
ATOM     12  C   UNL     1      -2.981   7.017 128.618  0.00  0.00    +0.000 C 
ATOM     13  C   UNL     1      -3.775   6.078 127.683  0.00  0.00    +0.000 C 
ENDBRANCH   4   7
BRANCH   1  14
ATOM     14  S   UNL     1      -7.879   2.501 125.120  0.00  0.00    +0.000 S 
ATOM     15  O   UNL     1      -8.893   3.432 125.566  0.00  0.00    +0.000 OA
ATOM     16  O   UNL     1      -8.118   1.078 125.014  0.00  0.00    +0.000 OA
BRANCH  14  21
ATOM     17  C   UNL     1      -6.692   4.394 119.439  0.00  0.00    +0.000 C 
ATOM     18  C   UNL     1      -6.984   3.900 120.828  0.00  0.00    +0.000 A 
ATOM     19  C   UNL     1      -8.269   3.492 121.201  0.00  0.00    +0.000 A 
ATOM     20  C   UNL     1      -8.518   3.056 122.509  0.00  0.00    +0.000 A 
ATOM     21  C   UNL     1      -7.479   3.026 123.457  0.00  0.00    +0.000 A 
ATOM     22  C   UNL     1      -6.198   3.422 123.086  0.00  0.00    +0.000 A 
ATOM     23  C   UNL     1      -5.957   3.857 121.778  0.00  0.00    +0.000 A 
ENDBRANCH  14  21
ENDBRANCH   1  14
TORSDOF 3
ENDMDL
MODEL 8
REMARK VINA RESULT:      -6.9      6.801      8.149
REMARK  Name = Tolazamide
REMARK  4 active torsions:
REMARK  status: ('A' for Active; 'I' for Inactive)
REMARK    1  A    between atoms: C_1  and  C_2
REMARK    2  A    between atoms: C_5  and  S_8
REMARK    3  A    between atoms: S_8  and  N_11
REMARK    4  A    between atoms: N_14  and  N_15
REMARK                            x       y       z     vdW  Elec       q    Type
REMARK                         _______ _______ _______ _____ _____    ______ ____
ROOT
ATOM      1  N   UNL     1      -8.159   5.122 130.049  0.00  0.00    +0.000 N 
ATOM      2  C   UNL     1      -8.729   4.112 129.261  0.00  0.00    +0.000 C 
ATOM      3  O   UNL     1      -9.857   3.702 129.518  0.00  0.00    +0.000 OA
ATOM      4  N   UNL     1      -7.963   3.646 128.181  0.00  0.00    +0.000 N 
ATOM      5  H   UNL     1      -7.212   5.424 129.908  0.00  0.00    +0.000 HD
ATOM      6  H   UNL     1      -6.986   3.898 128.104  0.00  0.00    +0.000 HD
ENDROOT
BRANCH   4   7
ATOM      7  N   UNL     1      -8.497   2.675 127.230  0.00  0.00    +0.000 NA
ATOM      8  C   UNL     1      -7.909   2.848 125.887  0.00  0.00    +0.000 C 
ATOM      9  C   UNL     1      -8.913   2.553 124.774  0.00  0.00    +0.000 C 
ATOM     10  C   UNL     1      -9.010   1.083 124.413  0.00  0.00    +0.000 C 
ATOM     11  C   UNL     1      -9.378   0.192 125.594  0.00  0.00    +0.000 C 
ATOM     12  C   UNL     1      -8.292   0.150 126.668  0.00  0.00    +0.000 C 
ATOM     13  C   UNL     1      -8.382   1.279 127.718  0.00  0.00    +0.000 C 
ENDBRANCH   4   7
BRANCH   1  14
ATOM     14  S   UNL     1      -9.118   5.853 131.240  0.00  0.00    +0.000 S 
ATOM     15  O   UNL     1      -8.289   6.792 131.965  0.00  0.00    +0.000 OA
ATOM     16  O   UNL     1      -9.874   4.809 131.898  0.00  0.00    +0.000 OA
BRANCH  14  21
ATOM     17  C   UNL     1     -13.381   9.364 128.640  0.00  0.00    +0.000 C 
ATOM     18  C   UNL     1     -12.344   8.476 129.267  0.00  0.00    +0.000 A 
ATOM     19  C   UNL     1     -12.638   7.689 130.385  0.00  0.00    +0.000 A 
ATOM     20  C   UNL     1     -11.645   6.886 130.963  0.00  0.00    +0.000 A 
ATOM     21  C   UNL     1     -10.346   6.866 130.424  0.00  0.00    +0.000 A 
ATOM     22  C   UNL     1     -10.054   7.640 129.306  0.00  0.00    +0.000 A 
ATOM     23  C   UNL     1     -11.050   8.440 128.735  0.00  0.00    +0.000 A 
ENDBRANCH  14  21
ENDBRANCH   1  14
TORSDOF 3
ENDMDL
MODEL 9
REMARK VINA RESULT:      -6.8      1.337      2.016
REMARK  Name = Tolazamide
REMARK  4 active torsions:
REMARK  status: ('A' for Active; 'I' for Inactive)
REMARK    1  A    between atoms: C_1  and  C_2
REMARK    2  A    between atoms: C_5  and  S_8
REMARK    3  A    between atoms: S_8  and  N_11
REMARK    4  A    between atoms: N_14  and  N_15
REMARK                            x       y       z     vdW  Elec       q    Type
REMARK                         _______ _______ _______ _____ _____    ______ ____
ROOT
ATOM      1  N   UNL     1      -7.255   0.710 124.534  0.00  0.00    +0.000 N 
ATOM      2  C   UNL     1      -7.026   0.073 125.762  0.00  0.00    +0.000 C 
ATOM      3  O   UNL     1      -7.013   0.731 126.798  0.00  0.00    +0.000 OA
ATOM      4  N   UNL     1      -6.851  -1.320 125.728  0.00  0.00    +0.000 N 
ATOM      5  H   UNL     1      -7.197   0.209 123.666  0.00  0.00    +0.000 HD
ATOM      6  H   UNL     1      -6.712  -1.794 124.845  0.00  0.00    +0.000 HD
ENDROOT
BRANCH   4   7
ATOM      7  N   UNL     1      -6.713  -2.102 126.954  0.00  0.00    +0.000 NA
ATOM      8  C   UNL     1      -5.648  -1.569 127.824  0.00  0.00    +0.000 C 
ATOM      9  C   UNL     1      -4.903  -2.674 128.570  0.00  0.00    +0.000 C 
ATOM     10  C   UNL     1      -5.578  -3.105 129.858  0.00  0.00    +0.000 C 
ATOM     11  C   UNL     1      -7.010  -3.587 129.659  0.00  0.00    +0.000 C 
ATOM     12  C   UNL     1      -7.953  -2.477 129.202  0.00  0.00    +0.000 C 
ATOM     13  C   UNL     1      -8.000  -2.262 127.673  0.00  0.00    +0.000 C 
ENDBRANCH   4   7
BRANCH   1  14
ATOM     14  S   UNL     1      -7.665   2.354 124.544  0.00  0.00    +0.000 S 
ATOM     15  O   UNL     1      -6.643   3.063 125.283  0.00  0.00    +0.000 OA
ATOM     16  O   UNL     1      -9.073   2.455 124.865  0.00  0.00    +0.000 OA
BRANCH  14  21
ATOM     17  C   UNL     1      -7.375   4.574 118.865  0.00  0.00    +0.000 C 
ATOM     18  C   UNL     1      -7.449   4.000 120.252  0.00  0.00    +0.000 A 
ATOM     19  C   UNL     1      -8.668   3.610 120.815  0.00  0.00    +0.000 A 
ATOM     20  C   UNL     1      -8.712   3.098 122.119  0.00  0.00    +0.000 A 
ATOM     21  C   UNL     1      -7.529   2.973 122.871  0.00  0.00    +0.000 A 
ATOM     22  C   UNL     1      -6.314   3.351 122.310  0.00  0.00    +0.000 A 
ATOM     23  C   UNL     1      -6.279   3.862 121.008  0.00  0.00    +0.000 A 
ENDBRANCH  14  21
ENDBRANCH   1  14
TORSDOF 3
ENDMDL
