MODEL 1
REMARK VINA RESULT:      -7.0      0.000      0.000
REMARK  Name = Tolbutamide
REMARK  7 active torsions:
REMARK  status: ('A' for Active; 'I' for Inactive)
REMARK    1  A    between atoms: C_1  and  C_2
REMARK    2  A    between atoms: C_2  and  C_3
REMARK    3  A    between atoms: C_3  and  C_4
REMARK    4  A    between atoms: C_4  and  N_5
REMARK    5  A    between atoms: N_8  and  S_9
REMARK    6  A    between atoms: S_9  and  C_12
REMARK    7  A    between atoms: C_15  and  C_16
REMARK                            x       y       z     vdW  Elec       q    Type
REMARK                         _______ _______ _______ _____ _____    ______ ____
ROOT
ATOM      1  N   UNL     1      -7.297  -1.322 124.448  0.00  0.00    +0.000 N 
ATOM      2  C   UNL     1      -8.097  -0.295 123.980  0.00  0.00    +0.000 C 
ATOM      3  O   UNL     1      -8.833  -0.462 123.013  0.00  0.00    +0.000 OA
ATOM      4  N   UNL     1      -8.023   0.934 124.661  0.00  0.00    +0.000 N 
ATOM      5  H   UNL     1      -6.693  -1.185 125.242  0.00  0.00    +0.000 HD
ATOM      6  H   UNL     1      -7.421   1.079 125.458  0.00  0.00    +0.000 HD
ENDROOT
BRANCH   4   7
ATOM      7  S   UNL     1      -8.965   2.253 124.157  0.00  0.00    +0.000 S 
ATOM      8  O   UNL     1     -10.173   1.747 123.540  0.00  0.00    +0.000 OA
ATOM      9  O   UNL     1      -8.998   3.220 125.234  0.00  0.00    +0.000 OA
BRANCH   7  10
ATOM     10  C   UNL     1      -8.033   3.031 122.821  0.00  0.00    +0.000 A 
ATOM     11  C   UNL     1      -8.644   3.302 121.587  0.00  0.00    +0.000 A 
ATOM     12  C   UNL     1      -7.899   3.865 120.538  0.00  0.00    +0.000 A 
ATOM     13  C   UNL     1      -6.535   4.138 120.695  0.00  0.00    +0.000 A 
ATOM     14  C   UNL     1      -5.738   4.766 119.583  0.00  0.00    +0.000 C 
ATOM     15  C   UNL     1      -5.919   3.803 121.910  0.00  0.00    +0.000 A 
ATOM     16  C   UNL     1      -6.657   3.237 122.962  0.00  0.00    +0.000 A 
ENDBRANCH   7  10
ENDBRANCH   4   7
BRANCH   1  17
ATOM     17  C   UNL     1      -7.325  -2.637 123.790  0.00  0.00    +0.000 C 
BRANCH  17  18
ATOM     18  C   UNL     1      -6.237  -3.604 124.272  0.00  0.00    +0.000 C 
BRANCH  18  20
ATOM     19  C   UNL     1      -4.044  -4.630 123.534  0.00  0.00    +0.000 C 
ATOM     20  C   UNL     1      -4.890  -3.363 123.568  0.00  0.00    +0.000 C 
ENDBRANCH  18  20
ENDBRANCH  17  18
ENDBRANCH   1  17
TORSDOF 5
ENDMDL
MODEL 2
REMARK VINA RESULT:      -7.0      1.776      6.415
REMARK  Name = Tolbutamide
REMARK  7 active torsions:
REMARK  status: ('A' for Active; 'I' for Inactive)
REMARK    1  A    between atoms: C_1  and  C_2
REMARK    2  A    between atoms: C_2  and  C_3
REMARK    3  A    between atoms: C_3  and  C_4
REMARK    4  A    between atoms: C_4  and  N_5
REMARK    5  A    between atoms: N_8  and  S_9
REMARK    6  A    between atoms: S_9  and  C_12
REMARK    7  A    between atoms: C_15  and  C_16
REMARK                            x       y       z     vdW  Elec       q    Type
REMARK                         _______ _______ _______ _____ _____    ______ ____
ROOT
ATOM      1  N   UNL     1      -6.702   3.234 122.688  0.00  0.00    +0.000 N 
ATOM      2  C   UNL     1      -6.968   2.204 123.573  0.00  0.00    +0.000 C 
ATOM      3  O   UNL     1      -6.270   2.036 124.567  0.00  0.00    +0.000 OA
ATOM      4  N   UNL     1      -8.064   1.373 123.278  0.00  0.00    +0.000 N 
ATOM      5  H   UNL     1      -7.275   3.372 121.871  0.00  0.00    +0.000 HD
ATOM      6  H   UNL     1      -8.643   1.507 122.462  0.00  0.00    +0.000 HD
ENDROOT
BRANCH   4   7
ATOM      7  S   UNL     1      -8.464   0.083 124.305  0.00  0.00    +0.000 S 
ATOM      8  O   UNL     1      -8.343   0.531 125.676  0.00  0.00    +0.000 OA
ATOM      9  O   UNL     1      -9.674  -0.535 123.802  0.00  0.00    +0.000 OA
BRANCH   7  10
ATOM     10  C   UNL     1      -7.154  -1.138 124.081  0.00  0.00    +0.000 A 
ATOM     11  C   UNL     1      -6.713  -1.485 122.795  0.00  0.00    +0.000 A 
ATOM     12  C   UNL     1      -5.725  -2.469 122.628  0.00  0.00    +0.000 A 
ATOM     13  C   UNL     1      -5.186  -3.137 123.734  0.00  0.00    +0.000 A 
ATOM     14  C   UNL     1      -4.108  -4.174 123.563  0.00  0.00    +0.000 C 
ATOM     15  C   UNL     1      -5.681  -2.829 125.010  0.00  0.00    +0.000 A 
ATOM     16  C   UNL     1      -6.671  -1.848 125.184  0.00  0.00    +0.000 A 
ENDBRANCH   7  10
ENDBRANCH   4   7
BRANCH   1  17
ATOM     17  C   UNL     1      -5.576   4.146 122.933  0.00  0.00    +0.000 C 
BRANCH  17  18
ATOM     18  C   UNL     1      -4.827   4.577 121.666  0.00  0.00    +0.000 C 
BRANCH  18  20
ATOM     19  C   UNL     1      -5.473   5.464 119.386  0.00  0.00    +0.000 C 
ATOM     20  C   UNL     1      -5.652   4.333 120.391  0.00  0.00    +0.000 C 
ENDBRANCH  18  20
ENDBRANCH  17  18
ENDBRANCH   1  17
TORSDOF 5
ENDMDL
MODEL 3
REMARK VINA RESULT:      -7.0      1.333      2.225
REMARK  Name = Tolbutamide
REMARK  7 active torsions:
REMARK  status: ('A' for Active; 'I' for Inactive)
REMARK    1  A    between atoms: C_1  and  C_2
REMARK    2  A    between atoms: C_2  and  C_3
REMARK    3  A    between atoms: C_3  and  C_4
REMARK    4  A    between atoms: C_4  and  N_5
REMARK    5  A    between atoms: N_8  and  S_9
REMARK    6  A    between atoms: S_9  and  C_12
REMARK    7  A    between atoms: C_15  and  C_16
REMARK                            x       y       z     vdW  Elec       q    Type
REMARK                         _______ _______ _______ _____ _____    ______ ____
ROOT
ATOM      1  N   UNL     1      -6.430  -1.054 123.979  0.00  0.00    +0.000 N 
ATOM      2  C   UNL     1      -7.200   0.084 123.825  0.00  0.00    +0.000 C 
ATOM      3  O   UNL     1      -8.212   0.068 123.131  0.00  0.00    +0.000 OA
ATOM      4  N   UNL     1      -6.770   1.244 124.494  0.00  0.00    +0.000 N 
ATOM      5  H   UNL     1      -5.599  -1.041 124.549  0.00  0.00    +0.000 HD
ATOM      6  H   UNL     1      -5.940   1.264 125.068  0.00  0.00    +0.000 HD
ENDROOT
BRANCH   4   7
ATOM      7  S   UNL     1      -7.650   2.689 124.361  0.00  0.00    +0.000 S 
ATOM      8  O   UNL     1      -9.053   2.393 124.562  0.00  0.00    +0.000 OA
ATOM      9  O   UNL     1      -6.961   3.708 125.126  0.00  0.00    +0.000 OA
BRANCH   7  10
ATOM     10  C   UNL     1      -7.506   3.185 122.632  0.00  0.00    +0.000 A 
ATOM     11  C   UNL     1      -6.264   3.559 122.097  0.00  0.00    +0.000 A 
ATOM     12  C   UNL     1      -6.170   3.988 120.763  0.00  0.00    +0.000 A 
ATOM     13  C   UNL     1      -7.311   4.076 119.956  0.00  0.00    +0.000 A 
ATOM     14  C   UNL     1      -7.211   4.509 118.518  0.00  0.00    +0.000 C 
ATOM     15  C   UNL     1      -8.556   3.762 120.520  0.00  0.00    +0.000 A 
ATOM     16  C   UNL     1      -8.658   3.335 121.854  0.00  0.00    +0.000 A 
ENDBRANCH   7  10
ENDBRANCH   4   7
BRANCH   1  17
ATOM     17  C   UNL     1      -6.820  -2.306 123.313  0.00  0.00    +0.000 C 
BRANCH  17  18
ATOM     18  C   UNL     1      -7.105  -3.467 124.274  0.00  0.00    +0.000 C 
BRANCH  18  20
ATOM     19  C   UNL     1      -9.471  -3.251 123.403  0.00  0.00    +0.000 C 
ATOM     20  C   UNL     1      -8.601  -3.593 124.607  0.00  0.00    +0.000 C 
ENDBRANCH  18  20
ENDBRANCH  17  18
ENDBRANCH   1  17
TORSDOF 5
ENDMDL
MODEL 4
REMARK VINA RESULT:      -6.9      1.913      2.267
REMARK  Name = Tolbutamide
REMARK  7 active torsions:
REMARK  status: ('A' for Active; 'I' for Inactive)
REMARK    1  A    between atoms: C_1  and  C_2
REMARK    2  A    between atoms: C_2  and  C_3
REMARK    3  A    between atoms: C_3  and  C_4
REMARK    4  A    between atoms: C_4  and  N_5
REMARK    5  A    between atoms: N_8  and  S_9
REMARK    6  A    between atoms: S_9  and  C_12
REMARK    7  A    between atoms: C_15  and  C_16
REMARK                            x       y       z     vdW  Elec       q    Type
REMARK                         _______ _______ _______ _____ _____    ______ ____
ROOT
ATOM      1  N   UNL     1      -8.904  -0.814 123.611  0.00  0.00    +0.000 N 
ATOM      2  C   UNL     1      -8.094   0.308 123.616  0.00  0.00    +0.000 C 
ATOM      3  O   UNL     1      -6.966   0.269 123.136  0.00  0.00    +0.000 OA
ATOM      4  N   UNL     1      -8.624   1.477 124.192  0.00  0.00    +0.000 N 
ATOM      5  H   UNL     1      -9.830  -0.782 124.005  0.00  0.00    +0.000 HD
ATOM      6  H   UNL     1      -9.551   1.516 124.587  0.00  0.00    +0.000 HD
ENDROOT
BRANCH   4   7
ATOM      7  S   UNL     1      -7.702   2.901 124.246  0.00  0.00    +0.000 S 
ATOM      8  O   UNL     1      -8.489   3.935 124.884  0.00  0.00    +0.000 OA
ATOM      9  O   UNL     1      -6.370   2.559 124.698  0.00  0.00    +0.000 OA
BRANCH   7  10
ATOM     10  C   UNL     1      -7.523   3.426 122.528  0.00  0.00    +0.000 A 
ATOM     11  C   UNL     1      -8.638   3.481 121.678  0.00  0.00    +0.000 A 
ATOM     12  C   UNL     1      -8.483   3.846 120.331  0.00  0.00    +0.000 A 
ATOM     13  C   UNL     1      -7.216   4.133 119.808  0.00  0.00    +0.000 A 
ATOM     14  C   UNL     1      -7.047   4.551 118.372  0.00  0.00    +0.000 C 
ATOM     15  C   UNL     1      -6.100   4.013 120.650  0.00  0.00    +0.000 A 
ATOM     16  C   UNL     1      -6.249   3.645 121.998  0.00  0.00    +0.000 A 
ENDBRANCH   7  10
ENDBRANCH   4   7
BRANCH   1  17
ATOM     17  C   UNL     1      -8.420  -2.071 123.022  0.00  0.00    +0.000 C 
BRANCH  17  18
ATOM     18  C   UNL     1      -9.064  -3.331 123.612  0.00  0.00    +0.000 C 
BRANCH  18  20
ATOM     19  C   UNL     1      -8.920  -3.374 126.138  0.00  0.00    +0.000 C 
ATOM     20  C   UNL     1      -8.295  -3.859 124.835  0.00  0.00    +0.000 C 
ENDBRANCH  18  20
ENDBRANCH  17  18
ENDBRANCH   1  17
TORSDOF 5
ENDMDL
MODEL 5
REMARK VINA RESULT:      -6.9      0.834      1.398
REMARK  Name = Tolbutamide
REMARK  7 active torsions:
REMARK  status: ('A' for Active; 'I' for Inactive)
REMARK    1  A    between atoms: C_1  and  C_2
REMARK    2  A    between atoms: C_2  and  C_3
REMARK    3  A    between atoms: C_3  and  C_4
REMARK    4  A    between atoms: C_4  and  N_5
REMARK    5  A    between atoms: N_8  and  S_9
REMARK    6  A    between atoms: S_9  and  C_12
REMARK    7  A    between atoms: C_15  and  C_16
REMARK                            x       y       z     vdW  Elec       q    Type
REMARK                         _______ _______ _______ _____ _____    ______ ____
ROOT
ATOM      1  N   UNL     1      -6.766  -1.127 124.175  0.00  0.00    +0.000 N 
ATOM      2  C   UNL     1      -7.552  -0.008 123.964  0.00  0.00    +0.000 C 
ATOM      3  O   UNL     1      -8.583  -0.081 123.305  0.00  0.00    +0.000 OA
ATOM      4  N   UNL     1      -7.112   1.199 124.537  0.00  0.00    +0.000 N 
ATOM      5  H   UNL     1      -5.918  -1.067 124.716  0.00  0.00    +0.000 HD
ATOM      6  H   UNL     1      -6.266   1.266 125.082  0.00  0.00    +0.000 HD
ENDROOT
BRANCH   4   7
ATOM      7  S   UNL     1      -8.010   2.625 124.330  0.00  0.00    +0.000 S 
ATOM      8  O   UNL     1      -9.418   2.294 124.384  0.00  0.00    +0.000 OA
ATOM      9  O   UNL     1      -7.429   3.650 125.172  0.00  0.00    +0.000 OA
BRANCH   7  10
ATOM     10  C   UNL     1      -7.704   3.147 122.630  0.00  0.00    +0.000 A 
ATOM     11  C   UNL     1      -6.411   3.501 122.213  0.00  0.00    +0.000 A 
ATOM     12  C   UNL     1      -6.190   3.950 120.902  0.00  0.00    +0.000 A 
ATOM     13  C   UNL     1      -7.253   4.078 119.999  0.00  0.00    +0.000 A 
ATOM     14  C   UNL     1      -7.017   4.533 118.584  0.00  0.00    +0.000 C 
ATOM     15  C   UNL     1      -8.550   3.784 120.445  0.00  0.00    +0.000 A 
ATOM     16  C   UNL     1      -8.779   3.337 121.757  0.00  0.00    +0.000 A 
ENDBRANCH   7  10
ENDBRANCH   4   7
BRANCH   1  17
ATOM     17  C   UNL     1      -7.164  -2.425 123.611  0.00  0.00    +0.000 C 
BRANCH  17  18
ATOM     18  C   UNL     1      -6.428  -3.627 124.217  0.00  0.00    +0.000 C 
BRANCH  18  20
ATOM     19  C   UNL     1      -4.289  -4.752 123.470  0.00  0.00    +0.000 C 
ATOM     20  C   UNL     1      -4.901  -3.500 124.087  0.00  0.00    +0.000 C 
ENDBRANCH  18  20
ENDBRANCH  17  18
ENDBRANCH   1  17
TORSDOF 5
ENDMDL
MODEL 6
REMARK VINA RESULT:      -6.7      2.217      2.878
REMARK  Name = Tolbutamide
REMARK  7 active torsions:
REMARK  status: ('A' for Active; 'I' for Inactive)
REMARK    1  A    between atoms: C_1  and  C_2
REMARK    2  A    between atoms: C_2  and  C_3
REMARK    3  A    between atoms: C_3  and  C_4
REMARK    4  A    between atoms: C_4  and  N_5
REMARK    5  A    between atoms: N_8  and  S_9
REMARK    6  A    between atoms: S_9  and  C_12
REMARK    7  A    between atoms: C_15  and  C_16
REMARK                            x       y       z     vdW  Elec       q    Type
REMARK                         _______ _______ _______ _____ _____    ______ ____
ROOT
ATOM      1  N   UNL     1      -8.498  -1.631 125.394  0.00  0.00    +0.000 N 
ATOM      2  C   UNL     1      -9.104  -0.406 125.182  0.00  0.00    +0.000 C 
ATOM      3  O   UNL     1     -10.238  -0.187 125.595  0.00  0.00    +0.000 OA
ATOM      4  N   UNL     1      -8.363   0.562 124.480  0.00  0.00    +0.000 N 
ATOM      5  H   UNL     1      -7.566  -1.811 125.055  0.00  0.00    +0.000 HD
ATOM      6  H   UNL     1      -7.428   0.389 124.139  0.00  0.00    +0.000 HD
ENDROOT
BRANCH   4   7
ATOM      7  S   UNL     1      -9.025   2.094 124.171  0.00  0.00    +0.000 S 
ATOM      8  O   UNL     1     -10.309   1.918 123.526  0.00  0.00    +0.000 OA
ATOM      9  O   UNL     1      -8.866   2.902 125.362  0.00  0.00    +0.000 OA
BRANCH   7  10
ATOM     10  C   UNL     1      -7.958   2.838 122.920  0.00  0.00    +0.000 A 
ATOM     11  C   UNL     1      -6.630   3.177 123.223  0.00  0.00    +0.000 A 
ATOM     12  C   UNL     1      -5.821   3.798 122.258  0.00  0.00    +0.000 A 
ATOM     13  C   UNL     1      -6.330   4.114 120.992  0.00  0.00    +0.000 A 
ATOM     14  C   UNL     1      -5.459   4.755 119.945  0.00  0.00    +0.000 C 
ATOM     15  C   UNL     1      -7.677   3.830 120.721  0.00  0.00    +0.000 A 
ATOM     16  C   UNL     1      -8.492   3.211 121.683  0.00  0.00    +0.000 A 
ENDBRANCH   7  10
ENDBRANCH   4   7
BRANCH   1  17
ATOM     17  C   UNL     1      -9.209  -2.690 126.125  0.00  0.00    +0.000 C 
BRANCH  17  18
ATOM     18  C   UNL     1      -8.297  -3.612 126.943  0.00  0.00    +0.000 C 
BRANCH  18  20
ATOM     19  C   UNL     1      -8.009  -2.576 129.234  0.00  0.00    +0.000 C 
ATOM     20  C   UNL     1      -8.703  -3.666 128.426  0.00  0.00    +0.000 C 
ENDBRANCH  18  20
ENDBRANCH  17  18
ENDBRANCH   1  17
TORSDOF 5
ENDMDL
MODEL 7
REMARK VINA RESULT:      -6.5      5.865      9.142
REMARK  Name = Tolbutamide
REMARK  7 active torsions:
REMARK  status: ('A' for Active; 'I' for Inactive)
REMARK    1  A    between atoms: C_1  and  C_2
REMARK    2  A    between atoms: C_2  and  C_3
REMARK    3  A    between atoms: C_3  and  C_4
REMARK    4  A    between atoms: C_4  and  N_5
REMARK    5  A    between atoms: N_8  and  S_9
REMARK    6  A    between atoms: S_9  and  C_12
REMARK    7  A    between atoms: C_15  and  C_16
REMARK                            x       y       z     vdW  Elec       q    Type
REMARK                         _______ _______ _______ _____ _____    ______ ____
ROOT
ATOM      1  N   UNL     1      -5.864  -2.108 125.749  0.00  0.00    +0.000 N 
ATOM      2  C   UNL     1      -6.875  -2.105 126.693  0.00  0.00    +0.000 C 
ATOM      3  O   UNL     1      -8.000  -1.710 126.406  0.00  0.00    +0.000 OA
ATOM      4  N   UNL     1      -6.551  -2.573 127.979  0.00  0.00    +0.000 N 
ATOM      5  H   UNL     1      -4.939  -2.432 125.985  0.00  0.00    +0.000 HD
ATOM      6  H   UNL     1      -5.628  -2.901 128.222  0.00  0.00    +0.000 HD
ENDROOT
BRANCH   4   7
ATOM      7  S   UNL     1      -7.727  -2.605 129.203  0.00  0.00    +0.000 S 
ATOM      8  O   UNL     1      -7.958  -1.249 129.655  0.00  0.00    +0.000 OA
ATOM      9  O   UNL     1      -8.807  -3.465 128.767  0.00  0.00    +0.000 OA
BRANCH   7  10
ATOM     10  C   UNL     1      -6.951  -3.450 130.597  0.00  0.00    +0.000 A 
ATOM     11  C   UNL     1      -7.188  -3.024 131.912  0.00  0.00    +0.000 A 
ATOM     12  C   UNL     1      -6.544  -3.657 132.987  0.00  0.00    +0.000 A 
ATOM     13  C   UNL     1      -5.639  -4.702 132.765  0.00  0.00    +0.000 A 
ATOM     14  C   UNL     1      -4.966  -5.403 133.915  0.00  0.00    +0.000 C 
ATOM     15  C   UNL     1      -5.360  -5.077 131.442  0.00  0.00    +0.000 A 
ATOM     16  C   UNL     1      -5.998  -4.445 130.362  0.00  0.00    +0.000 A 
ENDBRANCH   7  10
ENDBRANCH   4   7
BRANCH   1  17
ATOM     17  C   UNL     1      -6.129  -1.638 124.382  0.00  0.00    +0.000 C 
BRANCH  17  18
ATOM     18  C   UNL     1      -5.737  -2.637 123.286  0.00  0.00    +0.000 C 
BRANCH  18  20
ATOM     19  C   UNL     1      -4.476  -4.814 123.555  0.00  0.00    +0.000 C 
ATOM     20  C   UNL     1      -4.373  -3.293 123.558  0.00  0.00    +0.000 C 
ENDBRANCH  18  20
ENDBRANCH  17  18
ENDBRANCH   1  17
TORSDOF 5
ENDMDL
MODEL 8
REMARK VINA RESULT:      -6.4     10.792     12.345
REMARK  Name = Tolbutamide
REMARK  7 active torsions:
REMARK  status: ('A' for Active; 'I' for Inactive)
REMARK    1  A    between atoms: C_1  and  C_2
REMARK    2  A    between atoms: C_2  and  C_3
REMARK    3  A    between atoms: C_3  and  C_4
REMARK    4  A    between atoms: C_4  and  N_5
REMARK    5  A    between atoms: N_8  and  S_9
REMARK    6  A    between atoms: S_9  and  C_12
REMARK    7  A    between atoms: C_15  and  C_16
REMARK                            x       y       z     vdW  Elec       q    Type
REMARK                         _______ _______ _______ _____ _____    ______ ____
ROOT
ATOM      1  N   UNL     1      -8.310   6.080 135.210  0.00  0.00    +0.000 N 
ATOM      2  C   UNL     1      -8.299   5.611 133.909  0.00  0.00    +0.000 C 
ATOM      3  O   UNL     1      -7.420   4.847 133.525  0.00  0.00    +0.000 OA
ATOM      4  N   UNL     1      -9.332   6.051 133.061  0.00  0.00    +0.000 N 
ATOM      5  H   UNL     1      -9.032   6.708 135.526  0.00  0.00    +0.000 HD
ATOM      6  H   UNL     1     -10.059   6.678 133.371  0.00  0.00    +0.000 HD
ENDROOT
BRANCH   4   7
ATOM      7  S   UNL     1      -9.399   5.531 131.447  0.00  0.00    +0.000 S 
ATOM      8  O   UNL     1      -8.114   5.783 130.829  0.00  0.00    +0.000 OA
ATOM      9  O   UNL     1     -10.022   4.224 131.420  0.00  0.00    +0.000 OA
BRANCH   7  10
ATOM     10  C   UNL     1     -10.555   6.648 130.627  0.00  0.00    +0.000 A 
ATOM     11  C   UNL     1     -10.148   7.413 129.523  0.00  0.00    +0.000 A 
ATOM     12  C   UNL     1     -11.040   8.314 128.920  0.00  0.00    +0.000 A 
ATOM     13  C   UNL     1     -12.336   8.484 129.423  0.00  0.00    +0.000 A 
ATOM     14  C   UNL     1     -13.305   9.428 128.764  0.00  0.00    +0.000 C 
ATOM     15  C   UNL     1     -12.711   7.763 130.566  0.00  0.00    +0.000 A 
ATOM     16  C   UNL     1     -11.822   6.862 131.176  0.00  0.00    +0.000 A 
ENDBRANCH   7  10
ENDBRANCH   4   7
BRANCH   1  17
ATOM     17  C   UNL     1      -7.265   5.660 136.155  0.00  0.00    +0.000 C 
BRANCH  17  18
ATOM     18  C   UNL     1      -7.192   6.509 137.430  0.00  0.00    +0.000 C 
BRANCH  18  20
ATOM     19  C   UNL     1      -8.619   8.566 137.795  0.00  0.00    +0.000 C 
ATOM     20  C   UNL     1      -8.570   7.044 137.853  0.00  0.00    +0.000 C 
ENDBRANCH  18  20
ENDBRANCH  17  18
ENDBRANCH   1  17
TORSDOF 5
ENDMDL
MODEL 9
REMARK VINA RESULT:      -6.4     10.037     10.766
REMARK  Name = Tolbutamide
REMARK  7 active torsions:
REMARK  status: ('A' for Active; 'I' for Inactive)
REMARK    1  A    between atoms: C_1  and  C_2
REMARK    2  A    between atoms: C_2  and  C_3
REMARK    3  A    between atoms: C_3  and  C_4
REMARK    4  A    between atoms: C_4  and  N_5
REMARK    5  A    between atoms: N_8  and  S_9
REMARK    6  A    between atoms: S_9  and  C_12
REMARK    7  A    between atoms: C_15  and  C_16
REMARK                            x       y       z     vdW  Elec       q    Type
REMARK                         _______ _______ _______ _____ _____    ______ ____
ROOT
ATOM      1  N   UNL     1      -5.252   7.082 131.209  0.00  0.00    +0.000 N 
ATOM      2  C   UNL     1      -6.395   6.403 131.593  0.00  0.00    +0.000 C 
ATOM      3  O   UNL     1      -6.329   5.449 132.361  0.00  0.00    +0.000 OA
ATOM      4  N   UNL     1      -7.617   6.856 131.063  0.00  0.00    +0.000 N 
ATOM      5  H   UNL     1      -5.306   7.866 130.578  0.00  0.00    +0.000 HD
ATOM      6  H   UNL     1      -7.678   7.641 130.432  0.00  0.00    +0.000 HD
ENDROOT
BRANCH   4   7
ATOM      7  S   UNL     1      -9.070   6.082 131.475  0.00  0.00    +0.000 S 
ATOM      8  O   UNL     1      -9.047   4.740 130.934  0.00  0.00    +0.000 OA
ATOM      9  O   UNL     1      -9.339   6.343 132.874  0.00  0.00    +0.000 OA
BRANCH   7  10
ATOM     10  C   UNL     1     -10.357   6.950 130.553  0.00  0.00    +0.000 A 
ATOM     11  C   UNL     1     -10.039   7.679 129.397  0.00  0.00    +0.000 A 
ATOM     12  C   UNL     1     -11.038   8.389 128.712  0.00  0.00    +0.000 A 
ATOM     13  C   UNL     1     -12.357   8.403 129.183  0.00  0.00    +0.000 A 
ATOM     14  C   UNL     1     -13.437   9.140 128.437  0.00  0.00    +0.000 C 
ATOM     15  C   UNL     1     -12.651   7.724 130.374  0.00  0.00    +0.000 A 
ATOM     16  C   UNL     1     -11.655   7.015 131.066  0.00  0.00    +0.000 A 
ENDBRANCH   7  10
ENDBRANCH   4   7
BRANCH   1  17
ATOM     17  C   UNL     1      -3.939   6.669 131.726  0.00  0.00    +0.000 C 
BRANCH  17  18
ATOM     18  C   UNL     1      -2.795   6.797 130.712  0.00  0.00    +0.000 C 
BRANCH  18  20
ATOM     19  C   UNL     1      -1.489   5.349 132.325  0.00  0.00    +0.000 C 
ATOM     20  C   UNL     1      -1.422   6.515 131.346  0.00  0.00    +0.000 C 
ENDBRANCH  18  20
ENDBRANCH  17  18
ENDBRANCH   1  17
TORSDOF 5
ENDMDL
