MODEL 1
REMARK VINA RESULT:      -7.6      0.000      0.000
REMARK  Name = Tolcapone
REMARK  6 active torsions:
REMARK  status: ('A' for Active; 'I' for Inactive)
REMARK    1  A    between atoms: C_1  and  C_2
REMARK    2  A    between atoms: C_5  and  C_8
REMARK    3  A    between atoms: C_8  and  C_10
REMARK    4  A    between atoms: C_12  and  N_18
REMARK    5  A    between atoms: C_13  and  O_14
REMARK    6  A    between atoms: C_15  and  O_16
REMARK                            x       y       z     vdW  Elec       q    Type
REMARK                         _______ _______ _______ _____ _____    ______ ____
ROOT
ATOM      1  C   UNL     1      -8.650   0.432 123.811  0.00  0.00    +0.000 A 
ATOM      2  C   UNL     1      -8.460   0.768 125.162  0.00  0.00    +0.000 A 
ATOM      3  C   UNL     1      -8.342   2.119 125.545  0.00  0.00    +0.000 A 
ATOM      4  C   UNL     1      -8.409   3.138 124.583  0.00  0.00    +0.000 A 
ATOM      5  C   UNL     1      -8.592   2.782 123.248  0.00  0.00    +0.000 A 
ATOM      6  C   UNL     1      -8.726   1.455 122.861  0.00  0.00    +0.000 A 
ENDROOT
BRANCH   3   7
ATOM      7  N   UNL     1      -8.145   2.443 126.962  0.00  0.00    +0.000 N 
ATOM      8  O   UNL     1      -7.170   3.136 127.275  0.00  0.00    +0.000 OA
ATOM      9  O   UNL     1      -8.979   1.996 127.767  0.00  0.00    +0.000 OA
ENDBRANCH   3   7
BRANCH   1  10
ATOM     10  C   UNL     1      -8.806  -1.004 123.420  0.00  0.00    +0.000 C 
ATOM     11  O   UNL     1      -9.889  -1.417 123.014  0.00  0.00    +0.000 OA
BRANCH  10  16
ATOM     12  C   UNL     1      -4.235  -4.531 123.809  0.00  0.00    +0.000 C 
ATOM     13  C   UNL     1      -5.427  -3.628 123.673  0.00  0.00    +0.000 A 
ATOM     14  C   UNL     1      -5.385  -2.490 122.857  0.00  0.00    +0.000 A 
ATOM     15  C   UNL     1      -6.499  -1.649 122.752  0.00  0.00    +0.000 A 
ATOM     16  C   UNL     1      -7.658  -1.941 123.475  0.00  0.00    +0.000 A 
ATOM     17  C   UNL     1      -7.721  -3.095 124.263  0.00  0.00    +0.000 A 
ATOM     18  C   UNL     1      -6.604  -3.925 124.372  0.00  0.00    +0.000 A 
ENDBRANCH  10  16
ENDBRANCH   1  10
BRANCH   4  19
ATOM     19  O   UNL     1      -8.317   4.483 124.830  0.00  0.00    +0.000 OA
ATOM     20  H   UNL     1      -8.862   4.975 124.175  0.00  0.00    +0.000 HD
ENDBRANCH   4  19
BRANCH   5  21
ATOM     21  O   UNL     1      -8.652   3.726 122.261  0.00  0.00    +0.000 OA
ATOM     22  H   UNL     1      -7.798   3.686 121.788  0.00  0.00    +0.000 HD
ENDBRANCH   5  21
TORSDOF 5
ENDMDL
MODEL 2
REMARK VINA RESULT:      -7.3      1.994      3.178
REMARK  Name = Tolcapone
REMARK  6 active torsions:
REMARK  status: ('A' for Active; 'I' for Inactive)
REMARK    1  A    between atoms: C_1  and  C_2
REMARK    2  A    between atoms: C_5  and  C_8
REMARK    3  A    between atoms: C_8  and  C_10
REMARK    4  A    between atoms: C_12  and  N_18
REMARK    5  A    between atoms: C_13  and  O_14
REMARK    6  A    between atoms: C_15  and  O_16
REMARK                            x       y       z     vdW  Elec       q    Type
REMARK                         _______ _______ _______ _____ _____    ______ ____
ROOT
ATOM      1  C   UNL     1      -7.817   1.348 124.126  0.00  0.00    +0.000 A 
ATOM      2  C   UNL     1      -7.077   2.002 123.127  0.00  0.00    +0.000 A 
ATOM      3  C   UNL     1      -6.717   3.356 123.285  0.00  0.00    +0.000 A 
ATOM      4  C   UNL     1      -7.097   4.061 124.437  0.00  0.00    +0.000 A 
ATOM      5  C   UNL     1      -7.836   3.394 125.413  0.00  0.00    +0.000 A 
ATOM      6  C   UNL     1      -8.182   2.056 125.275  0.00  0.00    +0.000 A 
ENDROOT
BRANCH   3   7
ATOM      7  N   UNL     1      -5.944   4.015 122.228  0.00  0.00    +0.000 N 
ATOM      8  O   UNL     1      -6.218   3.752 121.051  0.00  0.00    +0.000 OA
ATOM      9  O   UNL     1      -5.053   4.803 122.584  0.00  0.00    +0.000 OA
ENDBRANCH   3   7
BRANCH   1  10
ATOM     10  C   UNL     1      -8.165  -0.098 123.962  0.00  0.00    +0.000 C 
ATOM     11  O   UNL     1      -9.339  -0.439 123.843  0.00  0.00    +0.000 OA
BRANCH  10  16
ATOM     12  C   UNL     1      -4.213  -4.318 123.717  0.00  0.00    +0.000 C 
ATOM     13  C   UNL     1      -5.212  -3.200 123.794  0.00  0.00    +0.000 A 
ATOM     14  C   UNL     1      -5.695  -2.743 125.028  0.00  0.00    +0.000 A 
ATOM     15  C   UNL     1      -6.638  -1.710 125.083  0.00  0.00    +0.000 A 
ATOM     16  C   UNL     1      -7.109  -1.137 123.899  0.00  0.00    +0.000 A 
ATOM     17  C   UNL     1      -6.605  -1.562 122.665  0.00  0.00    +0.000 A 
ATOM     18  C   UNL     1      -5.672  -2.599 122.615  0.00  0.00    +0.000 A 
ENDBRANCH  10  16
ENDBRANCH   1  10
BRANCH   4  19
ATOM     19  O   UNL     1      -6.803   5.372 124.710  0.00  0.00    +0.000 OA
ATOM     20  H   UNL     1      -6.967   5.919 123.910  0.00  0.00    +0.000 HD
ENDBRANCH   4  19
BRANCH   5  21
ATOM     21  O   UNL     1      -8.249   4.029 126.551  0.00  0.00    +0.000 OA
ATOM     22  H   UNL     1      -7.582   3.829 127.237  0.00  0.00    +0.000 HD
ENDBRANCH   5  21
TORSDOF 5
ENDMDL
MODEL 3
REMARK VINA RESULT:      -7.3      3.070      6.102
REMARK  Name = Tolcapone
REMARK  6 active torsions:
REMARK  status: ('A' for Active; 'I' for Inactive)
REMARK    1  A    between atoms: C_1  and  C_2
REMARK    2  A    between atoms: C_5  and  C_8
REMARK    3  A    between atoms: C_8  and  C_10
REMARK    4  A    between atoms: C_12  and  N_18
REMARK    5  A    between atoms: C_13  and  O_14
REMARK    6  A    between atoms: C_15  and  O_16
REMARK                            x       y       z     vdW  Elec       q    Type
REMARK                         _______ _______ _______ _____ _____    ______ ____
ROOT
ATOM      1  C   UNL     1      -8.109   1.116 123.496  0.00  0.00    +0.000 A 
ATOM      2  C   UNL     1      -6.943   0.578 124.068  0.00  0.00    +0.000 A 
ATOM      3  C   UNL     1      -6.828  -0.813 124.262  0.00  0.00    +0.000 A 
ATOM      4  C   UNL     1      -7.875  -1.670 123.892  0.00  0.00    +0.000 A 
ATOM      5  C   UNL     1      -9.025  -1.116 123.332  0.00  0.00    +0.000 A 
ATOM      6  C   UNL     1      -9.142   0.252 123.121  0.00  0.00    +0.000 A 
ENDROOT
BRANCH   3   7
ATOM      7  N   UNL     1      -5.601  -1.348 124.859  0.00  0.00    +0.000 N 
ATOM      8  O   UNL     1      -5.007  -2.257 124.264  0.00  0.00    +0.000 OA
ATOM      9  O   UNL     1      -5.229  -0.852 125.935  0.00  0.00    +0.000 OA
ENDBRANCH   3   7
BRANCH   1  10
ATOM     10  C   UNL     1      -8.208   2.591 123.265  0.00  0.00    +0.000 C 
ATOM     11  O   UNL     1      -8.703   3.317 124.123  0.00  0.00    +0.000 OA
BRANCH  10  16
ATOM     12  C   UNL     1      -6.186   5.213 118.519  0.00  0.00    +0.000 C 
ATOM     13  C   UNL     1      -6.715   4.501 119.731  0.00  0.00    +0.000 A 
ATOM     14  C   UNL     1      -8.074   4.177 119.846  0.00  0.00    +0.000 A 
ATOM     15  C   UNL     1      -8.555   3.528 120.987  0.00  0.00    +0.000 A 
ATOM     16  C   UNL     1      -7.677   3.208 122.026  0.00  0.00    +0.000 A 
ATOM     17  C   UNL     1      -6.313   3.495 121.904  0.00  0.00    +0.000 A 
ATOM     18  C   UNL     1      -5.839   4.152 120.767  0.00  0.00    +0.000 A 
ENDBRANCH  10  16
ENDBRANCH   1  10
BRANCH   4  19
ATOM     19  O   UNL     1      -7.880  -3.035 124.021  0.00  0.00    +0.000 OA
ATOM     20  H   UNL     1      -8.711  -3.320 124.463  0.00  0.00    +0.000 HD
ENDBRANCH   4  19
BRANCH   5  21
ATOM     21  O   UNL     1     -10.085  -1.895 122.964  0.00  0.00    +0.000 OA
ATOM     22  H   UNL     1     -10.758  -1.796 123.665  0.00  0.00    +0.000 HD
ENDBRANCH   5  21
TORSDOF 5
ENDMDL
MODEL 4
REMARK VINA RESULT:      -7.1      3.089      6.204
REMARK  Name = Tolcapone
REMARK  6 active torsions:
REMARK  status: ('A' for Active; 'I' for Inactive)
REMARK    1  A    between atoms: C_1  and  C_2
REMARK    2  A    between atoms: C_5  and  C_8
REMARK    3  A    between atoms: C_8  and  C_10
REMARK    4  A    between atoms: C_12  and  N_18
REMARK    5  A    between atoms: C_13  and  O_14
REMARK    6  A    between atoms: C_15  and  O_16
REMARK                            x       y       z     vdW  Elec       q    Type
REMARK                         _______ _______ _______ _____ _____    ______ ____
ROOT
ATOM      1  C   UNL     1      -7.462   1.404 124.044  0.00  0.00    +0.000 A 
ATOM      2  C   UNL     1      -6.873   0.203 123.613  0.00  0.00    +0.000 A 
ATOM      3  C   UNL     1      -7.504  -1.029 123.877  0.00  0.00    +0.000 A 
ATOM      4  C   UNL     1      -8.721  -1.067 124.574  0.00  0.00    +0.000 A 
ATOM      5  C   UNL     1      -9.285   0.135 124.998  0.00  0.00    +0.000 A 
ATOM      6  C   UNL     1      -8.679   1.356 124.729  0.00  0.00    +0.000 A 
ENDROOT
BRANCH   3   7
ATOM      7  N   UNL     1      -6.869  -2.267 123.415  0.00  0.00    +0.000 N 
ATOM      8  O   UNL     1      -7.011  -3.289 124.099  0.00  0.00    +0.000 OA
ATOM      9  O   UNL     1      -6.223  -2.213 122.356  0.00  0.00    +0.000 OA
ENDBRANCH   3   7
BRANCH   1  10
ATOM     10  C   UNL     1      -6.799   2.708 123.730  0.00  0.00    +0.000 C 
ATOM     11  O   UNL     1      -6.147   3.291 124.593  0.00  0.00    +0.000 OA
BRANCH  10  16
ATOM     12  C   UNL     1      -7.060   4.800 118.341  0.00  0.00    +0.000 C 
ATOM     13  C   UNL     1      -6.986   4.292 119.752  0.00  0.00    +0.000 A 
ATOM     14  C   UNL     1      -5.763   4.219 120.432  0.00  0.00    +0.000 A 
ATOM     15  C   UNL     1      -5.707   3.729 121.742  0.00  0.00    +0.000 A 
ATOM     16  C   UNL     1      -6.877   3.299 122.372  0.00  0.00    +0.000 A 
ATOM     17  C   UNL     1      -8.107   3.403 121.713  0.00  0.00    +0.000 A 
ATOM     18  C   UNL     1      -8.156   3.883 120.403  0.00  0.00    +0.000 A 
ENDBRANCH  10  16
ENDBRANCH   1  10
BRANCH   4  19
ATOM     19  O   UNL     1      -9.434  -2.196 124.884  0.00  0.00    +0.000 OA
ATOM     20  H   UNL     1      -8.902  -2.767 125.484  0.00  0.00    +0.000 HD
ENDBRANCH   4  19
BRANCH   5  21
ATOM     21  O   UNL     1     -10.460   0.164 125.694  0.00  0.00    +0.000 OA
ATOM     22  H   UNL     1     -10.888   1.016 125.479  0.00  0.00    +0.000 HD
ENDBRANCH   5  21
TORSDOF 5
ENDMDL
MODEL 5
REMARK VINA RESULT:      -7.0      1.541      1.721
REMARK  Name = Tolcapone
REMARK  6 active torsions:
REMARK  status: ('A' for Active; 'I' for Inactive)
REMARK    1  A    between atoms: C_1  and  C_2
REMARK    2  A    between atoms: C_5  and  C_8
REMARK    3  A    between atoms: C_8  and  C_10
REMARK    4  A    between atoms: C_12  and  N_18
REMARK    5  A    between atoms: C_13  and  O_14
REMARK    6  A    between atoms: C_15  and  O_16
REMARK                            x       y       z     vdW  Elec       q    Type
REMARK                         _______ _______ _______ _____ _____    ______ ____
ROOT
ATOM      1  C   UNL     1      -7.654   1.434 124.248  0.00  0.00    +0.000 A 
ATOM      2  C   UNL     1      -7.949   2.134 125.430  0.00  0.00    +0.000 A 
ATOM      3  C   UNL     1      -7.542   3.476 125.577  0.00  0.00    +0.000 A 
ATOM      4  C   UNL     1      -6.836   4.120 124.550  0.00  0.00    +0.000 A 
ATOM      5  C   UNL     1      -6.549   3.405 123.389  0.00  0.00    +0.000 A 
ATOM      6  C   UNL     1      -6.959   2.088 123.226  0.00  0.00    +0.000 A 
ENDROOT
BRANCH   3   7
ATOM      7  N   UNL     1      -7.864   4.184 126.820  0.00  0.00    +0.000 N 
ATOM      8  O   UNL     1      -8.524   5.228 126.745  0.00  0.00    +0.000 OA
ATOM      9  O   UNL     1      -7.450   3.687 127.880  0.00  0.00    +0.000 OA
ENDBRANCH   3   7
BRANCH   1  10
ATOM     10  C   UNL     1      -8.120   0.020 124.089  0.00  0.00    +0.000 C 
ATOM     11  O   UNL     1      -9.321  -0.228 124.022  0.00  0.00    +0.000 OA
BRANCH  10  16
ATOM     12  C   UNL     1      -4.164  -4.176 123.608  0.00  0.00    +0.000 C 
ATOM     13  C   UNL     1      -5.217  -3.111 123.721  0.00  0.00    +0.000 A 
ATOM     14  C   UNL     1      -5.770  -2.515 122.579  0.00  0.00    +0.000 A 
ATOM     15  C   UNL     1      -6.739  -1.513 122.700  0.00  0.00    +0.000 A 
ATOM     16  C   UNL     1      -7.151  -1.096 123.968  0.00  0.00    +0.000 A 
ATOM     17  C   UNL     1      -6.631  -1.710 125.112  0.00  0.00    +0.000 A 
ATOM     18  C   UNL     1      -5.657  -2.703 124.987  0.00  0.00    +0.000 A 
ENDBRANCH  10  16
ENDBRANCH   1  10
BRANCH   4  19
ATOM     19  O   UNL     1      -6.395   5.417 124.570  0.00  0.00    +0.000 OA
ATOM     20  H   UNL     1      -6.445   5.795 123.663  0.00  0.00    +0.000 HD
ENDBRANCH   4  19
BRANCH   5  21
ATOM     21  O   UNL     1      -5.853   3.971 122.358  0.00  0.00    +0.000 OA
ATOM     22  H   UNL     1      -6.063   3.445 121.560  0.00  0.00    +0.000 HD
ENDBRANCH   5  21
TORSDOF 5
ENDMDL
MODEL 6
REMARK VINA RESULT:      -7.0      8.256      9.724
REMARK  Name = Tolcapone
REMARK  6 active torsions:
REMARK  status: ('A' for Active; 'I' for Inactive)
REMARK    1  A    between atoms: C_1  and  C_2
REMARK    2  A    between atoms: C_5  and  C_8
REMARK    3  A    between atoms: C_8  and  C_10
REMARK    4  A    between atoms: C_12  and  N_18
REMARK    5  A    between atoms: C_13  and  O_14
REMARK    6  A    between atoms: C_15  and  O_16
REMARK                            x       y       z     vdW  Elec       q    Type
REMARK                         _______ _______ _______ _____ _____    ______ ____
ROOT
ATOM      1  C   UNL     1      -9.848   6.550 131.197  0.00  0.00    +0.000 A 
ATOM      2  C   UNL     1      -9.645   6.785 129.826  0.00  0.00    +0.000 A 
ATOM      3  C   UNL     1     -10.732   7.135 129.000  0.00  0.00    +0.000 A 
ATOM      4  C   UNL     1     -12.023   7.247 129.536  0.00  0.00    +0.000 A 
ATOM      5  C   UNL     1     -12.204   7.004 130.897  0.00  0.00    +0.000 A 
ATOM      6  C   UNL     1     -11.137   6.674 131.723  0.00  0.00    +0.000 A 
ENDROOT
BRANCH   3   7
ATOM      7  N   UNL     1     -10.492   7.376 127.574  0.00  0.00    +0.000 N 
ATOM      8  O   UNL     1      -9.893   6.510 126.925  0.00  0.00    +0.000 OA
ATOM      9  O   UNL     1     -10.911   8.446 127.101  0.00  0.00    +0.000 OA
ENDBRANCH   3   7
BRANCH   1  10
ATOM     10  C   UNL     1      -8.682   6.211 132.070  0.00  0.00    +0.000 C 
ATOM     11  O   UNL     1      -8.819   6.168 133.291  0.00  0.00    +0.000 OA
BRANCH  10  16
ATOM     12  C   UNL     1      -3.431   4.918 130.012  0.00  0.00    +0.000 C 
ATOM     13  C   UNL     1      -4.802   5.267 130.513  0.00  0.00    +0.000 A 
ATOM     14  C   UNL     1      -5.169   6.599 130.752  0.00  0.00    +0.000 A 
ATOM     15  C   UNL     1      -6.446   6.908 131.233  0.00  0.00    +0.000 A 
ATOM     16  C   UNL     1      -7.359   5.881 131.487  0.00  0.00    +0.000 A 
ATOM     17  C   UNL     1      -7.014   4.553 131.217  0.00  0.00    +0.000 A 
ATOM     18  C   UNL     1      -5.735   4.249 130.746  0.00  0.00    +0.000 A 
ENDBRANCH  10  16
ENDBRANCH   1  10
BRANCH   4  19
ATOM     19  O   UNL     1     -13.155   7.587 128.841  0.00  0.00    +0.000 OA
ATOM     20  H   UNL     1     -13.940   7.181 129.273  0.00  0.00    +0.000 HD
ENDBRANCH   4  19
BRANCH   5  21
ATOM     21  O   UNL     1     -13.438   7.083 131.477  0.00  0.00    +0.000 OA
ATOM     22  H   UNL     1     -13.542   8.006 131.782  0.00  0.00    +0.000 HD
ENDBRANCH   5  21
TORSDOF 5
ENDMDL
MODEL 7
REMARK VINA RESULT:      -6.9      3.266      6.392
REMARK  Name = Tolcapone
REMARK  6 active torsions:
REMARK  status: ('A' for Active; 'I' for Inactive)
REMARK    1  A    between atoms: C_1  and  C_2
REMARK    2  A    between atoms: C_5  and  C_8
REMARK    3  A    between atoms: C_8  and  C_10
REMARK    4  A    between atoms: C_12  and  N_18
REMARK    5  A    between atoms: C_13  and  O_14
REMARK    6  A    between atoms: C_15  and  O_16
REMARK                            x       y       z     vdW  Elec       q    Type
REMARK                         _______ _______ _______ _____ _____    ______ ____
ROOT
ATOM      1  C   UNL     1      -6.913   1.609 124.343  0.00  0.00    +0.000 A 
ATOM      2  C   UNL     1      -7.138   0.431 123.610  0.00  0.00    +0.000 A 
ATOM      3  C   UNL     1      -6.622  -0.797 124.071  0.00  0.00    +0.000 A 
ATOM      4  C   UNL     1      -5.878  -0.854 125.258  0.00  0.00    +0.000 A 
ATOM      5  C   UNL     1      -5.661   0.327 125.966  0.00  0.00    +0.000 A 
ATOM      6  C   UNL     1      -6.179   1.540 125.530  0.00  0.00    +0.000 A 
ENDROOT
BRANCH   3   7
ATOM      7  N   UNL     1      -6.872  -2.012 123.288  0.00  0.00    +0.000 N 
ATOM      8  O   UNL     1      -8.011  -2.196 122.841  0.00  0.00    +0.000 OA
ATOM      9  O   UNL     1      -5.917  -2.787 123.121  0.00  0.00    +0.000 OA
ENDBRANCH   3   7
BRANCH   1  10
ATOM     10  C   UNL     1      -7.492   2.902 123.862  0.00  0.00    +0.000 C 
ATOM     11  O   UNL     1      -8.012   3.678 124.659  0.00  0.00    +0.000 OA
BRANCH  10  16
ATOM     12  C   UNL     1      -7.228   4.640 118.349  0.00  0.00    +0.000 C 
ATOM     13  C   UNL     1      -7.305   4.155 119.767  0.00  0.00    +0.000 A 
ATOM     14  C   UNL     1      -8.537   3.852 120.364  0.00  0.00    +0.000 A 
ATOM     15  C   UNL     1      -8.594   3.415 121.692  0.00  0.00    +0.000 A 
ATOM     16  C   UNL     1      -7.416   3.290 122.432  0.00  0.00    +0.000 A 
ATOM     17  C   UNL     1      -6.180   3.554 121.834  0.00  0.00    +0.000 A 
ATOM     18  C   UNL     1      -6.128   3.999 120.512  0.00  0.00    +0.000 A 
ENDBRANCH  10  16
ENDBRANCH   1  10
BRANCH   4  19
ATOM     19  O   UNL     1      -5.333  -1.983 125.812  0.00  0.00    +0.000 OA
ATOM     20  H   UNL     1      -5.032  -2.587 125.097  0.00  0.00    +0.000 HD
ENDBRANCH   4  19
BRANCH   5  21
ATOM     21  O   UNL     1      -4.933   0.341 127.122  0.00  0.00    +0.000 OA
ATOM     22  H   UNL     1      -4.049  -0.009 126.897  0.00  0.00    +0.000 HD
ENDBRANCH   5  21
TORSDOF 5
ENDMDL
MODEL 8
REMARK VINA RESULT:      -6.8      2.830      5.919
REMARK  Name = Tolcapone
REMARK  6 active torsions:
REMARK  status: ('A' for Active; 'I' for Inactive)
REMARK    1  A    between atoms: C_1  and  C_2
REMARK    2  A    between atoms: C_5  and  C_8
REMARK    3  A    between atoms: C_8  and  C_10
REMARK    4  A    between atoms: C_12  and  N_18
REMARK    5  A    between atoms: C_13  and  O_14
REMARK    6  A    between atoms: C_15  and  O_16
REMARK                            x       y       z     vdW  Elec       q    Type
REMARK                         _______ _______ _______ _____ _____    ______ ____
ROOT
ATOM      1  C   UNL     1      -7.593   0.625 124.079  0.00  0.00    +0.000 A 
ATOM      2  C   UNL     1      -8.164  -0.066 125.161  0.00  0.00    +0.000 A 
ATOM      3  C   UNL     1      -8.005  -1.462 125.271  0.00  0.00    +0.000 A 
ATOM      4  C   UNL     1      -7.283  -2.173 124.302  0.00  0.00    +0.000 A 
ATOM      5  C   UNL     1      -6.731  -1.469 123.233  0.00  0.00    +0.000 A 
ATOM      6  C   UNL     1      -6.867  -0.091 123.123  0.00  0.00    +0.000 A 
ENDROOT
BRANCH   3   7
ATOM      7  N   UNL     1      -8.609  -2.159 126.411  0.00  0.00    +0.000 N 
ATOM      8  O   UNL     1      -9.461  -3.027 126.184  0.00  0.00    +0.000 OA
ATOM      9  O   UNL     1      -8.224  -1.831 127.545  0.00  0.00    +0.000 OA
ENDBRANCH   3   7
BRANCH   1  10
ATOM     10  C   UNL     1      -7.740   2.112 123.989  0.00  0.00    +0.000 C 
ATOM     11  O   UNL     1      -7.926   2.774 125.007  0.00  0.00    +0.000 OA
BRANCH  10  16
ATOM     12  C   UNL     1      -7.249   4.650 118.813  0.00  0.00    +0.000 C 
ATOM     13  C   UNL     1      -7.370   4.024 120.172  0.00  0.00    +0.000 A 
ATOM     14  C   UNL     1      -6.239   3.804 120.971  0.00  0.00    +0.000 A 
ATOM     15  C   UNL     1      -6.365   3.206 122.230  0.00  0.00    +0.000 A 
ATOM     16  C   UNL     1      -7.625   2.815 122.689  0.00  0.00    +0.000 A 
ATOM     17  C   UNL     1      -8.762   3.064 121.914  0.00  0.00    +0.000 A 
ATOM     18  C   UNL     1      -8.631   3.652 120.655  0.00  0.00    +0.000 A 
ENDBRANCH  10  16
ENDBRANCH   1  10
BRANCH   4  19
ATOM     19  O   UNL     1      -7.053  -3.524 124.301  0.00  0.00    +0.000 OA
ATOM     20  H   UNL     1      -6.132  -3.701 124.003  0.00  0.00    +0.000 HD
ENDBRANCH   4  19
BRANCH   5  21
ATOM     21  O   UNL     1      -6.028  -2.104 122.248  0.00  0.00    +0.000 OA
ATOM     22  H   UNL     1      -5.279  -1.519 122.020  0.00  0.00    +0.000 HD
ENDBRANCH   5  21
TORSDOF 5
ENDMDL
MODEL 9
REMARK VINA RESULT:      -6.8      7.794      9.391
REMARK  Name = Tolcapone
REMARK  6 active torsions:
REMARK  status: ('A' for Active; 'I' for Inactive)
REMARK    1  A    between atoms: C_1  and  C_2
REMARK    2  A    between atoms: C_5  and  C_8
REMARK    3  A    between atoms: C_8  and  C_10
REMARK    4  A    between atoms: C_12  and  N_18
REMARK    5  A    between atoms: C_13  and  O_14
REMARK    6  A    between atoms: C_15  and  O_16
REMARK                            x       y       z     vdW  Elec       q    Type
REMARK                         _______ _______ _______ _____ _____    ______ ____
ROOT
ATOM      1  C   UNL     1     -10.065   6.065 131.369  0.00  0.00    +0.000 A 
ATOM      2  C   UNL     1      -9.777   6.399 130.035  0.00  0.00    +0.000 A 
ATOM      3  C   UNL     1     -10.739   7.064 129.248  0.00  0.00    +0.000 A 
ATOM      4  C   UNL     1     -11.991   7.393 129.787  0.00  0.00    +0.000 A 
ATOM      5  C   UNL     1     -12.259   7.047 131.111  0.00  0.00    +0.000 A 
ATOM      6  C   UNL     1     -11.312   6.407 131.900  0.00  0.00    +0.000 A 
ENDROOT
BRANCH   3   7
ATOM      7  N   UNL     1     -10.412   7.402 127.859  0.00  0.00    +0.000 N 
ATOM      8  O   UNL     1     -10.691   8.536 127.451  0.00  0.00    +0.000 OA
ATOM      9  O   UNL     1      -9.870   6.520 127.173  0.00  0.00    +0.000 OA
ENDBRANCH   3   7
BRANCH   1  10
ATOM     10  C   UNL     1      -9.024   5.388 132.204  0.00  0.00    +0.000 C 
ATOM     11  O   UNL     1      -8.327   6.047 132.971  0.00  0.00    +0.000 OA
BRANCH  10  16
ATOM     12  C   UNL     1      -8.424  -0.367 132.225  0.00  0.00    +0.000 C 
ATOM     13  C   UNL     1      -8.551   1.129 132.195  0.00  0.00    +0.000 A 
ATOM     14  C   UNL     1      -7.597   1.950 132.811  0.00  0.00    +0.000 A 
ATOM     15  C   UNL     1      -7.738   3.342 132.789  0.00  0.00    +0.000 A 
ATOM     16  C   UNL     1      -8.842   3.917 132.156  0.00  0.00    +0.000 A 
ATOM     17  C   UNL     1      -9.779   3.107 131.507  0.00  0.00    +0.000 A 
ATOM     18  C   UNL     1      -9.641   1.718 131.541  0.00  0.00    +0.000 A 
ENDBRANCH  10  16
ENDBRANCH   1  10
BRANCH   4  19
ATOM     19  O   UNL     1     -13.003   8.044 129.130  0.00  0.00    +0.000 OA
ATOM     20  H   UNL     1     -12.867   9.016 129.197  0.00  0.00    +0.000 HD
ENDBRANCH   4  19
BRANCH   5  21
ATOM     21  O   UNL     1     -13.464   7.328 131.690  0.00  0.00    +0.000 OA
ATOM     22  H   UNL     1     -14.132   7.277 130.979  0.00  0.00    +0.000 HD
ENDBRANCH   5  21
TORSDOF 5
ENDMDL
