MODEL 1
REMARK VINA RESULT:      -7.4      0.000      0.000
REMARK  Name = Tolfenamic acid
REMARK  5 active torsions:
REMARK  status: ('A' for Active; 'I' for Inactive)
REMARK    1  A    between atoms: C_1  and  C_2
REMARK    2  A    between atoms: C_8  and  N_9
REMARK    3  A    between atoms: N_9  and  C_10
REMARK    4  A    between atoms: C_15  and  C_16
REMARK    5  A    between atoms: C_16  and  O_17
REMARK                            x       y       z     vdW  Elec       q    Type
REMARK                         _______ _______ _______ _____ _____    ______ ____
ROOT
ATOM      1  N   UNL     1      -9.759   6.124 129.239  0.00  0.00    +0.000 N 
ATOM      2  H   UNL     1      -9.112   6.210 128.457  0.00  0.00    +0.000 HD
ENDROOT
BRANCH   1  10
ATOM      3  C   UNL     1     -10.501   3.492 130.586  0.00  0.00    +0.000 C 
ATOM      4  C   UNL     1      -9.487   4.475 131.117  0.00  0.00    +0.000 A 
ATOM      5  C   UNL     1      -8.874   4.199 132.350  0.00  0.00    +0.000 A 
ATOM      6 CL   UNL     1      -9.300   2.818 133.306  0.00  0.00    +0.000 Cl
ATOM      7  C   UNL     1      -7.893   5.039 132.875  0.00  0.00    +0.000 A 
ATOM      8  C   UNL     1      -7.528   6.200 132.205  0.00  0.00    +0.000 A 
ATOM      9  C   UNL     1      -8.164   6.536 131.011  0.00  0.00    +0.000 A 
ATOM     10  C   UNL     1      -9.161   5.700 130.456  0.00  0.00    +0.000 A 
ENDBRANCH   1  10
BRANCH   1  11
ATOM     11  C   UNL     1     -10.906   6.936 129.083  0.00  0.00    +0.000 A 
ATOM     12  C   UNL     1     -11.573   7.252 130.288  0.00  0.00    +0.000 A 
ATOM     13  C   UNL     1     -12.592   8.196 130.320  0.00  0.00    +0.000 A 
ATOM     14  C   UNL     1     -12.911   8.886 129.160  0.00  0.00    +0.000 A 
ATOM     15  C   UNL     1     -12.299   8.553 127.945  0.00  0.00    +0.000 A 
ATOM     16  C   UNL     1     -11.334   7.527 127.859  0.00  0.00    +0.000 A 
BRANCH  16  17
ATOM     17  C   UNL     1     -10.616   7.243 126.544  0.00  0.00    +0.000 C 
ATOM     18  O   UNL     1      -9.775   6.364 126.383  0.00  0.00    +0.000 OA
BRANCH  17  19
ATOM     19  O   UNL     1     -10.886   8.074 125.511  0.00  0.00    +0.000 OA
ATOM     20  H   UNL     1     -10.164   8.542 125.068  0.00  0.00    +0.000 HD
ENDBRANCH  17  19
ENDBRANCH  16  17
ENDBRANCH   1  11
TORSDOF 4
ENDMDL
MODEL 2
REMARK VINA RESULT:      -7.1      1.087      2.135
REMARK  Name = Tolfenamic acid
REMARK  5 active torsions:
REMARK  status: ('A' for Active; 'I' for Inactive)
REMARK    1  A    between atoms: C_1  and  C_2
REMARK    2  A    between atoms: C_8  and  N_9
REMARK    3  A    between atoms: N_9  and  C_10
REMARK    4  A    between atoms: C_15  and  C_16
REMARK    5  A    between atoms: C_16  and  O_17
REMARK                            x       y       z     vdW  Elec       q    Type
REMARK                         _______ _______ _______ _____ _____    ______ ____
ROOT
ATOM      1  N   UNL     1      -9.976   5.558 129.966  0.00  0.00    +0.000 N 
ATOM      2  H   UNL     1      -9.134   5.940 129.540  0.00  0.00    +0.000 HD
ENDROOT
BRANCH   1  10
ATOM      3  C   UNL     1      -8.320   6.050 132.478  0.00  0.00    +0.000 C 
ATOM      4  C   UNL     1      -8.967   4.736 132.117  0.00  0.00    +0.000 A 
ATOM      5  C   UNL     1      -8.752   3.633 132.960  0.00  0.00    +0.000 A 
ATOM      6 CL   UNL     1      -7.714   3.718 134.346  0.00  0.00    +0.000 Cl
ATOM      7  C   UNL     1      -9.359   2.403 132.713  0.00  0.00    +0.000 A 
ATOM      8  C   UNL     1     -10.162   2.227 131.594  0.00  0.00    +0.000 A 
ATOM      9  C   UNL     1     -10.343   3.283 130.702  0.00  0.00    +0.000 A 
ATOM     10  C   UNL     1      -9.740   4.541 130.931  0.00  0.00    +0.000 A 
ENDBRANCH   1  10
BRANCH   1  11
ATOM     11  C   UNL     1     -11.064   6.461 129.919  0.00  0.00    +0.000 A 
ATOM     12  C   UNL     1     -11.791   6.570 131.126  0.00  0.00    +0.000 A 
ATOM     13  C   UNL     1     -12.756   7.556 131.296  0.00  0.00    +0.000 A 
ATOM     14  C   UNL     1     -12.958   8.486 130.288  0.00  0.00    +0.000 A 
ATOM     15  C   UNL     1     -12.286   8.364 129.065  0.00  0.00    +0.000 A 
ATOM     16  C   UNL     1     -11.375   7.314 128.822  0.00  0.00    +0.000 A 
BRANCH  16  17
ATOM     17  C   UNL     1     -10.587   7.254 127.518  0.00  0.00    +0.000 C 
ATOM     18  O   UNL     1      -9.729   6.417 127.259  0.00  0.00    +0.000 OA
BRANCH  17  19
ATOM     19  O   UNL     1     -10.816   8.243 126.622  0.00  0.00    +0.000 OA
ATOM     20  H   UNL     1     -11.702   8.624 126.543  0.00  0.00    +0.000 HD
ENDBRANCH  17  19
ENDBRANCH  16  17
ENDBRANCH   1  11
TORSDOF 4
ENDMDL
MODEL 3
REMARK VINA RESULT:      -6.8      8.370      9.461
REMARK  Name = Tolfenamic acid
REMARK  5 active torsions:
REMARK  status: ('A' for Active; 'I' for Inactive)
REMARK    1  A    between atoms: C_1  and  C_2
REMARK    2  A    between atoms: C_8  and  N_9
REMARK    3  A    between atoms: N_9  and  C_10
REMARK    4  A    between atoms: C_15  and  C_16
REMARK    5  A    between atoms: C_16  and  O_17
REMARK                            x       y       z     vdW  Elec       q    Type
REMARK                         _______ _______ _______ _____ _____    ______ ____
ROOT
ATOM      1  N   UNL     1      -8.077   0.393 125.162  0.00  0.00    +0.000 N 
ATOM      2  H   UNL     1      -8.717   0.569 125.934  0.00  0.00    +0.000 HD
ENDROOT
BRANCH   1  10
ATOM      3  C   UNL     1      -5.301  -0.865 125.239  0.00  0.00    +0.000 C 
ATOM      4  C   UNL     1      -6.573  -1.604 124.900  0.00  0.00    +0.000 A 
ATOM      5  C   UNL     1      -6.480  -2.956 124.533  0.00  0.00    +0.000 A 
ATOM      6 CL   UNL     1      -4.958  -3.772 124.387  0.00  0.00    +0.000 Cl
ATOM      7  C   UNL     1      -7.619  -3.711 124.255  0.00  0.00    +0.000 A 
ATOM      8  C   UNL     1      -8.877  -3.126 124.292  0.00  0.00    +0.000 A 
ATOM      9  C   UNL     1      -8.998  -1.768 124.588  0.00  0.00    +0.000 A 
ATOM     10  C   UNL     1      -7.860  -0.981 124.876  0.00  0.00    +0.000 A 
ENDBRANCH   1  10
BRANCH   1  11
ATOM     11  C   UNL     1      -8.010   1.479 124.258  0.00  0.00    +0.000 A 
ATOM     12  C   UNL     1      -6.748   2.112 124.190  0.00  0.00    +0.000 A 
ATOM     13  C   UNL     1      -6.470   3.059 123.211  0.00  0.00    +0.000 A 
ATOM     14  C   UNL     1      -7.428   3.335 122.247  0.00  0.00    +0.000 A 
ATOM     15  C   UNL     1      -8.702   2.759 122.327  0.00  0.00    +0.000 A 
ATOM     16  C   UNL     1      -9.050   1.872 123.367  0.00  0.00    +0.000 A 
BRANCH  16  17
ATOM     17  C   UNL     1     -10.412   1.186 123.383  0.00  0.00    +0.000 C 
ATOM     18  O   UNL     1     -10.843   0.468 122.486  0.00  0.00    +0.000 OA
BRANCH  17  19
ATOM     19  O   UNL     1     -11.218   1.456 124.437  0.00  0.00    +0.000 OA
ATOM     20  H   UNL     1     -12.066   0.999 124.523  0.00  0.00    +0.000 HD
ENDBRANCH  17  19
ENDBRANCH  16  17
ENDBRANCH   1  11
TORSDOF 4
ENDMDL
MODEL 4
REMARK VINA RESULT:      -6.7      3.016      5.742
REMARK  Name = Tolfenamic acid
REMARK  5 active torsions:
REMARK  status: ('A' for Active; 'I' for Inactive)
REMARK    1  A    between atoms: C_1  and  C_2
REMARK    2  A    between atoms: C_8  and  N_9
REMARK    3  A    between atoms: N_9  and  C_10
REMARK    4  A    between atoms: C_15  and  C_16
REMARK    5  A    between atoms: C_16  and  O_17
REMARK                            x       y       z     vdW  Elec       q    Type
REMARK                         _______ _______ _______ _____ _____    ______ ____
ROOT
ATOM      1  N   UNL     1      -9.499   6.302 129.731  0.00  0.00    +0.000 N 
ATOM      2  H   UNL     1      -9.527   5.817 128.836  0.00  0.00    +0.000 HD
ENDROOT
BRANCH   1  10
ATOM      3  C   UNL     1     -10.733   8.498 128.014  0.00  0.00    +0.000 C 
ATOM      4  C   UNL     1     -11.315   7.988 129.309  0.00  0.00    +0.000 A 
ATOM      5  C   UNL     1     -12.479   8.600 129.803  0.00  0.00    +0.000 A 
ATOM      6 CL   UNL     1     -13.214   9.958 129.017  0.00  0.00    +0.000 Cl
ATOM      7  C   UNL     1     -13.097   8.147 130.967  0.00  0.00    +0.000 A 
ATOM      8  C   UNL     1     -12.546   7.099 131.695  0.00  0.00    +0.000 A 
ATOM      9  C   UNL     1     -11.355   6.514 131.267  0.00  0.00    +0.000 A 
ATOM     10  C   UNL     1     -10.710   6.954 130.088  0.00  0.00    +0.000 A 
ENDBRANCH   1  10
BRANCH   1  11
ATOM     11  C   UNL     1      -8.520   5.770 130.603  0.00  0.00    +0.000 A 
ATOM     12  C   UNL     1      -7.565   6.706 131.058  0.00  0.00    +0.000 A 
ATOM     13  C   UNL     1      -6.667   6.384 132.068  0.00  0.00    +0.000 A 
ATOM     14  C   UNL     1      -6.757   5.144 132.683  0.00  0.00    +0.000 A 
ATOM     15  C   UNL     1      -7.661   4.183 132.212  0.00  0.00    +0.000 A 
ATOM     16  C   UNL     1      -8.517   4.443 131.121  0.00  0.00    +0.000 A 
BRANCH  16  17
ATOM     17  C   UNL     1      -9.556   3.415 130.684  0.00  0.00    +0.000 C 
ATOM     18  O   UNL     1      -9.810   3.131 129.519  0.00  0.00    +0.000 OA
BRANCH  17  19
ATOM     19  O   UNL     1     -10.287   2.836 131.665  0.00  0.00    +0.000 OA
ATOM     20  H   UNL     1     -10.299   1.872 131.750  0.00  0.00    +0.000 HD
ENDBRANCH  17  19
ENDBRANCH  16  17
ENDBRANCH   1  11
TORSDOF 4
ENDMDL
MODEL 5
REMARK VINA RESULT:      -6.7      8.737     10.784
REMARK  Name = Tolfenamic acid
REMARK  5 active torsions:
REMARK  status: ('A' for Active; 'I' for Inactive)
REMARK    1  A    between atoms: C_1  and  C_2
REMARK    2  A    between atoms: C_8  and  N_9
REMARK    3  A    between atoms: N_9  and  C_10
REMARK    4  A    between atoms: C_15  and  C_16
REMARK    5  A    between atoms: C_16  and  O_17
REMARK                            x       y       z     vdW  Elec       q    Type
REMARK                         _______ _______ _______ _____ _____    ______ ____
ROOT
ATOM      1  N   UNL     1      -7.829  -0.311 124.877  0.00  0.00    +0.000 N 
ATOM      2  H   UNL     1      -8.090  -0.295 125.860  0.00  0.00    +0.000 HD
ENDROOT
BRANCH   1  10
ATOM      3  C   UNL     1      -9.583   0.810 122.650  0.00  0.00    +0.000 C 
ATOM      4  C   UNL     1      -8.401   1.525 123.258  0.00  0.00    +0.000 A 
ATOM      5  C   UNL     1      -8.035   2.774 122.731  0.00  0.00    +0.000 A 
ATOM      6 CL   UNL     1      -8.842   3.476 121.367  0.00  0.00    +0.000 Cl
ATOM      7  C   UNL     1      -6.985   3.511 123.277  0.00  0.00    +0.000 A 
ATOM      8  C   UNL     1      -6.244   3.002 124.336  0.00  0.00    +0.000 A 
ATOM      9  C   UNL     1      -6.540   1.736 124.839  0.00  0.00    +0.000 A 
ATOM     10  C   UNL     1      -7.601   0.970 124.304  0.00  0.00    +0.000 A 
ENDBRANCH   1  10
BRANCH   1  11
ATOM     11  C   UNL     1      -7.240  -1.539 124.494  0.00  0.00    +0.000 A 
ATOM     12  C   UNL     1      -5.840  -1.488 124.306  0.00  0.00    +0.000 A 
ATOM     13  C   UNL     1      -5.096  -2.648 124.126  0.00  0.00    +0.000 A 
ATOM     14  C   UNL     1      -5.733  -3.878 124.198  0.00  0.00    +0.000 A 
ATOM     15  C   UNL     1      -7.126  -3.949 124.330  0.00  0.00    +0.000 A 
ATOM     16  C   UNL     1      -7.922  -2.787 124.413  0.00  0.00    +0.000 A 
BRANCH  16  17
ATOM     17  C   UNL     1      -9.426  -2.889 124.649  0.00  0.00    +0.000 C 
ATOM     18  O   UNL     1      -9.987  -2.613 125.704  0.00  0.00    +0.000 OA
BRANCH  17  19
ATOM     19  O   UNL     1     -10.168  -3.386 123.633  0.00  0.00    +0.000 OA
ATOM     20  H   UNL     1     -10.364  -2.832 122.864  0.00  0.00    +0.000 HD
ENDBRANCH  17  19
ENDBRANCH  16  17
ENDBRANCH   1  11
TORSDOF 4
ENDMDL
MODEL 6
REMARK VINA RESULT:      -6.5      3.472      5.948
REMARK  Name = Tolfenamic acid
REMARK  5 active torsions:
REMARK  status: ('A' for Active; 'I' for Inactive)
REMARK    1  A    between atoms: C_1  and  C_2
REMARK    2  A    between atoms: C_8  and  N_9
REMARK    3  A    between atoms: N_9  and  C_10
REMARK    4  A    between atoms: C_15  and  C_16
REMARK    5  A    between atoms: C_16  and  O_17
REMARK                            x       y       z     vdW  Elec       q    Type
REMARK                         _______ _______ _______ _____ _____    ______ ____
ROOT
ATOM      1  N   UNL     1     -11.160   5.346 131.040  0.00  0.00    +0.000 N 
ATOM      2  H   UNL     1     -11.649   5.485 131.921  0.00  0.00    +0.000 HD
ENDROOT
BRANCH   1  10
ATOM      3  C   UNL     1     -13.016   7.718 131.513  0.00  0.00    +0.000 C 
ATOM      4  C   UNL     1     -12.078   7.579 130.339  0.00  0.00    +0.000 A 
ATOM      5  C   UNL     1     -12.091   8.579 129.354  0.00  0.00    +0.000 A 
ATOM      6 CL   UNL     1     -13.196   9.915 129.407  0.00  0.00    +0.000 Cl
ATOM      7  C   UNL     1     -11.217   8.539 128.269  0.00  0.00    +0.000 A 
ATOM      8  C   UNL     1     -10.336   7.477 128.114  0.00  0.00    +0.000 A 
ATOM      9  C   UNL     1     -10.343   6.435 129.040  0.00  0.00    +0.000 A 
ATOM     10  C   UNL     1     -11.219   6.452 130.150  0.00  0.00    +0.000 A 
ENDBRANCH   1  10
BRANCH   1  11
ATOM     11  C   UNL     1     -10.134   4.377 131.138  0.00  0.00    +0.000 A 
ATOM     12  C   UNL     1     -10.335   3.223 130.349  0.00  0.00    +0.000 A 
ATOM     13  C   UNL     1      -9.329   2.278 130.186  0.00  0.00    +0.000 A 
ATOM     14  C   UNL     1      -8.086   2.510 130.755  0.00  0.00    +0.000 A 
ATOM     15  C   UNL     1      -7.881   3.621 131.584  0.00  0.00    +0.000 A 
ATOM     16  C   UNL     1      -8.913   4.545 131.853  0.00  0.00    +0.000 A 
BRANCH  16  17
ATOM     17  C   UNL     1      -8.641   5.795 132.683  0.00  0.00    +0.000 C 
ATOM     18  O   UNL     1      -7.538   6.312 132.827  0.00  0.00    +0.000 OA
BRANCH  17  19
ATOM     19  O   UNL     1      -9.692   6.316 133.359  0.00  0.00    +0.000 OA
ATOM     20  H   UNL     1      -9.852   7.270 133.336  0.00  0.00    +0.000 HD
ENDBRANCH  17  19
ENDBRANCH  16  17
ENDBRANCH   1  11
TORSDOF 4
ENDMDL
MODEL 7
REMARK VINA RESULT:      -6.5      8.150      9.982
REMARK  Name = Tolfenamic acid
REMARK  5 active torsions:
REMARK  status: ('A' for Active; 'I' for Inactive)
REMARK    1  A    between atoms: C_1  and  C_2
REMARK    2  A    between atoms: C_8  and  N_9
REMARK    3  A    between atoms: N_9  and  C_10
REMARK    4  A    between atoms: C_15  and  C_16
REMARK    5  A    between atoms: C_16  and  O_17
REMARK                            x       y       z     vdW  Elec       q    Type
REMARK                         _______ _______ _______ _____ _____    ______ ____
ROOT
ATOM      1  N   UNL     1      -7.570  -0.984 126.137  0.00  0.00    +0.000 N 
ATOM      2  H   UNL     1      -8.106  -0.119 126.130  0.00  0.00    +0.000 HD
ENDROOT
BRANCH   1  10
ATOM      3  C   UNL     1      -6.887  -0.480 129.066  0.00  0.00    +0.000 C 
ATOM      4  C   UNL     1      -7.623  -1.692 128.549  0.00  0.00    +0.000 A 
ATOM      5  C   UNL     1      -7.975  -2.698 129.464  0.00  0.00    +0.000 A 
ATOM      6 CL   UNL     1      -7.526  -2.625 131.136  0.00  0.00    +0.000 Cl
ATOM      7  C   UNL     1      -8.698  -3.820 129.063  0.00  0.00    +0.000 A 
ATOM      8  C   UNL     1      -9.053  -3.991 127.731  0.00  0.00    +0.000 A 
ATOM      9  C   UNL     1      -8.661  -3.043 126.787  0.00  0.00    +0.000 A 
ATOM     10  C   UNL     1      -7.929  -1.895 127.167  0.00  0.00    +0.000 A 
ENDBRANCH   1  10
BRANCH   1  11
ATOM     11  C   UNL     1      -7.028  -1.295 124.868  0.00  0.00    +0.000 A 
ATOM     12  C   UNL     1      -5.743  -1.880 124.902  0.00  0.00    +0.000 A 
ATOM     13  C   UNL     1      -5.168  -2.420 123.758  0.00  0.00    +0.000 A 
ATOM     14  C   UNL     1      -5.898  -2.441 122.580  0.00  0.00    +0.000 A 
ATOM     15  C   UNL     1      -7.152  -1.819 122.511  0.00  0.00    +0.000 A 
ATOM     16  C   UNL     1      -7.720  -1.172 123.628  0.00  0.00    +0.000 A 
BRANCH  16  17
ATOM     17  C   UNL     1      -9.124  -0.582 123.555  0.00  0.00    +0.000 C 
ATOM     18  O   UNL     1      -9.619   0.150 124.406  0.00  0.00    +0.000 OA
BRANCH  17  19
ATOM     19  O   UNL     1      -9.889  -0.959 122.504  0.00  0.00    +0.000 OA
ATOM     20  H   UNL     1      -9.910  -0.413 121.705  0.00  0.00    +0.000 HD
ENDBRANCH  17  19
ENDBRANCH  16  17
ENDBRANCH   1  11
TORSDOF 4
ENDMDL
MODEL 8
REMARK VINA RESULT:      -6.5      7.885      9.120
REMARK  Name = Tolfenamic acid
REMARK  5 active torsions:
REMARK  status: ('A' for Active; 'I' for Inactive)
REMARK    1  A    between atoms: C_1  and  C_2
REMARK    2  A    between atoms: C_8  and  N_9
REMARK    3  A    between atoms: N_9  and  C_10
REMARK    4  A    between atoms: C_15  and  C_16
REMARK    5  A    between atoms: C_16  and  O_17
REMARK                            x       y       z     vdW  Elec       q    Type
REMARK                         _______ _______ _______ _____ _____    ______ ____
ROOT
ATOM      1  N   UNL     1      -7.658   0.999 123.351  0.00  0.00    +0.000 N 
ATOM      2  H   UNL     1      -8.004   1.132 122.402  0.00  0.00    +0.000 HD
ENDROOT
BRANCH   1  10
ATOM      3  C   UNL     1      -9.299  -0.266 125.587  0.00  0.00    +0.000 C 
ATOM      4  C   UNL     1      -8.245  -0.984 124.780  0.00  0.00    +0.000 A 
ATOM      5  C   UNL     1      -7.945  -2.315 125.110  0.00  0.00    +0.000 A 
ATOM      6 CL   UNL     1      -8.687  -3.125 126.451  0.00  0.00    +0.000 Cl
ATOM      7  C   UNL     1      -7.017  -3.052 124.376  0.00  0.00    +0.000 A 
ATOM      8  C   UNL     1      -6.331  -2.468 123.319  0.00  0.00    +0.000 A 
ATOM      9  C   UNL     1      -6.558  -1.127 123.007  0.00  0.00    +0.000 A 
ATOM     10  C   UNL     1      -7.495  -0.359 123.735  0.00  0.00    +0.000 A 
ENDBRANCH   1  10
BRANCH   1  11
ATOM     11  C   UNL     1      -6.933   2.118 123.823  0.00  0.00    +0.000 A 
ATOM     12  C   UNL     1      -6.312   1.931 125.078  0.00  0.00    +0.000 A 
ATOM     13  C   UNL     1      -5.407   2.860 125.579  0.00  0.00    +0.000 A 
ATOM     14  C   UNL     1      -5.062   3.954 124.800  0.00  0.00    +0.000 A 
ATOM     15  C   UNL     1      -5.704   4.186 123.577  0.00  0.00    +0.000 A 
ATOM     16  C   UNL     1      -6.702   3.317 123.088  0.00  0.00    +0.000 A 
BRANCH  16  17
ATOM     17  C   UNL     1      -7.323   3.540 121.713  0.00  0.00    +0.000 C 
ATOM     18  O   UNL     1      -6.687   3.648 120.669  0.00  0.00    +0.000 OA
BRANCH  17  19
ATOM     19  O   UNL     1      -8.666   3.696 121.670  0.00  0.00    +0.000 OA
ATOM     20  H   UNL     1      -9.054   4.364 121.087  0.00  0.00    +0.000 HD
ENDBRANCH  17  19
ENDBRANCH  16  17
ENDBRANCH   1  11
TORSDOF 4
ENDMDL
MODEL 9
REMARK VINA RESULT:      -6.4      8.309     10.291
REMARK  Name = Tolfenamic acid
REMARK  5 active torsions:
REMARK  status: ('A' for Active; 'I' for Inactive)
REMARK    1  A    between atoms: C_1  and  C_2
REMARK    2  A    between atoms: C_8  and  N_9
REMARK    3  A    between atoms: N_9  and  C_10
REMARK    4  A    between atoms: C_15  and  C_16
REMARK    5  A    between atoms: C_16  and  O_17
REMARK                            x       y       z     vdW  Elec       q    Type
REMARK                         _______ _______ _______ _____ _____    ______ ____
ROOT
ATOM      1  N   UNL     1      -7.897   0.193 123.489  0.00  0.00    +0.000 N 
ATOM      2  H   UNL     1      -8.892   0.283 123.681  0.00  0.00    +0.000 HD
ENDROOT
BRANCH   1  10
ATOM      3  C   UNL     1      -6.512   0.851 126.124  0.00  0.00    +0.000 C 
ATOM      4  C   UNL     1      -6.489   1.728 124.897  0.00  0.00    +0.000 A 
ATOM      5  C   UNL     1      -5.836   2.969 124.977  0.00  0.00    +0.000 A 
ATOM      6 CL   UNL     1      -5.129   3.549 126.450  0.00  0.00    +0.000 Cl
ATOM      7  C   UNL     1      -5.735   3.807 123.868  0.00  0.00    +0.000 A 
ATOM      8  C   UNL     1      -6.320   3.450 122.660  0.00  0.00    +0.000 A 
ATOM      9  C   UNL     1      -7.033   2.256 122.566  0.00  0.00    +0.000 A 
ATOM     10  C   UNL     1      -7.149   1.387 123.675  0.00  0.00    +0.000 A 
ENDBRANCH   1  10
BRANCH   1  11
ATOM     11  C   UNL     1      -7.438  -1.137 123.626  0.00  0.00    +0.000 A 
ATOM     12  C   UNL     1      -6.227  -1.416 122.953  0.00  0.00    +0.000 A 
ATOM     13  C   UNL     1      -5.551  -2.613 123.155  0.00  0.00    +0.000 A 
ATOM     14  C   UNL     1      -6.041  -3.518 124.084  0.00  0.00    +0.000 A 
ATOM     15  C   UNL     1      -7.266  -3.285 124.724  0.00  0.00    +0.000 A 
ATOM     16  C   UNL     1      -8.029  -2.127 124.464  0.00  0.00    +0.000 A 
BRANCH  16  17
ATOM     17  C   UNL     1      -9.313  -1.851 125.239  0.00  0.00    +0.000 C 
ATOM     18  O   UNL     1      -9.671  -0.743 125.624  0.00  0.00    +0.000 OA
BRANCH  17  19
ATOM     19  O   UNL     1     -10.063  -2.926 125.576  0.00  0.00    +0.000 OA
ATOM     20  H   UNL     1      -9.892  -3.782 125.158  0.00  0.00    +0.000 HD
ENDBRANCH  17  19
ENDBRANCH  16  17
ENDBRANCH   1  11
TORSDOF 4
ENDMDL
