MODEL 1
REMARK VINA RESULT:      -7.5      0.000      0.000
REMARK  Name = Tolmetin
REMARK  7 active torsions:
REMARK  status: ('A' for Active; 'I' for Inactive)
REMARK    1  A    between atoms: C_1  and  N_2
REMARK    2  A    between atoms: C_3  and  C_4
REMARK    3  A    between atoms: C_4  and  C_5
REMARK    4  A    between atoms: C_5  and  O_6
REMARK    5  A    between atoms: C_10  and  C_11
REMARK    6  A    between atoms: C_11  and  C_13
REMARK    7  A    between atoms: C_16  and  C_17
REMARK                            x       y       z     vdW  Elec       q    Type
REMARK                         _______ _______ _______ _____ _____    ______ ____
ROOT
ATOM      1  C   UNL     1     -10.295   0.749 122.565  0.00  0.00    +0.000 C 
ATOM      2  N   UNL     1      -9.027   0.227 123.060  0.00  0.00    +0.000 N 
ATOM      3  C   UNL     1      -8.555  -1.053 123.379  0.00  0.00    +0.000 A 
ATOM      4  C   UNL     1      -7.193  -0.889 123.662  0.00  0.00    +0.000 A 
ATOM      5  C   UNL     1      -6.854   0.473 123.582  0.00  0.00    +0.000 A 
ATOM      6  C   UNL     1      -8.013   1.162 123.303  0.00  0.00    +0.000 A 
ENDROOT
BRANCH   6   7
ATOM      7  C   UNL     1      -8.163   2.605 123.168  0.00  0.00    +0.000 C 
ATOM      8  O   UNL     1      -8.685   3.287 124.044  0.00  0.00    +0.000 OA
BRANCH   7   9
ATOM      9  C   UNL     1      -7.615   3.278 121.939  0.00  0.00    +0.000 A 
ATOM     10  C   UNL     1      -8.485   3.589 120.888  0.00  0.00    +0.000 A 
ATOM     11  C   UNL     1      -8.005   4.229 119.741  0.00  0.00    +0.000 A 
ATOM     12  C   UNL     1      -6.656   4.594 119.639  0.00  0.00    +0.000 A 
ATOM     13  C   UNL     1      -6.119   5.245 118.401  0.00  0.00    +0.000 C 
ATOM     14  C   UNL     1      -5.794   4.319 120.701  0.00  0.00    +0.000 A 
ATOM     15  C   UNL     1      -6.261   3.636 121.823  0.00  0.00    +0.000 A 
ENDBRANCH   7   9
ENDBRANCH   6   7
BRANCH   3  16
ATOM     16  C   UNL     1      -9.201  -2.454 123.414  0.00  0.00    +0.000 C 
BRANCH  16  17
ATOM     17  C   UNL     1      -9.192  -3.312 124.651  0.00  0.00    +0.000 C 
ATOM     18  O   UNL     1      -8.316  -4.146 124.909  0.00  0.00    +0.000 OA
BRANCH  17  19
ATOM     19  O   UNL     1     -10.115  -3.007 125.565  0.00  0.00    +0.000 OA
ATOM     20  H   UNL     1     -10.704  -2.354 125.152  0.00  0.00    +0.000 HD
ENDBRANCH  17  19
ENDBRANCH  16  17
ENDBRANCH   3  16
TORSDOF 5
ENDMDL
MODEL 2
REMARK VINA RESULT:      -7.3      9.501     11.953
REMARK  Name = Tolmetin
REMARK  7 active torsions:
REMARK  status: ('A' for Active; 'I' for Inactive)
REMARK    1  A    between atoms: C_1  and  N_2
REMARK    2  A    between atoms: C_3  and  C_4
REMARK    3  A    between atoms: C_4  and  C_5
REMARK    4  A    between atoms: C_5  and  O_6
REMARK    5  A    between atoms: C_10  and  C_11
REMARK    6  A    between atoms: C_11  and  C_13
REMARK    7  A    between atoms: C_16  and  C_17
REMARK                            x       y       z     vdW  Elec       q    Type
REMARK                         _______ _______ _______ _____ _____    ______ ____
ROOT
ATOM      1  C   UNL     1     -12.709   7.380 131.194  0.00  0.00    +0.000 C 
ATOM      2  N   UNL     1     -12.188   7.657 129.860  0.00  0.00    +0.000 N 
ATOM      3  C   UNL     1     -12.460   8.627 128.887  0.00  0.00    +0.000 A 
ATOM      4  C   UNL     1     -11.505   8.425 127.882  0.00  0.00    +0.000 A 
ATOM      5  C   UNL     1     -10.708   7.312 128.203  0.00  0.00    +0.000 A 
ATOM      6  C   UNL     1     -11.199   6.790 129.378  0.00  0.00    +0.000 A 
ENDROOT
BRANCH   6   7
ATOM      7  C   UNL     1     -10.718   5.606 130.078  0.00  0.00    +0.000 C 
ATOM      8  O   UNL     1     -11.310   4.533 130.020  0.00  0.00    +0.000 OA
BRANCH   7   9
ATOM      9  C   UNL     1      -9.431   5.696 130.853  0.00  0.00    +0.000 A 
ATOM     10  C   UNL     1      -9.069   4.640 131.696  0.00  0.00    +0.000 A 
ATOM     11  C   UNL     1      -7.871   4.691 132.415  0.00  0.00    +0.000 A 
ATOM     12  C   UNL     1      -7.003   5.782 132.280  0.00  0.00    +0.000 A 
ATOM     13  C   UNL     1      -5.734   5.869 133.073  0.00  0.00    +0.000 C 
ATOM     14  C   UNL     1      -7.343   6.819 131.411  0.00  0.00    +0.000 A 
ATOM     15  C   UNL     1      -8.561   6.793 130.732  0.00  0.00    +0.000 A 
ENDBRANCH   7   9
ENDBRANCH   6   7
BRANCH   3  16
ATOM     16  C   UNL     1     -13.483   9.776 128.778  0.00  0.00    +0.000 C 
BRANCH  16  17
ATOM     17  C   UNL     1     -13.480  10.948 129.725  0.00  0.00    +0.000 C 
ATOM     18  O   UNL     1     -13.372  10.847 130.951  0.00  0.00    +0.000 OA
BRANCH  17  19
ATOM     19  O   UNL     1     -13.433  12.149 129.145  0.00  0.00    +0.000 OA
ATOM     20  H   UNL     1     -14.293  12.568 129.312  0.00  0.00    +0.000 HD
ENDBRANCH  17  19
ENDBRANCH  16  17
ENDBRANCH   3  16
TORSDOF 5
ENDMDL
MODEL 3
REMARK VINA RESULT:      -7.2      2.824      7.057
REMARK  Name = Tolmetin
REMARK  7 active torsions:
REMARK  status: ('A' for Active; 'I' for Inactive)
REMARK    1  A    between atoms: C_1  and  N_2
REMARK    2  A    between atoms: C_3  and  C_4
REMARK    3  A    between atoms: C_4  and  C_5
REMARK    4  A    between atoms: C_5  and  O_6
REMARK    5  A    between atoms: C_10  and  C_11
REMARK    6  A    between atoms: C_11  and  C_13
REMARK    7  A    between atoms: C_16  and  C_17
REMARK                            x       y       z     vdW  Elec       q    Type
REMARK                         _______ _______ _______ _____ _____    ______ ____
ROOT
ATOM      1  C   UNL     1      -8.687   3.091 121.724  0.00  0.00    +0.000 C 
ATOM      2  N   UNL     1      -7.372   3.434 122.253  0.00  0.00    +0.000 N 
ATOM      3  C   UNL     1      -6.171   3.872 121.679  0.00  0.00    +0.000 A 
ATOM      4  C   UNL     1      -5.326   4.162 122.759  0.00  0.00    +0.000 A 
ATOM      5  C   UNL     1      -5.974   3.845 123.965  0.00  0.00    +0.000 A 
ATOM      6  C   UNL     1      -7.199   3.309 123.637  0.00  0.00    +0.000 A 
ENDROOT
BRANCH   6   7
ATOM      7  C   UNL     1      -8.205   2.796 124.558  0.00  0.00    +0.000 C 
ATOM      8  O   UNL     1      -9.000   3.537 125.128  0.00  0.00    +0.000 OA
BRANCH   7   9
ATOM      9  C   UNL     1      -8.298   1.310 124.776  0.00  0.00    +0.000 A 
ATOM     10  C   UNL     1      -7.413   0.466 124.095  0.00  0.00    +0.000 A 
ATOM     11  C   UNL     1      -7.468  -0.917 124.291  0.00  0.00    +0.000 A 
ATOM     12  C   UNL     1      -8.385  -1.475 125.191  0.00  0.00    +0.000 A 
ATOM     13  C   UNL     1      -8.482  -2.959 125.383  0.00  0.00    +0.000 C 
ATOM     14  C   UNL     1      -9.242  -0.633 125.899  0.00  0.00    +0.000 A 
ATOM     15  C   UNL     1      -9.223   0.741 125.667  0.00  0.00    +0.000 A 
ENDBRANCH   7   9
ENDBRANCH   6   7
BRANCH   3  16
ATOM     16  C   UNL     1      -5.702   4.107 120.229  0.00  0.00    +0.000 C 
BRANCH  16  17
ATOM     17  C   UNL     1      -5.353   5.478 119.710  0.00  0.00    +0.000 C 
ATOM     18  O   UNL     1      -4.678   6.303 120.333  0.00  0.00    +0.000 OA
BRANCH  17  19
ATOM     19  O   UNL     1      -5.681   5.706 118.437  0.00  0.00    +0.000 OA
ATOM     20  H   UNL     1      -5.626   6.666 118.307  0.00  0.00    +0.000 HD
ENDBRANCH  17  19
ENDBRANCH  16  17
ENDBRANCH   3  16
TORSDOF 5
ENDMDL
MODEL 4
REMARK VINA RESULT:      -7.0      1.050      2.035
REMARK  Name = Tolmetin
REMARK  7 active torsions:
REMARK  status: ('A' for Active; 'I' for Inactive)
REMARK    1  A    between atoms: C_1  and  N_2
REMARK    2  A    between atoms: C_3  and  C_4
REMARK    3  A    between atoms: C_4  and  C_5
REMARK    4  A    between atoms: C_5  and  O_6
REMARK    5  A    between atoms: C_10  and  C_11
REMARK    6  A    between atoms: C_11  and  C_13
REMARK    7  A    between atoms: C_16  and  C_17
REMARK                            x       y       z     vdW  Elec       q    Type
REMARK                         _______ _______ _______ _____ _____    ______ ____
ROOT
ATOM      1  C   UNL     1      -7.373   0.308 124.760  0.00  0.00    +0.000 C 
ATOM      2  N   UNL     1      -8.426  -0.007 123.802  0.00  0.00    +0.000 N 
ATOM      3  C   UNL     1      -8.977  -1.199 123.313  0.00  0.00    +0.000 A 
ATOM      4  C   UNL     1     -10.064  -0.809 122.519  0.00  0.00    +0.000 A 
ATOM      5  C   UNL     1     -10.135   0.594 122.471  0.00  0.00    +0.000 A 
ATOM      6  C   UNL     1      -9.064   1.078 123.188  0.00  0.00    +0.000 A 
ENDROOT
BRANCH   6   7
ATOM      7  C   UNL     1      -8.701   2.475 123.383  0.00  0.00    +0.000 C 
ATOM      8  O   UNL     1      -9.014   3.091 124.397  0.00  0.00    +0.000 OA
BRANCH   7   9
ATOM      9  C   UNL     1      -7.876   3.163 122.329  0.00  0.00    +0.000 A 
ATOM     10  C   UNL     1      -6.518   3.396 122.572  0.00  0.00    +0.000 A 
ATOM     11  C   UNL     1      -5.725   4.019 121.603  0.00  0.00    +0.000 A 
ATOM     12  C   UNL     1      -6.269   4.391 120.368  0.00  0.00    +0.000 A 
ATOM     13  C   UNL     1      -5.442   5.094 119.334  0.00  0.00    +0.000 C 
ATOM     14  C   UNL     1      -7.614   4.126 120.108  0.00  0.00    +0.000 A 
ATOM     15  C   UNL     1      -8.417   3.551 121.092  0.00  0.00    +0.000 A 
ENDBRANCH   7   9
ENDBRANCH   6   7
BRANCH   3  16
ATOM     16  C   UNL     1      -8.654  -2.692 123.523  0.00  0.00    +0.000 C 
BRANCH  16  17
ATOM     17  C   UNL     1      -7.520  -3.154 124.400  0.00  0.00    +0.000 C 
ATOM     18  O   UNL     1      -6.370  -3.357 123.995  0.00  0.00    +0.000 OA
BRANCH  17  19
ATOM     19  O   UNL     1      -7.784  -3.179 125.707  0.00  0.00    +0.000 OA
ATOM     20  H   UNL     1      -8.230  -4.023 125.881  0.00  0.00    +0.000 HD
ENDBRANCH  17  19
ENDBRANCH  16  17
ENDBRANCH   3  16
TORSDOF 5
ENDMDL
MODEL 5
REMARK VINA RESULT:      -6.9      3.059      6.733
REMARK  Name = Tolmetin
REMARK  7 active torsions:
REMARK  status: ('A' for Active; 'I' for Inactive)
REMARK    1  A    between atoms: C_1  and  N_2
REMARK    2  A    between atoms: C_3  and  C_4
REMARK    3  A    between atoms: C_4  and  C_5
REMARK    4  A    between atoms: C_5  and  O_6
REMARK    5  A    between atoms: C_10  and  C_11
REMARK    6  A    between atoms: C_11  and  C_13
REMARK    7  A    between atoms: C_16  and  C_17
REMARK                            x       y       z     vdW  Elec       q    Type
REMARK                         _______ _______ _______ _____ _____    ______ ____
ROOT
ATOM      1  C   UNL     1      -7.301   1.893 123.371  0.00  0.00    +0.000 C 
ATOM      2  N   UNL     1      -7.850   1.643 124.699  0.00  0.00    +0.000 N 
ATOM      3  C   UNL     1      -7.908   2.381 125.888  0.00  0.00    +0.000 A 
ATOM      4  C   UNL     1      -8.706   1.626 126.758  0.00  0.00    +0.000 A 
ATOM      5  C   UNL     1      -9.074   0.420 126.136  0.00  0.00    +0.000 A 
ATOM      6  C   UNL     1      -8.463   0.400 124.902  0.00  0.00    +0.000 A 
ENDROOT
BRANCH   6   7
ATOM      7  C   UNL     1      -8.520  -0.671 123.915  0.00  0.00    +0.000 C 
ATOM      8  O   UNL     1      -9.466  -0.791 123.143  0.00  0.00    +0.000 OA
BRANCH   7   9
ATOM      9  C   UNL     1      -7.360  -1.623 123.812  0.00  0.00    +0.000 A 
ATOM     10  C   UNL     1      -7.133  -2.535 124.849  0.00  0.00    +0.000 A 
ATOM     11  C   UNL     1      -6.071  -3.441 124.770  0.00  0.00    +0.000 A 
ATOM     12  C   UNL     1      -5.240  -3.471 123.643  0.00  0.00    +0.000 A 
ATOM     13  C   UNL     1      -4.075  -4.411 123.561  0.00  0.00    +0.000 C 
ATOM     14  C   UNL     1      -5.487  -2.589 122.591  0.00  0.00    +0.000 A 
ATOM     15  C   UNL     1      -6.514  -1.651 122.690  0.00  0.00    +0.000 A 
ENDBRANCH   7   9
ENDBRANCH   6   7
BRANCH   3  16
ATOM     16  C   UNL     1      -7.346   3.750 126.326  0.00  0.00    +0.000 C 
BRANCH  16  17
ATOM     17  C   UNL     1      -7.834   5.045 125.733  0.00  0.00    +0.000 C 
ATOM     18  O   UNL     1      -8.930   5.555 125.989  0.00  0.00    +0.000 OA
BRANCH  17  19
ATOM     19  O   UNL     1      -6.931   5.723 125.022  0.00  0.00    +0.000 OA
ATOM     20  H   UNL     1      -6.986   5.384 124.114  0.00  0.00    +0.000 HD
ENDBRANCH  17  19
ENDBRANCH  16  17
ENDBRANCH   3  16
TORSDOF 5
ENDMDL
MODEL 6
REMARK VINA RESULT:      -6.8      2.924      6.776
REMARK  Name = Tolmetin
REMARK  7 active torsions:
REMARK  status: ('A' for Active; 'I' for Inactive)
REMARK    1  A    between atoms: C_1  and  N_2
REMARK    2  A    between atoms: C_3  and  C_4
REMARK    3  A    between atoms: C_4  and  C_5
REMARK    4  A    between atoms: C_5  and  O_6
REMARK    5  A    between atoms: C_10  and  C_11
REMARK    6  A    between atoms: C_11  and  C_13
REMARK    7  A    between atoms: C_16  and  C_17
REMARK                            x       y       z     vdW  Elec       q    Type
REMARK                         _______ _______ _______ _____ _____    ______ ____
ROOT
ATOM      1  C   UNL     1      -8.084   0.076 126.280  0.00  0.00    +0.000 C 
ATOM      2  N   UNL     1      -8.111   1.003 125.155  0.00  0.00    +0.000 N 
ATOM      3  C   UNL     1      -7.964   2.391 125.029  0.00  0.00    +0.000 A 
ATOM      4  C   UNL     1      -7.949   2.640 123.650  0.00  0.00    +0.000 A 
ATOM      5  C   UNL     1      -8.150   1.438 122.949  0.00  0.00    +0.000 A 
ATOM      6  C   UNL     1      -8.342   0.451 123.889  0.00  0.00    +0.000 A 
ENDROOT
BRANCH   6   7
ATOM      7  C   UNL     1      -8.628  -0.955 123.635  0.00  0.00    +0.000 C 
ATOM      8  O   UNL     1      -9.763  -1.352 123.389  0.00  0.00    +0.000 OA
BRANCH   7   9
ATOM      9  C   UNL     1      -7.487  -1.936 123.628  0.00  0.00    +0.000 A 
ATOM     10  C   UNL     1      -6.348  -1.649 122.867  0.00  0.00    +0.000 A 
ATOM     11  C   UNL     1      -5.267  -2.537 122.856  0.00  0.00    +0.000 A 
ATOM     12  C   UNL     1      -5.296  -3.706 123.625  0.00  0.00    +0.000 A 
ATOM     13  C   UNL     1      -4.161  -4.686 123.593  0.00  0.00    +0.000 C 
ATOM     14  C   UNL     1      -6.415  -3.976 124.413  0.00  0.00    +0.000 A 
ATOM     15  C   UNL     1      -7.513  -3.118 124.387  0.00  0.00    +0.000 A 
ENDBRANCH   7   9
ENDBRANCH   6   7
BRANCH   3  16
ATOM     16  C   UNL     1      -7.784   3.544 126.037  0.00  0.00    +0.000 C 
BRANCH  16  17
ATOM     17  C   UNL     1      -8.002   4.985 125.658  0.00  0.00    +0.000 C 
ATOM     18  O   UNL     1      -9.008   5.636 125.959  0.00  0.00    +0.000 OA
BRANCH  17  19
ATOM     19  O   UNL     1      -6.952   5.594 125.103  0.00  0.00    +0.000 OA
ATOM     20  H   UNL     1      -6.546   6.132 125.802  0.00  0.00    +0.000 HD
ENDBRANCH  17  19
ENDBRANCH  16  17
ENDBRANCH   3  16
TORSDOF 5
ENDMDL
MODEL 7
REMARK VINA RESULT:      -6.7      2.770      7.674
REMARK  Name = Tolmetin
REMARK  7 active torsions:
REMARK  status: ('A' for Active; 'I' for Inactive)
REMARK    1  A    between atoms: C_1  and  N_2
REMARK    2  A    between atoms: C_3  and  C_4
REMARK    3  A    between atoms: C_4  and  C_5
REMARK    4  A    between atoms: C_5  and  O_6
REMARK    5  A    between atoms: C_10  and  C_11
REMARK    6  A    between atoms: C_11  and  C_13
REMARK    7  A    between atoms: C_16  and  C_17
REMARK                            x       y       z     vdW  Elec       q    Type
REMARK                         _______ _______ _______ _____ _____    ______ ____
ROOT
ATOM      1  C   UNL     1      -6.908  -0.620 123.254  0.00  0.00    +0.000 C 
ATOM      2  N   UNL     1      -7.872   0.336 123.787  0.00  0.00    +0.000 N 
ATOM      3  C   UNL     1      -7.994   1.731 123.736  0.00  0.00    +0.000 A 
ATOM      4  C   UNL     1      -9.231   2.019 124.328  0.00  0.00    +0.000 A 
ATOM      5  C   UNL     1      -9.822   0.830 124.790  0.00  0.00    +0.000 A 
ATOM      6  C   UNL     1      -8.932  -0.189 124.535  0.00  0.00    +0.000 A 
ENDROOT
BRANCH   6   7
ATOM      7  C   UNL     1      -9.093  -1.596 124.876  0.00  0.00    +0.000 C 
ATOM      8  O   UNL     1      -9.526  -2.413 124.069  0.00  0.00    +0.000 OA
BRANCH   7   9
ATOM      9  C   UNL     1      -8.668  -2.064 126.241  0.00  0.00    +0.000 A 
ATOM     10  C   UNL     1      -7.912  -1.208 127.050  0.00  0.00    +0.000 A 
ATOM     11  C   UNL     1      -7.518  -1.612 128.329  0.00  0.00    +0.000 A 
ATOM     12  C   UNL     1      -7.897  -2.863 128.831  0.00  0.00    +0.000 A 
ATOM     13  C   UNL     1      -7.449  -3.327 130.184  0.00  0.00    +0.000 C 
ATOM     14  C   UNL     1      -8.682  -3.705 128.041  0.00  0.00    +0.000 A 
ATOM     15  C   UNL     1      -9.033  -3.323 126.747  0.00  0.00    +0.000 A 
ENDBRANCH   7   9
ENDBRANCH   6   7
BRANCH   3  16
ATOM     16  C   UNL     1      -7.118   2.862 123.157  0.00  0.00    +0.000 C 
BRANCH  16  17
ATOM     17  C   UNL     1      -7.370   3.458 121.797  0.00  0.00    +0.000 C 
ATOM     18  O   UNL     1      -6.546   3.454 120.876  0.00  0.00    +0.000 OA
BRANCH  17  19
ATOM     19  O   UNL     1      -8.623   3.859 121.573  0.00  0.00    +0.000 OA
ATOM     20  H   UNL     1      -8.564   4.619 120.972  0.00  0.00    +0.000 HD
ENDBRANCH  17  19
ENDBRANCH  16  17
ENDBRANCH   3  16
TORSDOF 5
ENDMDL
MODEL 8
REMARK VINA RESULT:      -6.6      5.726      9.770
REMARK  Name = Tolmetin
REMARK  7 active torsions:
REMARK  status: ('A' for Active; 'I' for Inactive)
REMARK    1  A    between atoms: C_1  and  N_2
REMARK    2  A    between atoms: C_3  and  C_4
REMARK    3  A    between atoms: C_4  and  C_5
REMARK    4  A    between atoms: C_5  and  O_6
REMARK    5  A    between atoms: C_10  and  C_11
REMARK    6  A    between atoms: C_11  and  C_13
REMARK    7  A    between atoms: C_16  and  C_17
REMARK                            x       y       z     vdW  Elec       q    Type
REMARK                         _______ _______ _______ _____ _____    ______ ____
ROOT
ATOM      1  C   UNL     1      -6.298  -1.560 127.347  0.00  0.00    +0.000 C 
ATOM      2  N   UNL     1      -7.458  -2.442 127.303  0.00  0.00    +0.000 N 
ATOM      3  C   UNL     1      -8.176  -3.060 126.271  0.00  0.00    +0.000 A 
ATOM      4  C   UNL     1      -9.098  -3.900 126.910  0.00  0.00    +0.000 A 
ATOM      5  C   UNL     1      -8.990  -3.748 128.303  0.00  0.00    +0.000 A 
ATOM      6  C   UNL     1      -8.041  -2.777 128.531  0.00  0.00    +0.000 A 
ENDROOT
BRANCH   6   7
ATOM      7  C   UNL     1      -7.619  -2.253 129.823  0.00  0.00    +0.000 C 
ATOM      8  O   UNL     1      -7.903  -1.115 130.185  0.00  0.00    +0.000 OA
BRANCH   7   9
ATOM      9  C   UNL     1      -6.854  -3.153 130.756  0.00  0.00    +0.000 A 
ATOM     10  C   UNL     1      -7.019  -2.999 132.137  0.00  0.00    +0.000 A 
ATOM     11  C   UNL     1      -6.332  -3.833 133.025  0.00  0.00    +0.000 A 
ATOM     12  C   UNL     1      -5.496  -4.850 132.548  0.00  0.00    +0.000 A 
ATOM     13  C   UNL     1      -4.724  -5.727 133.487  0.00  0.00    +0.000 C 
ATOM     14  C   UNL     1      -5.360  -5.030 131.171  0.00  0.00    +0.000 A 
ATOM     15  C   UNL     1      -6.004  -4.168 130.285  0.00  0.00    +0.000 A 
ENDBRANCH   7   9
ENDBRANCH   6   7
BRANCH   3  16
ATOM     16  C   UNL     1      -8.094  -3.012 124.731  0.00  0.00    +0.000 C 
BRANCH  16  17
ATOM     17  C   UNL     1      -9.254  -2.575 123.877  0.00  0.00    +0.000 C 
ATOM     18  O   UNL     1      -9.387  -1.434 123.421  0.00  0.00    +0.000 OA
BRANCH  17  19
ATOM     19  O   UNL     1     -10.076  -3.551 123.487  0.00  0.00    +0.000 OA
ATOM     20  H   UNL     1     -10.325  -4.037 124.290  0.00  0.00    +0.000 HD
ENDBRANCH  17  19
ENDBRANCH  16  17
ENDBRANCH   3  16
TORSDOF 5
ENDMDL
MODEL 9
REMARK VINA RESULT:      -6.6      3.067      7.850
REMARK  Name = Tolmetin
REMARK  7 active torsions:
REMARK  status: ('A' for Active; 'I' for Inactive)
REMARK    1  A    between atoms: C_1  and  N_2
REMARK    2  A    between atoms: C_3  and  C_4
REMARK    3  A    between atoms: C_4  and  C_5
REMARK    4  A    between atoms: C_5  and  O_6
REMARK    5  A    between atoms: C_10  and  C_11
REMARK    6  A    between atoms: C_11  and  C_13
REMARK    7  A    between atoms: C_16  and  C_17
REMARK                            x       y       z     vdW  Elec       q    Type
REMARK                         _______ _______ _______ _____ _____    ______ ____
ROOT
ATOM      1  C   UNL     1      -8.783   0.691 125.934  0.00  0.00    +0.000 C 
ATOM      2  N   UNL     1      -8.076   0.045 124.834  0.00  0.00    +0.000 N 
ATOM      3  C   UNL     1      -7.362   0.512 123.723  0.00  0.00    +0.000 A 
ATOM      4  C   UNL     1      -6.805  -0.629 123.131  0.00  0.00    +0.000 A 
ATOM      5  C   UNL     1      -7.226  -1.776 123.826  0.00  0.00    +0.000 A 
ATOM      6  C   UNL     1      -8.084  -1.355 124.817  0.00  0.00    +0.000 A 
ENDROOT
BRANCH   6   7
ATOM      7  C   UNL     1      -8.802  -2.194 125.767  0.00  0.00    +0.000 C 
ATOM      8  O   UNL     1      -9.941  -2.596 125.547  0.00  0.00    +0.000 OA
BRANCH   7   9
ATOM      9  C   UNL     1      -8.105  -2.618 127.031  0.00  0.00    +0.000 A 
ATOM     10  C   UNL     1      -6.813  -2.143 127.287  0.00  0.00    +0.000 A 
ATOM     11  C   UNL     1      -6.149  -2.508 128.462  0.00  0.00    +0.000 A 
ATOM     12  C   UNL     1      -6.774  -3.327 129.411  0.00  0.00    +0.000 A 
ATOM     13  C   UNL     1      -6.060  -3.759 130.656  0.00  0.00    +0.000 C 
ATOM     14  C   UNL     1      -8.075  -3.771 129.175  0.00  0.00    +0.000 A 
ATOM     15  C   UNL     1      -8.720  -3.449 127.982  0.00  0.00    +0.000 A 
ENDBRANCH   7   9
ENDBRANCH   6   7
BRANCH   3  16
ATOM     16  C   UNL     1      -7.078   1.914 123.145  0.00  0.00    +0.000 C 
BRANCH  16  17
ATOM     17  C   UNL     1      -8.172   2.922 122.908  0.00  0.00    +0.000 C 
ATOM     18  O   UNL     1      -8.978   2.863 121.973  0.00  0.00    +0.000 OA
BRANCH  17  19
ATOM     19  O   UNL     1      -8.338   3.822 123.879  0.00  0.00    +0.000 OA
ATOM     20  H   UNL     1      -9.149   4.311 123.665  0.00  0.00    +0.000 HD
ENDBRANCH  17  19
ENDBRANCH  16  17
ENDBRANCH   3  16
TORSDOF 5
ENDMDL
