MODEL 1
REMARK VINA RESULT:      -8.6      0.000      0.000
REMARK  Name = Tolnaftate
REMARK  6 active torsions:
REMARK  status: ('A' for Active; 'I' for Inactive)
REMARK    1  A    between atoms: C_1  and  N_2
REMARK    2  A    between atoms: N_2  and  C_3
REMARK    3  A    between atoms: N_2  and  C_16
REMARK    4  A    between atoms: C_3  and  O_5
REMARK    5  A    between atoms: O_5  and  C_6
REMARK    6  A    between atoms: C_20  and  C_21
REMARK                            x       y       z     vdW  Elec       q    Type
REMARK                         _______ _______ _______ _____ _____    ______ ____
ROOT
ATOM      1  C   UNL     1      -8.653   1.146 123.264  0.00  0.00    +0.000 C 
ATOM      2  S   UNL     1     -10.215   0.717 122.743  0.00  0.00    +0.000 S 
ENDROOT
BRANCH   1   4
ATOM      3  C   UNL     1      -8.069   3.213 124.626  0.00  0.00    +0.000 C 
ATOM      4  N   UNL     1      -8.138   2.471 123.359  0.00  0.00    +0.000 N 
BRANCH   4   5
ATOM      5  C   UNL     1      -7.672   3.177 122.188  0.00  0.00    +0.000 A 
ATOM      6  C   UNL     1      -6.313   3.364 121.921  0.00  0.00    +0.000 A 
ATOM      7  C   UNL     1      -5.906   3.856 120.669  0.00  0.00    +0.000 A 
ATOM      8  C   UNL     1      -6.847   4.171 119.683  0.00  0.00    +0.000 A 
ATOM      9  C   UNL     1      -8.204   4.057 119.960  0.00  0.00    +0.000 A 
ATOM     10  C   UNL     1      -9.263   4.338 118.937  0.00  0.00    +0.000 C 
ATOM     11  C   UNL     1      -8.592   3.623 121.228  0.00  0.00    +0.000 A 
ENDBRANCH   4   5
ENDBRANCH   1   4
BRANCH   1  12
ATOM     12  O   UNL     1      -7.737   0.112 123.621  0.00  0.00    +0.000 OA
BRANCH  12  13
ATOM     13  C   UNL     1      -7.979  -0.922 124.590  0.00  0.00    +0.000 A 
ATOM     14  C   UNL     1      -7.713  -0.662 125.935  0.00  0.00    +0.000 A 
ATOM     15  C   UNL     1      -8.014  -1.649 126.905  0.00  0.00    +0.000 A 
ATOM     16  C   UNL     1      -7.721  -1.477 128.271  0.00  0.00    +0.000 A 
ATOM     17  C   UNL     1      -8.008  -2.489 129.196  0.00  0.00    +0.000 A 
ATOM     18  C   UNL     1      -8.614  -3.671 128.784  0.00  0.00    +0.000 A 
ATOM     19  C   UNL     1      -8.938  -3.852 127.443  0.00  0.00    +0.000 A 
ATOM     20  C   UNL     1      -8.629  -2.858 126.504  0.00  0.00    +0.000 A 
ATOM     21  C   UNL     1      -8.897  -3.086 125.155  0.00  0.00    +0.000 A 
ATOM     22  C   UNL     1      -8.492  -2.160 124.204  0.00  0.00    +0.000 A 
ENDBRANCH  12  13
ENDBRANCH   1  12
TORSDOF 4
ENDMDL
MODEL 2
REMARK VINA RESULT:      -8.5      1.807      8.130
REMARK  Name = Tolnaftate
REMARK  6 active torsions:
REMARK  status: ('A' for Active; 'I' for Inactive)
REMARK    1  A    between atoms: C_1  and  N_2
REMARK    2  A    between atoms: N_2  and  C_3
REMARK    3  A    between atoms: N_2  and  C_16
REMARK    4  A    between atoms: C_3  and  O_5
REMARK    5  A    between atoms: O_5  and  C_6
REMARK    6  A    between atoms: C_20  and  C_21
REMARK                            x       y       z     vdW  Elec       q    Type
REMARK                         _______ _______ _______ _____ _____    ______ ____
ROOT
ATOM      1  C   UNL     1      -7.789   1.169 124.702  0.00  0.00    +0.000 C 
ATOM      2  S   UNL     1      -6.374   0.502 125.371  0.00  0.00    +0.000 S 
ENDROOT
BRANCH   1   4
ATOM      3  C   UNL     1     -10.257   1.136 124.089  0.00  0.00    +0.000 C 
ATOM      4  N   UNL     1      -8.993   0.462 124.419  0.00  0.00    +0.000 N 
BRANCH   4   5
ATOM      5  C   UNL     1      -9.041  -0.981 124.466  0.00  0.00    +0.000 A 
ATOM      6  C   UNL     1      -8.872  -1.772 123.326  0.00  0.00    +0.000 A 
ATOM      7  C   UNL     1      -8.706  -3.161 123.456  0.00  0.00    +0.000 A 
ATOM      8  C   UNL     1      -8.714  -3.769 124.715  0.00  0.00    +0.000 A 
ATOM      9  C   UNL     1      -8.952  -3.005 125.851  0.00  0.00    +0.000 A 
ATOM     10  C   UNL     1      -8.933  -3.585 127.233  0.00  0.00    +0.000 C 
ATOM     11  C   UNL     1      -9.174  -1.635 125.699  0.00  0.00    +0.000 A 
ENDBRANCH   4   5
ENDBRANCH   1   4
BRANCH   1  12
ATOM     12  O   UNL     1      -7.801   2.553 124.354  0.00  0.00    +0.000 OA
BRANCH  12  13
ATOM     13  C   UNL     1      -7.173   3.129 123.196  0.00  0.00    +0.000 A 
ATOM     14  C   UNL     1      -7.922   3.280 122.027  0.00  0.00    +0.000 A 
ATOM     15  C   UNL     1      -7.334   3.910 120.904  0.00  0.00    +0.000 A 
ATOM     16  C   UNL     1      -8.009   4.046 119.676  0.00  0.00    +0.000 A 
ATOM     17  C   UNL     1      -7.383   4.649 118.579  0.00  0.00    +0.000 A 
ATOM     18  C   UNL     1      -6.090   5.152 118.692  0.00  0.00    +0.000 A 
ATOM     19  C   UNL     1      -5.413   5.053 119.904  0.00  0.00    +0.000 A 
ATOM     20  C   UNL     1      -6.019   4.425 121.000  0.00  0.00    +0.000 A 
ATOM     21  C   UNL     1      -5.300   4.274 122.184  0.00  0.00    +0.000 A 
ATOM     22  C   UNL     1      -5.846   3.553 123.237  0.00  0.00    +0.000 A 
ENDBRANCH  12  13
ENDBRANCH   1  12
TORSDOF 4
ENDMDL
MODEL 3
REMARK VINA RESULT:      -8.0      1.875      7.695
REMARK  Name = Tolnaftate
REMARK  6 active torsions:
REMARK  status: ('A' for Active; 'I' for Inactive)
REMARK    1  A    between atoms: C_1  and  N_2
REMARK    2  A    between atoms: N_2  and  C_3
REMARK    3  A    between atoms: N_2  and  C_16
REMARK    4  A    between atoms: C_3  and  O_5
REMARK    5  A    between atoms: O_5  and  C_6
REMARK    6  A    between atoms: C_20  and  C_21
REMARK                            x       y       z     vdW  Elec       q    Type
REMARK                         _______ _______ _______ _____ _____    ______ ____
ROOT
ATOM      1  C   UNL     1      -7.647   1.651 125.763  0.00  0.00    +0.000 C 
ATOM      2  S   UNL     1      -7.593   2.767 127.046  0.00  0.00    +0.000 S 
ENDROOT
BRANCH   1   4
ATOM      3  C   UNL     1      -5.443   0.389 125.887  0.00  0.00    +0.000 C 
ATOM      4  N   UNL     1      -6.896   0.444 125.673  0.00  0.00    +0.000 N 
BRANCH   4   5
ATOM      5  C   UNL     1      -7.533  -0.808 125.336  0.00  0.00    +0.000 A 
ATOM      6  C   UNL     1      -7.510  -1.333 124.040  0.00  0.00    +0.000 A 
ATOM      7  C   UNL     1      -7.945  -2.649 123.809  0.00  0.00    +0.000 A 
ATOM      8  C   UNL     1      -8.412  -3.443 124.861  0.00  0.00    +0.000 A 
ATOM      9  C   UNL     1      -8.507  -2.912 126.141  0.00  0.00    +0.000 A 
ATOM     10  C   UNL     1      -8.959  -3.719 127.320  0.00  0.00    +0.000 C 
ATOM     11  C   UNL     1      -8.126  -1.584 126.342  0.00  0.00    +0.000 A 
ENDBRANCH   4   5
ENDBRANCH   1   4
BRANCH   1  12
ATOM     12  O   UNL     1      -8.487   1.929 124.643  0.00  0.00    +0.000 OA
BRANCH  12  13
ATOM     13  C   UNL     1      -8.083   2.609 123.443  0.00  0.00    +0.000 A 
ATOM     14  C   UNL     1      -6.786   3.120 123.361  0.00  0.00    +0.000 A 
ATOM     15  C   UNL     1      -6.356   3.729 122.157  0.00  0.00    +0.000 A 
ATOM     16  C   UNL     1      -5.084   4.315 122.022  0.00  0.00    +0.000 A 
ATOM     17  C   UNL     1      -4.705   4.935 120.824  0.00  0.00    +0.000 A 
ATOM     18  C   UNL     1      -5.572   4.957 119.736  0.00  0.00    +0.000 A 
ATOM     19  C   UNL     1      -6.826   4.359 119.838  0.00  0.00    +0.000 A 
ATOM     20  C   UNL     1      -7.225   3.763 121.041  0.00  0.00    +0.000 A 
ATOM     21  C   UNL     1      -8.510   3.232 121.146  0.00  0.00    +0.000 A 
ATOM     22  C   UNL     1      -8.958   2.742 122.365  0.00  0.00    +0.000 A 
ENDBRANCH  12  13
ENDBRANCH   1  12
TORSDOF 4
ENDMDL
MODEL 4
REMARK VINA RESULT:      -8.0      2.671      6.647
REMARK  Name = Tolnaftate
REMARK  6 active torsions:
REMARK  status: ('A' for Active; 'I' for Inactive)
REMARK    1  A    between atoms: C_1  and  N_2
REMARK    2  A    between atoms: N_2  and  C_3
REMARK    3  A    between atoms: N_2  and  C_16
REMARK    4  A    between atoms: C_3  and  O_5
REMARK    5  A    between atoms: O_5  and  C_6
REMARK    6  A    between atoms: C_20  and  C_21
REMARK                            x       y       z     vdW  Elec       q    Type
REMARK                         _______ _______ _______ _____ _____    ______ ____
ROOT
ATOM      1  C   UNL     1      -7.231  -1.091 127.776  0.00  0.00    +0.000 C 
ATOM      2  S   UNL     1      -5.664  -0.912 128.413  0.00  0.00    +0.000 S 
ENDROOT
BRANCH   1   4
ATOM      3  C   UNL     1      -8.224  -3.374 128.292  0.00  0.00    +0.000 C 
ATOM      4  N   UNL     1      -7.827  -2.315 127.354  0.00  0.00    +0.000 N 
BRANCH   4   5
ATOM      5  C   UNL     1      -8.052  -2.593 125.955  0.00  0.00    +0.000 A 
ATOM      6  C   UNL     1      -9.230  -3.187 125.491  0.00  0.00    +0.000 A 
ATOM      7  C   UNL     1      -9.496  -3.233 124.113  0.00  0.00    +0.000 A 
ATOM      8  C   UNL     1      -8.590  -2.700 123.191  0.00  0.00    +0.000 A 
ATOM      9  C   UNL     1      -7.383  -2.171 123.632  0.00  0.00    +0.000 A 
ATOM     10  C   UNL     1      -6.387  -1.546 122.703  0.00  0.00    +0.000 C 
ATOM     11  C   UNL     1      -7.109  -2.186 125.001  0.00  0.00    +0.000 A 
ENDBRANCH   4   5
ENDBRANCH   1   4
BRANCH   1  12
ATOM     12  O   UNL     1      -8.044   0.070 127.605  0.00  0.00    +0.000 OA
BRANCH  12  13
ATOM     13  C   UNL     1      -8.297   0.737 126.357  0.00  0.00    +0.000 A 
ATOM     14  C   UNL     1      -7.254   1.423 125.734  0.00  0.00    +0.000 A 
ATOM     15  C   UNL     1      -7.475   2.022 124.470  0.00  0.00    +0.000 A 
ATOM     16  C   UNL     1      -6.487   2.777 123.810  0.00  0.00    +0.000 A 
ATOM     17  C   UNL     1      -6.753   3.379 122.574  0.00  0.00    +0.000 A 
ATOM     18  C   UNL     1      -7.993   3.219 121.964  0.00  0.00    +0.000 A 
ATOM     19  C   UNL     1      -8.977   2.455 122.585  0.00  0.00    +0.000 A 
ATOM     20  C   UNL     1      -8.730   1.872 123.835  0.00  0.00    +0.000 A 
ATOM     21  C   UNL     1      -9.750   1.169 124.473  0.00  0.00    +0.000 A 
ATOM     22  C   UNL     1      -9.557   0.685 125.760  0.00  0.00    +0.000 A 
ENDBRANCH  12  13
ENDBRANCH   1  12
TORSDOF 4
ENDMDL
MODEL 5
REMARK VINA RESULT:      -7.9      6.839      8.479
REMARK  Name = Tolnaftate
REMARK  6 active torsions:
REMARK  status: ('A' for Active; 'I' for Inactive)
REMARK    1  A    between atoms: C_1  and  N_2
REMARK    2  A    between atoms: N_2  and  C_3
REMARK    3  A    between atoms: N_2  and  C_16
REMARK    4  A    between atoms: C_3  and  O_5
REMARK    5  A    between atoms: O_5  and  C_6
REMARK    6  A    between atoms: C_20  and  C_21
REMARK                            x       y       z     vdW  Elec       q    Type
REMARK                         _______ _______ _______ _____ _____    ______ ____
ROOT
ATOM      1  C   UNL     1      -9.885   6.069 130.298  0.00  0.00    +0.000 C 
ATOM      2  S   UNL     1      -8.393   6.737 130.772  0.00  0.00    +0.000 S 
ENDROOT
BRANCH   1   4
ATOM      3  C   UNL     1     -11.782   6.503 131.935  0.00  0.00    +0.000 C 
ATOM      4  N   UNL     1     -11.172   6.600 130.601  0.00  0.00    +0.000 N 
BRANCH   4   5
ATOM      5  C   UNL     1     -11.968   7.252 129.588  0.00  0.00    +0.000 A 
ATOM      6  C   UNL     1     -12.581   6.545 128.549  0.00  0.00    +0.000 A 
ATOM      7  C   UNL     1     -13.520   7.185 127.724  0.00  0.00    +0.000 A 
ATOM      8  C   UNL     1     -13.847   8.530 127.921  0.00  0.00    +0.000 A 
ATOM      9  C   UNL     1     -13.194   9.265 128.903  0.00  0.00    +0.000 A 
ATOM     10  C   UNL     1     -13.525  10.697 129.195  0.00  0.00    +0.000 C 
ATOM     11  C   UNL     1     -12.222   8.628 129.676  0.00  0.00    +0.000 A 
ENDBRANCH   4   5
ENDBRANCH   1   4
BRANCH   1  12
ATOM     12  O   UNL     1      -9.891   4.851 129.554  0.00  0.00    +0.000 OA
BRANCH  12  13
ATOM     13  C   UNL     1      -9.633   3.542 130.090  0.00  0.00    +0.000 A 
ATOM     14  C   UNL     1      -8.812   2.669 129.375  0.00  0.00    +0.000 A 
ATOM     15  C   UNL     1      -8.496   1.405 129.928  0.00  0.00    +0.000 A 
ATOM     16  C   UNL     1      -7.721   0.453 129.239  0.00  0.00    +0.000 A 
ATOM     17  C   UNL     1      -7.454  -0.799 129.808  0.00  0.00    +0.000 A 
ATOM     18  C   UNL     1      -7.928  -1.112 131.078  0.00  0.00    +0.000 A 
ATOM     19  C   UNL     1      -8.674  -0.177 131.789  0.00  0.00    +0.000 A 
ATOM     20  C   UNL     1      -8.971   1.068 131.217  0.00  0.00    +0.000 A 
ATOM     21  C   UNL     1      -9.777   1.965 131.916  0.00  0.00    +0.000 A 
ATOM     22  C   UNL     1     -10.174   3.151 131.315  0.00  0.00    +0.000 A 
ENDBRANCH  12  13
ENDBRANCH   1  12
TORSDOF 4
ENDMDL
MODEL 6
REMARK VINA RESULT:      -7.9      8.718     10.261
REMARK  Name = Tolnaftate
REMARK  6 active torsions:
REMARK  status: ('A' for Active; 'I' for Inactive)
REMARK    1  A    between atoms: C_1  and  N_2
REMARK    2  A    between atoms: N_2  and  C_3
REMARK    3  A    between atoms: N_2  and  C_16
REMARK    4  A    between atoms: C_3  and  O_5
REMARK    5  A    between atoms: O_5  and  C_6
REMARK    6  A    between atoms: C_20  and  C_21
REMARK                            x       y       z     vdW  Elec       q    Type
REMARK                         _______ _______ _______ _____ _____    ______ ____
ROOT
ATOM      1  C   UNL     1      -6.871   5.068 131.362  0.00  0.00    +0.000 C 
ATOM      2  S   UNL     1      -7.621   3.692 130.701  0.00  0.00    +0.000 S 
ENDROOT
BRANCH   1   4
ATOM      3  C   UNL     1      -4.659   5.023 132.617  0.00  0.00    +0.000 C 
ATOM      4  N   UNL     1      -5.468   5.307 131.423  0.00  0.00    +0.000 N 
BRANCH   4   5
ATOM      5  C   UNL     1      -4.758   5.876 130.301  0.00  0.00    +0.000 A 
ATOM      6  C   UNL     1      -4.565   7.254 130.160  0.00  0.00    +0.000 A 
ATOM      7  C   UNL     1      -3.684   7.741 129.179  0.00  0.00    +0.000 A 
ATOM      8  C   UNL     1      -3.001   6.864 128.331  0.00  0.00    +0.000 A 
ATOM      9  C   UNL     1      -3.238   5.497 128.412  0.00  0.00    +0.000 A 
ATOM     10  C   UNL     1      -2.510   4.499 127.563  0.00  0.00    +0.000 C 
ATOM     11  C   UNL     1      -4.159   5.035 129.353  0.00  0.00    +0.000 A 
ENDBRANCH   4   5
ENDBRANCH   1   4
BRANCH   1  12
ATOM     12  O   UNL     1      -7.686   6.085 131.945  0.00  0.00    +0.000 OA
BRANCH  12  13
ATOM     13  C   UNL     1      -8.990   6.478 131.485  0.00  0.00    +0.000 A 
ATOM     14  C   UNL     1      -9.100   7.155 130.269  0.00  0.00    +0.000 A 
ATOM     15  C   UNL     1     -10.385   7.484 129.773  0.00  0.00    +0.000 A 
ATOM     16  C   UNL     1     -10.570   8.215 128.585  0.00  0.00    +0.000 A 
ATOM     17  C   UNL     1     -11.857   8.546 128.142  0.00  0.00    +0.000 A 
ATOM     18  C   UNL     1     -12.977   8.133 128.855  0.00  0.00    +0.000 A 
ATOM     19  C   UNL     1     -12.820   7.385 130.019  0.00  0.00    +0.000 A 
ATOM     20  C   UNL     1     -11.536   7.074 130.487  0.00  0.00    +0.000 A 
ATOM     21  C   UNL     1     -11.397   6.385 131.691  0.00  0.00    +0.000 A 
ATOM     22  C   UNL     1     -10.132   6.171 132.223  0.00  0.00    +0.000 A 
ENDBRANCH  12  13
ENDBRANCH   1  12
TORSDOF 4
ENDMDL
MODEL 7
REMARK VINA RESULT:      -7.7      9.099     11.130
REMARK  Name = Tolnaftate
REMARK  6 active torsions:
REMARK  status: ('A' for Active; 'I' for Inactive)
REMARK    1  A    between atoms: C_1  and  N_2
REMARK    2  A    between atoms: N_2  and  C_3
REMARK    3  A    between atoms: N_2  and  C_16
REMARK    4  A    between atoms: C_3  and  O_5
REMARK    5  A    between atoms: O_5  and  C_6
REMARK    6  A    between atoms: C_20  and  C_21
REMARK                            x       y       z     vdW  Elec       q    Type
REMARK                         _______ _______ _______ _____ _____    ______ ____
ROOT
ATOM      1  C   UNL     1      -8.027   5.458 132.334  0.00  0.00    +0.000 C 
ATOM      2  S   UNL     1      -8.488   3.944 131.709  0.00  0.00    +0.000 S 
ENDROOT
BRANCH   1   4
ATOM      3  C   UNL     1      -6.535   5.550 134.391  0.00  0.00    +0.000 C 
ATOM      4  N   UNL     1      -6.782   5.761 132.958  0.00  0.00    +0.000 N 
BRANCH   4   5
ATOM      5  C   UNL     1      -5.687   6.325 132.205  0.00  0.00    +0.000 A 
ATOM      6  C   UNL     1      -5.863   6.885 130.936  0.00  0.00    +0.000 A 
ATOM      7  C   UNL     1      -4.820   7.615 130.341  0.00  0.00    +0.000 A 
ATOM      8  C   UNL     1      -3.598   7.784 131.000  0.00  0.00    +0.000 A 
ATOM      9  C   UNL     1      -3.384   7.173 132.230  0.00  0.00    +0.000 A 
ATOM     10  C   UNL     1      -2.115   7.347 133.008  0.00  0.00    +0.000 C 
ATOM     11  C   UNL     1      -4.410   6.403 132.779  0.00  0.00    +0.000 A 
ENDBRANCH   4   5
ENDBRANCH   1   4
BRANCH   1  12
ATOM     12  O   UNL     1      -8.955   6.541 132.273  0.00  0.00    +0.000 OA
BRANCH  12  13
ATOM     13  C   UNL     1     -10.022   6.675 131.319  0.00  0.00    +0.000 A 
ATOM     14  C   UNL     1      -9.710   6.997 129.997  0.00  0.00    +0.000 A 
ATOM     15  C   UNL     1     -10.747   7.061 129.035  0.00  0.00    +0.000 A 
ATOM     16  C   UNL     1     -10.513   7.433 127.698  0.00  0.00    +0.000 A 
ATOM     17  C   UNL     1     -11.570   7.514 126.783  0.00  0.00    +0.000 A 
ATOM     18  C   UNL     1     -12.868   7.199 127.174  0.00  0.00    +0.000 A 
ATOM     19  C   UNL     1     -13.119   6.801 128.484  0.00  0.00    +0.000 A 
ATOM     20  C   UNL     1     -12.073   6.746 129.415  0.00  0.00    +0.000 A 
ATOM     21  C   UNL     1     -12.355   6.413 130.739  0.00  0.00    +0.000 A 
ATOM     22  C   UNL     1     -11.349   6.467 131.694  0.00  0.00    +0.000 A 
ENDBRANCH  12  13
ENDBRANCH   1  12
TORSDOF 4
ENDMDL
MODEL 8
REMARK VINA RESULT:      -7.7      1.888      2.820
REMARK  Name = Tolnaftate
REMARK  6 active torsions:
REMARK  status: ('A' for Active; 'I' for Inactive)
REMARK    1  A    between atoms: C_1  and  N_2
REMARK    2  A    between atoms: N_2  and  C_3
REMARK    3  A    between atoms: N_2  and  C_16
REMARK    4  A    between atoms: C_3  and  O_5
REMARK    5  A    between atoms: O_5  and  C_6
REMARK    6  A    between atoms: C_20  and  C_21
REMARK                            x       y       z     vdW  Elec       q    Type
REMARK                         _______ _______ _______ _____ _____    ______ ____
ROOT
ATOM      1  C   UNL     1      -8.367  -0.725 123.625  0.00  0.00    +0.000 C 
ATOM      2  S   UNL     1      -7.003  -1.513 122.983  0.00  0.00    +0.000 S 
ENDROOT
BRANCH   1   4
ATOM      3  C   UNL     1     -10.038   0.990 122.768  0.00  0.00    +0.000 C 
ATOM      4  N   UNL     1      -8.749   0.625 123.372  0.00  0.00    +0.000 N 
BRANCH   4   5
ATOM      5  C   UNL     1      -7.861   1.722 123.679  0.00  0.00    +0.000 A 
ATOM      6  C   UNL     1      -7.423   1.987 124.980  0.00  0.00    +0.000 A 
ATOM      7  C   UNL     1      -6.394   2.919 125.197  0.00  0.00    +0.000 A 
ATOM      8  C   UNL     1      -5.804   3.595 124.125  0.00  0.00    +0.000 A 
ATOM      9  C   UNL     1      -6.277   3.395 122.834  0.00  0.00    +0.000 A 
ATOM     10  C   UNL     1      -5.663   4.055 121.637  0.00  0.00    +0.000 C 
ATOM     11  C   UNL     1      -7.339   2.509 122.643  0.00  0.00    +0.000 A 
ENDBRANCH   4   5
ENDBRANCH   1   4
BRANCH   1  12
ATOM     12  O   UNL     1      -9.215  -1.437 124.525  0.00  0.00    +0.000 OA
BRANCH  12  13
ATOM     13  C   UNL     1      -8.822  -1.964 125.803  0.00  0.00    +0.000 A 
ATOM     14  C   UNL     1      -8.167  -1.126 126.707  0.00  0.00    +0.000 A 
ATOM     15  C   UNL     1      -7.839  -1.615 127.994  0.00  0.00    +0.000 A 
ATOM     16  C   UNL     1      -7.130  -0.846 128.935  0.00  0.00    +0.000 A 
ATOM     17  C   UNL     1      -6.798  -1.375 130.189  0.00  0.00    +0.000 A 
ATOM     18  C   UNL     1      -7.190  -2.664 130.536  0.00  0.00    +0.000 A 
ATOM     19  C   UNL     1      -7.917  -3.434 129.632  0.00  0.00    +0.000 A 
ATOM     20  C   UNL     1      -8.228  -2.924 128.364  0.00  0.00    +0.000 A 
ATOM     21  C   UNL     1      -8.895  -3.735 127.448  0.00  0.00    +0.000 A 
ATOM     22  C   UNL     1      -9.107  -3.284 126.152  0.00  0.00    +0.000 A 
ENDBRANCH  12  13
ENDBRANCH   1  12
TORSDOF 4
ENDMDL
MODEL 9
REMARK VINA RESULT:      -7.7      3.025      5.179
REMARK  Name = Tolnaftate
REMARK  6 active torsions:
REMARK  status: ('A' for Active; 'I' for Inactive)
REMARK    1  A    between atoms: C_1  and  N_2
REMARK    2  A    between atoms: N_2  and  C_3
REMARK    3  A    between atoms: N_2  and  C_16
REMARK    4  A    between atoms: C_3  and  O_5
REMARK    5  A    between atoms: O_5  and  C_6
REMARK    6  A    between atoms: C_20  and  C_21
REMARK                            x       y       z     vdW  Elec       q    Type
REMARK                         _______ _______ _______ _____ _____    ______ ____
ROOT
ATOM      1  C   UNL     1      -6.306   1.052 125.842  0.00  0.00    +0.000 C 
ATOM      2  S   UNL     1      -5.057   2.165 126.151  0.00  0.00    +0.000 S 
ENDROOT
BRANCH   1   4
ATOM      3  C   UNL     1      -7.041   1.400 123.433  0.00  0.00    +0.000 C 
ATOM      4  N   UNL     1      -6.670   0.538 124.563  0.00  0.00    +0.000 N 
BRANCH   4   5
ATOM      5  C   UNL     1      -6.719  -0.884 124.316  0.00  0.00    +0.000 A 
ATOM      6  C   UNL     1      -5.612  -1.715 124.515  0.00  0.00    +0.000 A 
ATOM      7  C   UNL     1      -5.768  -3.111 124.475  0.00  0.00    +0.000 A 
ATOM      8  C   UNL     1      -7.019  -3.685 124.231  0.00  0.00    +0.000 A 
ATOM      9  C   UNL     1      -8.114  -2.871 123.961  0.00  0.00    +0.000 A 
ATOM     10  C   UNL     1      -9.490  -3.419 123.731  0.00  0.00    +0.000 C 
ATOM     11  C   UNL     1      -7.928  -1.488 123.946  0.00  0.00    +0.000 A 
ENDBRANCH   4   5
ENDBRANCH   1   4
BRANCH   1  12
ATOM     12  O   UNL     1      -7.102   0.588 126.932  0.00  0.00    +0.000 OA
BRANCH  12  13
ATOM     13  C   UNL     1      -6.904  -0.643 127.647  0.00  0.00    +0.000 A 
ATOM     14  C   UNL     1      -5.640  -0.927 128.166  0.00  0.00    +0.000 A 
ATOM     15  C   UNL     1      -5.452  -2.103 128.932  0.00  0.00    +0.000 A 
ATOM     16  C   UNL     1      -4.194  -2.480 129.438  0.00  0.00    +0.000 A 
ATOM     17  C   UNL     1      -4.044  -3.667 130.167  0.00  0.00    +0.000 A 
ATOM     18  C   UNL     1      -5.142  -4.479 130.428  0.00  0.00    +0.000 A 
ATOM     19  C   UNL     1      -6.401  -4.112 129.961  0.00  0.00    +0.000 A 
ATOM     20  C   UNL     1      -6.558  -2.943 129.205  0.00  0.00    +0.000 A 
ATOM     21  C   UNL     1      -7.813  -2.628 128.687  0.00  0.00    +0.000 A 
ATOM     22  C   UNL     1      -7.958  -1.535 127.843  0.00  0.00    +0.000 A 
ENDBRANCH  12  13
ENDBRANCH   1  12
TORSDOF 4
ENDMDL
