MODEL 1
REMARK VINA RESULT:      -7.7      0.000      0.000
REMARK  Name = Tolterodine
REMARK  13 active torsions:
REMARK  status: ('A' for Active; 'I' for Inactive)
REMARK    1  A    between atoms: C_1  and  C_2
REMARK    2  A    between atoms: C_2  and  C_3
REMARK    3  A    between atoms: C_2  and  N_4
REMARK    4  A    between atoms: N_4  and  C_5
REMARK    5  A    between atoms: N_4  and  C_22
REMARK    6  A    between atoms: C_5  and  C_6
REMARK    7  A    between atoms: C_6  and  C_7
REMARK    8  A    between atoms: C_7  and  C_8
REMARK    9  A    between atoms: C_7  and  C_14
REMARK   10  A    between atoms: C_15  and  O_16
REMARK   11  A    between atoms: C_19  and  C_20
REMARK   12  A    between atoms: C_22  and  C_23
REMARK   13  A    between atoms: C_22  and  C_24
REMARK                            x       y       z     vdW  Elec       q    Type
REMARK                         _______ _______ _______ _____ _____    ______ ____
ROOT
ATOM      1  C   UNL     1      -7.629   2.060 123.570  0.00  0.00    +0.000 C 
ENDROOT
BRANCH   1   2
ATOM      2  C   UNL     1      -7.055   2.816 124.768  0.00  0.00    +0.000 A 
ATOM      3  C   UNL     1      -7.690   3.863 125.410  0.00  0.00    +0.000 A 
ATOM      4  C   UNL     1      -6.996   4.639 126.352  0.00  0.00    +0.000 A 
ATOM      5  C   UNL     1      -5.687   4.306 126.741  0.00  0.00    +0.000 A 
ATOM      6  C   UNL     1      -5.054   3.232 126.170  0.00  0.00    +0.000 A 
ATOM      7  C   UNL     1      -3.651   2.779 126.447  0.00  0.00    +0.000 C 
ATOM      8  C   UNL     1      -5.742   2.538 125.180  0.00  0.00    +0.000 A 
BRANCH   3   9
ATOM      9  O   UNL     1      -8.987   4.228 125.177  0.00  0.00    +0.000 OA
ATOM     10  H   UNL     1      -9.021   5.160 124.915  0.00  0.00    +0.000 HD
ENDBRANCH   3   9
ENDBRANCH   1   2
BRANCH   1  11
ATOM     11  C   UNL     1      -7.516   2.841 122.289  0.00  0.00    +0.000 A 
ATOM     12  C   UNL     1      -8.668   3.235 121.594  0.00  0.00    +0.000 A 
ATOM     13  C   UNL     1      -8.579   3.921 120.395  0.00  0.00    +0.000 A 
ATOM     14  C   UNL     1      -7.328   4.206 119.866  0.00  0.00    +0.000 A 
ATOM     15  C   UNL     1      -6.170   3.811 120.539  0.00  0.00    +0.000 A 
ATOM     16  C   UNL     1      -6.259   3.142 121.756  0.00  0.00    +0.000 A 
ENDBRANCH   1  11
BRANCH   1  17
ATOM     17  C   UNL     1      -7.131   0.613 123.434  0.00  0.00    +0.000 C 
BRANCH  17  18
ATOM     18  C   UNL     1      -7.480  -0.472 124.454  0.00  0.00    +0.000 C 
BRANCH  18  19
ATOM     19  N   UNL     1      -7.484  -1.902 124.071  0.00  0.00    +0.000 NA
BRANCH  19  21
ATOM     20  C   UNL     1      -9.560  -3.339 123.459  0.00  0.00    +0.000 C 
ATOM     21  C   UNL     1      -8.765  -2.551 124.536  0.00  0.00    +0.000 C 
ATOM     22  C   UNL     1      -8.535  -3.649 125.570  0.00  0.00    +0.000 C 
ENDBRANCH  19  21
BRANCH  19  23
ATOM     23  C   UNL     1      -6.212  -2.485 124.687  0.00  0.00    +0.000 C 
ATOM     24  C   UNL     1      -5.138  -2.881 123.675  0.00  0.00    +0.000 C 
ATOM     25  C   UNL     1      -5.464  -1.515 125.652  0.00  0.00    +0.000 C 
ENDBRANCH  19  23
ENDBRANCH  18  19
ENDBRANCH  17  18
ENDBRANCH   1  17
TORSDOF 8
ENDMDL
MODEL 2
REMARK VINA RESULT:      -7.6      6.788      9.833
REMARK  Name = Tolterodine
REMARK  13 active torsions:
REMARK  status: ('A' for Active; 'I' for Inactive)
REMARK    1  A    between atoms: C_1  and  C_2
REMARK    2  A    between atoms: C_2  and  C_3
REMARK    3  A    between atoms: C_2  and  N_4
REMARK    4  A    between atoms: N_4  and  C_5
REMARK    5  A    between atoms: N_4  and  C_22
REMARK    6  A    between atoms: C_5  and  C_6
REMARK    7  A    between atoms: C_6  and  C_7
REMARK    8  A    between atoms: C_7  and  C_8
REMARK    9  A    between atoms: C_7  and  C_14
REMARK   10  A    between atoms: C_15  and  O_16
REMARK   11  A    between atoms: C_19  and  C_20
REMARK   12  A    between atoms: C_22  and  C_23
REMARK   13  A    between atoms: C_22  and  C_24
REMARK                            x       y       z     vdW  Elec       q    Type
REMARK                         _______ _______ _______ _____ _____    ______ ____
ROOT
ATOM      1  C   UNL     1      -9.481   6.476 131.404  0.00  0.00    +0.000 C 
ENDROOT
BRANCH   1   2
ATOM      2  C   UNL     1     -10.658   6.883 130.518  0.00  0.00    +0.000 A 
ATOM      3  C   UNL     1     -11.988   6.771 130.881  0.00  0.00    +0.000 A 
ATOM      4  C   UNL     1     -12.999   6.959 129.926  0.00  0.00    +0.000 A 
ATOM      5  C   UNL     1     -12.692   7.369 128.617  0.00  0.00    +0.000 A 
ATOM      6  C   UNL     1     -11.385   7.553 128.246  0.00  0.00    +0.000 A 
ATOM      7  C   UNL     1     -10.897   7.945 126.882  0.00  0.00    +0.000 C 
ATOM      8  C   UNL     1     -10.406   7.276 129.194  0.00  0.00    +0.000 A 
BRANCH   3   9
ATOM      9  O   UNL     1     -12.411   6.461 132.144  0.00  0.00    +0.000 OA
ATOM     10  H   UNL     1     -13.365   6.293 132.135  0.00  0.00    +0.000 HD
ENDBRANCH   3   9
ENDBRANCH   1   2
BRANCH   1  11
ATOM     11  C   UNL     1      -9.514   5.016 131.768  0.00  0.00    +0.000 A 
ATOM     12  C   UNL     1      -9.239   4.605 133.080  0.00  0.00    +0.000 A 
ATOM     13  C   UNL     1      -9.228   3.264 133.421  0.00  0.00    +0.000 A 
ATOM     14  C   UNL     1      -9.477   2.312 132.442  0.00  0.00    +0.000 A 
ATOM     15  C   UNL     1      -9.742   2.702 131.128  0.00  0.00    +0.000 A 
ATOM     16  C   UNL     1      -9.775   4.052 130.790  0.00  0.00    +0.000 A 
ENDBRANCH   1  11
BRANCH   1  17
ATOM     17  C   UNL     1      -8.108   6.933 130.888  0.00  0.00    +0.000 C 
BRANCH  17  18
ATOM     18  C   UNL     1      -6.833   6.128 131.135  0.00  0.00    +0.000 C 
BRANCH  18  19
ATOM     19  N   UNL     1      -5.850   5.908 130.049  0.00  0.00    +0.000 NA
BRANCH  19  21
ATOM     20  C   UNL     1      -6.083   3.468 130.911  0.00  0.00    +0.000 C 
ATOM     21  C   UNL     1      -5.751   4.434 129.741  0.00  0.00    +0.000 C 
ATOM     22  C   UNL     1      -6.772   3.973 128.704  0.00  0.00    +0.000 C 
ENDBRANCH  19  21
BRANCH  19  23
ATOM     23  C   UNL     1      -4.553   6.546 130.546  0.00  0.00    +0.000 C 
ATOM     24  C   UNL     1      -4.331   7.984 130.080  0.00  0.00    +0.000 C 
ATOM     25  C   UNL     1      -4.442   6.645 132.099  0.00  0.00    +0.000 C 
ENDBRANCH  19  23
ENDBRANCH  18  19
ENDBRANCH  17  18
ENDBRANCH   1  17
TORSDOF 8
ENDMDL
MODEL 3
REMARK VINA RESULT:      -7.6      3.006      7.375
REMARK  Name = Tolterodine
REMARK  13 active torsions:
REMARK  status: ('A' for Active; 'I' for Inactive)
REMARK    1  A    between atoms: C_1  and  C_2
REMARK    2  A    between atoms: C_2  and  C_3
REMARK    3  A    between atoms: C_2  and  N_4
REMARK    4  A    between atoms: N_4  and  C_5
REMARK    5  A    between atoms: N_4  and  C_22
REMARK    6  A    between atoms: C_5  and  C_6
REMARK    7  A    between atoms: C_6  and  C_7
REMARK    8  A    between atoms: C_7  and  C_8
REMARK    9  A    between atoms: C_7  and  C_14
REMARK   10  A    between atoms: C_15  and  O_16
REMARK   11  A    between atoms: C_19  and  C_20
REMARK   12  A    between atoms: C_22  and  C_23
REMARK   13  A    between atoms: C_22  and  C_24
REMARK                            x       y       z     vdW  Elec       q    Type
REMARK                         _______ _______ _______ _____ _____    ______ ____
ROOT
ATOM      1  C   UNL     1      -6.634  -0.861 126.350  0.00  0.00    +0.000 C 
ENDROOT
BRANCH   1   2
ATOM      2  C   UNL     1      -6.250  -1.342 124.951  0.00  0.00    +0.000 A 
ATOM      3  C   UNL     1      -6.759  -0.819 123.776  0.00  0.00    +0.000 A 
ATOM      4  C   UNL     1      -6.521  -1.466 122.553  0.00  0.00    +0.000 A 
ATOM      5  C   UNL     1      -5.678  -2.588 122.480  0.00  0.00    +0.000 A 
ATOM      6  C   UNL     1      -5.105  -3.091 123.620  0.00  0.00    +0.000 A 
ATOM      7  C   UNL     1      -4.221  -4.300 123.710  0.00  0.00    +0.000 C 
ATOM      8  C   UNL     1      -5.430  -2.475 124.824  0.00  0.00    +0.000 A 
BRANCH   3   9
ATOM      9  O   UNL     1      -7.521   0.315 123.712  0.00  0.00    +0.000 OA
ATOM     10  H   UNL     1      -7.652   0.669 124.604  0.00  0.00    +0.000 HD
ENDBRANCH   3   9
ENDBRANCH   1   2
BRANCH   1  11
ATOM     11  C   UNL     1      -7.408  -1.896 127.121  0.00  0.00    +0.000 A 
ATOM     12  C   UNL     1      -7.065  -2.198 128.446  0.00  0.00    +0.000 A 
ATOM     13  C   UNL     1      -7.743  -3.174 129.155  0.00  0.00    +0.000 A 
ATOM     14  C   UNL     1      -8.769  -3.874 128.536  0.00  0.00    +0.000 A 
ATOM     15  C   UNL     1      -9.118  -3.594 127.214  0.00  0.00    +0.000 A 
ATOM     16  C   UNL     1      -8.450  -2.597 126.508  0.00  0.00    +0.000 A 
ENDBRANCH   1  11
BRANCH   1  17
ATOM     17  C   UNL     1      -5.473  -0.259 127.156  0.00  0.00    +0.000 C 
BRANCH  17  18
ATOM     18  C   UNL     1      -5.298   1.248 127.337  0.00  0.00    +0.000 C 
BRANCH  18  19
ATOM     19  N   UNL     1      -4.549   2.051 126.343  0.00  0.00    +0.000 NA
BRANCH  19  21
ATOM     20  C   UNL     1      -3.604   2.931 128.598  0.00  0.00    +0.000 C 
ATOM     21  C   UNL     1      -3.688   3.067 127.053  0.00  0.00    +0.000 C 
ATOM     22  C   UNL     1      -2.211   2.956 126.685  0.00  0.00    +0.000 C 
ENDBRANCH  19  21
BRANCH  19  23
ATOM     23  C   UNL     1      -5.615   2.646 125.423  0.00  0.00    +0.000 C 
ATOM     24  C   UNL     1      -6.959   2.918 126.097  0.00  0.00    +0.000 C 
ATOM     25  C   UNL     1      -5.230   4.026 124.807  0.00  0.00    +0.000 C 
ENDBRANCH  19  23
ENDBRANCH  18  19
ENDBRANCH  17  18
ENDBRANCH   1  17
TORSDOF 8
ENDMDL
MODEL 4
REMARK VINA RESULT:      -7.3      2.815      7.248
REMARK  Name = Tolterodine
REMARK  13 active torsions:
REMARK  status: ('A' for Active; 'I' for Inactive)
REMARK    1  A    between atoms: C_1  and  C_2
REMARK    2  A    between atoms: C_2  and  C_3
REMARK    3  A    between atoms: C_2  and  N_4
REMARK    4  A    between atoms: N_4  and  C_5
REMARK    5  A    between atoms: N_4  and  C_22
REMARK    6  A    between atoms: C_5  and  C_6
REMARK    7  A    between atoms: C_6  and  C_7
REMARK    8  A    between atoms: C_7  and  C_8
REMARK    9  A    between atoms: C_7  and  C_14
REMARK   10  A    between atoms: C_15  and  O_16
REMARK   11  A    between atoms: C_19  and  C_20
REMARK   12  A    between atoms: C_22  and  C_23
REMARK   13  A    between atoms: C_22  and  C_24
REMARK                            x       y       z     vdW  Elec       q    Type
REMARK                         _______ _______ _______ _____ _____    ______ ____
ROOT
ATOM      1  C   UNL     1      -6.869  -0.685 126.253  0.00  0.00    +0.000 C 
ENDROOT
BRANCH   1   2
ATOM      2  C   UNL     1      -6.424  -1.222 124.894  0.00  0.00    +0.000 A 
ATOM      3  C   UNL     1      -6.899  -0.766 123.678  0.00  0.00    +0.000 A 
ATOM      4  C   UNL     1      -6.602  -1.465 122.496  0.00  0.00    +0.000 A 
ATOM      5  C   UNL     1      -5.732  -2.569 122.508  0.00  0.00    +0.000 A 
ATOM      6  C   UNL     1      -5.191  -3.003 123.690  0.00  0.00    +0.000 A 
ATOM      7  C   UNL     1      -4.286  -4.187 123.870  0.00  0.00    +0.000 C 
ATOM      8  C   UNL     1      -5.575  -2.340 124.851  0.00  0.00    +0.000 A 
BRANCH   3   9
ATOM      9  O   UNL     1      -7.683   0.345 123.532  0.00  0.00    +0.000 OA
ATOM     10  H   UNL     1      -8.436   0.293 124.139  0.00  0.00    +0.000 HD
ENDBRANCH   3   9
ENDBRANCH   1   2
BRANCH   1  11
ATOM     11  C   UNL     1      -7.529  -1.741 127.100  0.00  0.00    +0.000 A 
ATOM     12  C   UNL     1      -7.137  -1.930 128.433  0.00  0.00    +0.000 A 
ATOM     13  C   UNL     1      -7.708  -2.921 129.211  0.00  0.00    +0.000 A 
ATOM     14  C   UNL     1      -8.672  -3.750 128.655  0.00  0.00    +0.000 A 
ATOM     15  C   UNL     1      -9.067  -3.583 127.327  0.00  0.00    +0.000 A 
ATOM     16  C   UNL     1      -8.509  -2.572 126.551  0.00  0.00    +0.000 A 
ENDBRANCH   1  11
BRANCH   1  17
ATOM     17  C   UNL     1      -5.789   0.101 127.012  0.00  0.00    +0.000 C 
BRANCH  17  18
ATOM     18  C   UNL     1      -4.896   1.134 126.327  0.00  0.00    +0.000 C 
BRANCH  18  19
ATOM     19  N   UNL     1      -4.824   2.527 126.825  0.00  0.00    +0.000 NA
BRANCH  19  21
ATOM     20  C   UNL     1      -5.937   3.060 124.538  0.00  0.00    +0.000 C 
ATOM     21  C   UNL     1      -4.964   3.489 125.671  0.00  0.00    +0.000 C 
ATOM     22  C   UNL     1      -5.586   4.822 126.080  0.00  0.00    +0.000 C 
ENDBRANCH  19  21
BRANCH  19  23
ATOM     23  C   UNL     1      -3.495   2.616 127.575  0.00  0.00    +0.000 C 
ATOM     24  C   UNL     1      -2.326   3.137 126.740  0.00  0.00    +0.000 C 
ATOM     25  C   UNL     1      -3.517   3.573 128.806  0.00  0.00    +0.000 C 
ENDBRANCH  19  23
ENDBRANCH  18  19
ENDBRANCH  17  18
ENDBRANCH   1  17
TORSDOF 8
ENDMDL
MODEL 5
REMARK VINA RESULT:      -7.3      2.921      7.274
REMARK  Name = Tolterodine
REMARK  13 active torsions:
REMARK  status: ('A' for Active; 'I' for Inactive)
REMARK    1  A    between atoms: C_1  and  C_2
REMARK    2  A    between atoms: C_2  and  C_3
REMARK    3  A    between atoms: C_2  and  N_4
REMARK    4  A    between atoms: N_4  and  C_5
REMARK    5  A    between atoms: N_4  and  C_22
REMARK    6  A    between atoms: C_5  and  C_6
REMARK    7  A    between atoms: C_6  and  C_7
REMARK    8  A    between atoms: C_7  and  C_8
REMARK    9  A    between atoms: C_7  and  C_14
REMARK   10  A    between atoms: C_15  and  O_16
REMARK   11  A    between atoms: C_19  and  C_20
REMARK   12  A    between atoms: C_22  and  C_23
REMARK   13  A    between atoms: C_22  and  C_24
REMARK                            x       y       z     vdW  Elec       q    Type
REMARK                         _______ _______ _______ _____ _____    ______ ____
ROOT
ATOM      1  C   UNL     1      -6.643  -0.994 126.434  0.00  0.00    +0.000 C 
ENDROOT
BRANCH   1   2
ATOM      2  C   UNL     1      -6.249  -1.415 125.019  0.00  0.00    +0.000 A 
ATOM      3  C   UNL     1      -6.729  -0.825 123.864  0.00  0.00    +0.000 A 
ATOM      4  C   UNL     1      -6.486  -1.418 122.614  0.00  0.00    +0.000 A 
ATOM      5  C   UNL     1      -5.665  -2.553 122.499  0.00  0.00    +0.000 A 
ATOM      6  C   UNL     1      -5.120  -3.122 123.621  0.00  0.00    +0.000 A 
ATOM      7  C   UNL     1      -4.264  -4.354 123.665  0.00  0.00    +0.000 C 
ATOM      8  C   UNL     1      -5.451  -2.558 124.849  0.00  0.00    +0.000 A 
BRANCH   3   9
ATOM      9  O   UNL     1      -7.465   0.327 123.844  0.00  0.00    +0.000 OA
ATOM     10  H   UNL     1      -7.443   0.711 122.954  0.00  0.00    +0.000 HD
ENDBRANCH   3   9
ENDBRANCH   1   2
BRANCH   1  11
ATOM     11  C   UNL     1      -7.428  -2.058 127.153  0.00  0.00    +0.000 A 
ATOM     12  C   UNL     1      -8.493  -2.709 126.514  0.00  0.00    +0.000 A 
ATOM     13  C   UNL     1      -9.247  -3.662 127.174  0.00  0.00    +0.000 A 
ATOM     14  C   UNL     1      -8.953  -3.964 128.497  0.00  0.00    +0.000 A 
ATOM     15  C   UNL     1      -7.903  -3.319 129.152  0.00  0.00    +0.000 A 
ATOM     16  C   UNL     1      -7.130  -2.377 128.480  0.00  0.00    +0.000 A 
ENDBRANCH   1  11
BRANCH   1  17
ATOM     17  C   UNL     1      -5.488  -0.432 127.276  0.00  0.00    +0.000 C 
BRANCH  17  18
ATOM     18  C   UNL     1      -5.403   1.043 127.668  0.00  0.00    +0.000 C 
BRANCH  18  19
ATOM     19  N   UNL     1      -6.301   2.046 127.052  0.00  0.00    +0.000 NA
BRANCH  19  21
ATOM     20  C   UNL     1      -3.939   2.967 126.483  0.00  0.00    +0.000 C 
ATOM     21  C   UNL     1      -5.481   3.130 126.394  0.00  0.00    +0.000 C 
ATOM     22  C   UNL     1      -5.667   3.181 124.881  0.00  0.00    +0.000 C 
ENDBRANCH  19  21
BRANCH  19  23
ATOM     23  C   UNL     1      -7.204   2.528 128.187  0.00  0.00    +0.000 C 
ATOM     24  C   UNL     1      -7.784   3.927 127.990  0.00  0.00    +0.000 C 
ATOM     25  C   UNL     1      -8.465   1.641 128.422  0.00  0.00    +0.000 C 
ENDBRANCH  19  23
ENDBRANCH  18  19
ENDBRANCH  17  18
ENDBRANCH   1  17
TORSDOF 8
ENDMDL
MODEL 6
REMARK VINA RESULT:      -7.3      6.930      9.697
REMARK  Name = Tolterodine
REMARK  13 active torsions:
REMARK  status: ('A' for Active; 'I' for Inactive)
REMARK    1  A    between atoms: C_1  and  C_2
REMARK    2  A    between atoms: C_2  and  C_3
REMARK    3  A    between atoms: C_2  and  N_4
REMARK    4  A    between atoms: N_4  and  C_5
REMARK    5  A    between atoms: N_4  and  C_22
REMARK    6  A    between atoms: C_5  and  C_6
REMARK    7  A    between atoms: C_6  and  C_7
REMARK    8  A    between atoms: C_7  and  C_8
REMARK    9  A    between atoms: C_7  and  C_14
REMARK   10  A    between atoms: C_15  and  O_16
REMARK   11  A    between atoms: C_19  and  C_20
REMARK   12  A    between atoms: C_22  and  C_23
REMARK   13  A    between atoms: C_22  and  C_24
REMARK                            x       y       z     vdW  Elec       q    Type
REMARK                         _______ _______ _______ _____ _____    ______ ____
ROOT
ATOM      1  C   UNL     1      -8.965   6.111 130.635  0.00  0.00    +0.000 C 
ENDROOT
BRANCH   1   2
ATOM      2  C   UNL     1      -9.143   4.965 131.630  0.00  0.00    +0.000 A 
ATOM      3  C   UNL     1      -9.150   5.116 133.005  0.00  0.00    +0.000 A 
ATOM      4  C   UNL     1      -9.096   3.987 133.839  0.00  0.00    +0.000 A 
ATOM      5  C   UNL     1      -9.144   2.689 133.304  0.00  0.00    +0.000 A 
ATOM      6  C   UNL     1      -9.206   2.508 131.946  0.00  0.00    +0.000 A 
ATOM      7  C   UNL     1      -9.219   1.192 131.225  0.00  0.00    +0.000 C 
ATOM      8  C   UNL     1      -9.172   3.647 131.148  0.00  0.00    +0.000 A 
BRANCH   3   9
ATOM      9  O   UNL     1      -9.188   6.325 133.641  0.00  0.00    +0.000 OA
ATOM     10  H   UNL     1      -9.752   6.262 134.426  0.00  0.00    +0.000 HD
ENDBRANCH   3   9
ENDBRANCH   1   2
BRANCH   1  11
ATOM     11  C   UNL     1     -10.257   6.829 130.348  0.00  0.00    +0.000 A 
ATOM     12  C   UNL     1     -10.333   7.764 129.306  0.00  0.00    +0.000 A 
ATOM     13  C   UNL     1     -11.503   8.459 129.055  0.00  0.00    +0.000 A 
ATOM     14  C   UNL     1     -12.612   8.238 129.860  0.00  0.00    +0.000 A 
ATOM     15  C   UNL     1     -12.551   7.318 130.909  0.00  0.00    +0.000 A 
ATOM     16  C   UNL     1     -11.381   6.602 131.147  0.00  0.00    +0.000 A 
ENDBRANCH   1  11
BRANCH   1  17
ATOM     17  C   UNL     1      -7.810   7.068 130.966  0.00  0.00    +0.000 C 
BRANCH  17  18
ATOM     18  C   UNL     1      -6.377   6.580 131.174  0.00  0.00    +0.000 C 
BRANCH  18  19
ATOM     19  N   UNL     1      -5.486   6.323 130.020  0.00  0.00    +0.000 NA
BRANCH  19  21
ATOM     20  C   UNL     1      -5.613   3.946 131.062  0.00  0.00    +0.000 C 
ATOM     21  C   UNL     1      -5.324   4.835 129.822  0.00  0.00    +0.000 C 
ATOM     22  C   UNL     1      -6.325   4.256 128.826  0.00  0.00    +0.000 C 
ENDBRANCH  19  21
BRANCH  19  23
ATOM     23  C   UNL     1      -4.191   7.070 130.339  0.00  0.00    +0.000 C 
ATOM     24  C   UNL     1      -4.156   8.519 129.855  0.00  0.00    +0.000 C 
ATOM     25  C   UNL     1      -3.877   7.187 131.863  0.00  0.00    +0.000 C 
ENDBRANCH  19  23
ENDBRANCH  18  19
ENDBRANCH  17  18
ENDBRANCH   1  17
TORSDOF 8
ENDMDL
MODEL 7
REMARK VINA RESULT:      -7.1      1.895      4.585
REMARK  Name = Tolterodine
REMARK  13 active torsions:
REMARK  status: ('A' for Active; 'I' for Inactive)
REMARK    1  A    between atoms: C_1  and  C_2
REMARK    2  A    between atoms: C_2  and  C_3
REMARK    3  A    between atoms: C_2  and  N_4
REMARK    4  A    between atoms: N_4  and  C_5
REMARK    5  A    between atoms: N_4  and  C_22
REMARK    6  A    between atoms: C_5  and  C_6
REMARK    7  A    between atoms: C_6  and  C_7
REMARK    8  A    between atoms: C_7  and  C_8
REMARK    9  A    between atoms: C_7  and  C_14
REMARK   10  A    between atoms: C_15  and  O_16
REMARK   11  A    between atoms: C_19  and  C_20
REMARK   12  A    between atoms: C_22  and  C_23
REMARK   13  A    between atoms: C_22  and  C_24
REMARK                            x       y       z     vdW  Elec       q    Type
REMARK                         _______ _______ _______ _____ _____    ______ ____
ROOT
ATOM      1  C   UNL     1      -7.495   1.949 123.576  0.00  0.00    +0.000 C 
ENDROOT
BRANCH   1   2
ATOM      2  C   UNL     1      -7.771   0.467 123.326  0.00  0.00    +0.000 A 
ATOM      3  C   UNL     1      -9.033  -0.094 123.264  0.00  0.00    +0.000 A 
ATOM      4  C   UNL     1      -9.185  -1.490 123.253  0.00  0.00    +0.000 A 
ATOM      5  C   UNL     1      -8.067  -2.340 123.195  0.00  0.00    +0.000 A 
ATOM      6  C   UNL     1      -6.803  -1.809 123.188  0.00  0.00    +0.000 A 
ATOM      7  C   UNL     1      -5.516  -2.582 123.173  0.00  0.00    +0.000 C 
ATOM      8  C   UNL     1      -6.689  -0.427 123.285  0.00  0.00    +0.000 A 
BRANCH   3   9
ATOM      9  O   UNL     1     -10.191   0.631 123.228  0.00  0.00    +0.000 OA
ATOM     10  H   UNL     1     -10.355   0.938 122.324  0.00  0.00    +0.000 HD
ENDBRANCH   3   9
ENDBRANCH   1   2
BRANCH   1  11
ATOM     11  C   UNL     1      -7.475   2.753 122.303  0.00  0.00    +0.000 A 
ATOM     12  C   UNL     1      -8.674   3.177 121.712  0.00  0.00    +0.000 A 
ATOM     13  C   UNL     1      -8.673   3.884 120.523  0.00  0.00    +0.000 A 
ATOM     14  C   UNL     1      -7.465   4.161 119.898  0.00  0.00    +0.000 A 
ATOM     15  C   UNL     1      -6.262   3.737 120.466  0.00  0.00    +0.000 A 
ATOM     16  C   UNL     1      -6.262   3.047 121.674  0.00  0.00    +0.000 A 
ENDBRANCH   1  11
BRANCH   1  17
ATOM     17  C   UNL     1      -8.366   2.584 124.670  0.00  0.00    +0.000 C 
BRANCH  17  18
ATOM     18  C   UNL     1      -8.090   2.376 126.159  0.00  0.00    +0.000 C 
BRANCH  18  19
ATOM     19  N   UNL     1      -6.744   1.986 126.635  0.00  0.00    +0.000 NA
BRANCH  19  21
ATOM     20  C   UNL     1      -8.067  -0.225 126.970  0.00  0.00    +0.000 C 
ATOM     21  C   UNL     1      -6.808   0.626 127.288  0.00  0.00    +0.000 C 
ATOM     22  C   UNL     1      -5.708  -0.317 126.807  0.00  0.00    +0.000 C 
ENDBRANCH  19  21
BRANCH  19  23
ATOM     23  C   UNL     1      -6.301   3.119 127.560  0.00  0.00    +0.000 C 
ATOM     24  C   UNL     1      -5.711   4.333 126.844  0.00  0.00    +0.000 C 
ATOM     25  C   UNL     1      -7.449   3.727 128.423  0.00  0.00    +0.000 C 
ENDBRANCH  19  23
ENDBRANCH  18  19
ENDBRANCH  17  18
ENDBRANCH   1  17
TORSDOF 8
ENDMDL
MODEL 8
REMARK VINA RESULT:      -7.1      3.110      7.868
REMARK  Name = Tolterodine
REMARK  13 active torsions:
REMARK  status: ('A' for Active; 'I' for Inactive)
REMARK    1  A    between atoms: C_1  and  C_2
REMARK    2  A    between atoms: C_2  and  C_3
REMARK    3  A    between atoms: C_2  and  N_4
REMARK    4  A    between atoms: N_4  and  C_5
REMARK    5  A    between atoms: N_4  and  C_22
REMARK    6  A    between atoms: C_5  and  C_6
REMARK    7  A    between atoms: C_6  and  C_7
REMARK    8  A    between atoms: C_7  and  C_8
REMARK    9  A    between atoms: C_7  and  C_14
REMARK   10  A    between atoms: C_15  and  O_16
REMARK   11  A    between atoms: C_19  and  C_20
REMARK   12  A    between atoms: C_22  and  C_23
REMARK   13  A    between atoms: C_22  and  C_24
REMARK                            x       y       z     vdW  Elec       q    Type
REMARK                         _______ _______ _______ _____ _____    ______ ____
ROOT
ATOM      1  C   UNL     1      -6.388  -1.623 127.755  0.00  0.00    +0.000 C 
ENDROOT
BRANCH   1   2
ATOM      2  C   UNL     1      -6.714  -2.269 126.409  0.00  0.00    +0.000 A 
ATOM      3  C   UNL     1      -7.946  -2.800 126.073  0.00  0.00    +0.000 A 
ATOM      4  C   UNL     1      -8.090  -3.568 124.906  0.00  0.00    +0.000 A 
ATOM      5  C   UNL     1      -7.022  -3.721 124.005  0.00  0.00    +0.000 A 
ATOM      6  C   UNL     1      -5.806  -3.150 124.278  0.00  0.00    +0.000 A 
ATOM      7  C   UNL     1      -4.566  -3.260 123.441  0.00  0.00    +0.000 C 
ATOM      8  C   UNL     1      -5.677  -2.468 125.483  0.00  0.00    +0.000 A 
BRANCH   3   9
ATOM      9  O   UNL     1      -9.076  -2.645 126.827  0.00  0.00    +0.000 OA
ATOM     10  H   UNL     1      -9.738  -2.149 126.322  0.00  0.00    +0.000 HD
ENDBRANCH   3   9
ENDBRANCH   1   2
BRANCH   1  11
ATOM     11  C   UNL     1      -5.826  -2.608 128.744  0.00  0.00    +0.000 A 
ATOM     12  C   UNL     1      -6.681  -3.369 129.554  0.00  0.00    +0.000 A 
ATOM     13  C   UNL     1      -6.178  -4.251 130.494  0.00  0.00    +0.000 A 
ATOM     14  C   UNL     1      -4.803  -4.369 130.648  0.00  0.00    +0.000 A 
ATOM     15  C   UNL     1      -3.936  -3.611 129.858  0.00  0.00    +0.000 A 
ATOM     16  C   UNL     1      -4.443  -2.741 128.896  0.00  0.00    +0.000 A 
ENDBRANCH   1  11
BRANCH   1  17
ATOM     17  C   UNL     1      -5.559  -0.334 127.658  0.00  0.00    +0.000 C 
BRANCH  17  18
ATOM     18  C   UNL     1      -6.130   0.965 127.088  0.00  0.00    +0.000 C 
BRANCH  18  19
ATOM     19  N   UNL     1      -5.767   1.422 125.728  0.00  0.00    +0.000 NA
BRANCH  19  21
ATOM     20  C   UNL     1      -5.842   3.851 126.650  0.00  0.00    +0.000 C 
ATOM     21  C   UNL     1      -5.103   2.777 125.806  0.00  0.00    +0.000 C 
ATOM     22  C   UNL     1      -3.757   2.739 126.522  0.00  0.00    +0.000 C 
ENDBRANCH  19  21
BRANCH  19  23
ATOM     23  C   UNL     1      -7.072   1.394 124.933  0.00  0.00    +0.000 C 
ATOM     24  C   UNL     1      -7.088   0.404 123.770  0.00  0.00    +0.000 C 
ATOM     25  C   UNL     1      -8.324   0.992 125.772  0.00  0.00    +0.000 C 
ENDBRANCH  19  23
ENDBRANCH  18  19
ENDBRANCH  17  18
ENDBRANCH   1  17
TORSDOF 8
ENDMDL
MODEL 9
REMARK VINA RESULT:      -7.0      3.197      6.912
REMARK  Name = Tolterodine
REMARK  13 active torsions:
REMARK  status: ('A' for Active; 'I' for Inactive)
REMARK    1  A    between atoms: C_1  and  C_2
REMARK    2  A    between atoms: C_2  and  C_3
REMARK    3  A    between atoms: C_2  and  N_4
REMARK    4  A    between atoms: N_4  and  C_5
REMARK    5  A    between atoms: N_4  and  C_22
REMARK    6  A    between atoms: C_5  and  C_6
REMARK    7  A    between atoms: C_6  and  C_7
REMARK    8  A    between atoms: C_7  and  C_8
REMARK    9  A    between atoms: C_7  and  C_14
REMARK   10  A    between atoms: C_15  and  O_16
REMARK   11  A    between atoms: C_19  and  C_20
REMARK   12  A    between atoms: C_22  and  C_23
REMARK   13  A    between atoms: C_22  and  C_24
REMARK                            x       y       z     vdW  Elec       q    Type
REMARK                         _______ _______ _______ _____ _____    ______ ____
ROOT
ATOM      1  C   UNL     1      -5.405  -0.725 126.598  0.00  0.00    +0.000 C 
ENDROOT
BRANCH   1   2
ATOM      2  C   UNL     1      -5.923  -1.659 127.691  0.00  0.00    +0.000 A 
ATOM      3  C   UNL     1      -5.196  -2.044 128.803  0.00  0.00    +0.000 A 
ATOM      4  C   UNL     1      -5.667  -3.073 129.634  0.00  0.00    +0.000 A 
ATOM      5  C   UNL     1      -6.928  -3.655 129.420  0.00  0.00    +0.000 A 
ATOM      6  C   UNL     1      -7.702  -3.248 128.365  0.00  0.00    +0.000 A 
ATOM      7  C   UNL     1      -9.044  -3.800 127.982  0.00  0.00    +0.000 C 
ATOM      8  C   UNL     1      -7.167  -2.286 127.514  0.00  0.00    +0.000 A 
BRANCH   3   9
ATOM      9  O   UNL     1      -3.997  -1.491 129.160  0.00  0.00    +0.000 OA
ATOM     10  H   UNL     1      -3.551  -2.067 129.799  0.00  0.00    +0.000 HD
ENDBRANCH   3   9
ENDBRANCH   1   2
BRANCH   1  11
ATOM     11  C   UNL     1      -5.771  -1.198 125.217  0.00  0.00    +0.000 A 
ATOM     12  C   UNL     1      -5.158  -2.334 124.670  0.00  0.00    +0.000 A 
ATOM     13  C   UNL     1      -5.456  -2.759 123.387  0.00  0.00    +0.000 A 
ATOM     14  C   UNL     1      -6.365  -2.036 122.626  0.00  0.00    +0.000 A 
ATOM     15  C   UNL     1      -6.977  -0.896 123.151  0.00  0.00    +0.000 A 
ATOM     16  C   UNL     1      -6.694  -0.483 124.449  0.00  0.00    +0.000 A 
ENDBRANCH   1  11
BRANCH   1  17
ATOM     17  C   UNL     1      -5.725   0.760 126.826  0.00  0.00    +0.000 C 
BRANCH  17  18
ATOM     18  C   UNL     1      -4.794   1.878 126.357  0.00  0.00    +0.000 C 
BRANCH  18  19
ATOM     19  N   UNL     1      -5.129   3.299 126.603  0.00  0.00    +0.000 NA
BRANCH  19  21
ATOM     20  C   UNL     1      -6.133   5.277 125.249  0.00  0.00    +0.000 C 
ATOM     21  C   UNL     1      -6.154   3.764 125.597  0.00  0.00    +0.000 C 
ATOM     22  C   UNL     1      -5.944   3.158 124.212  0.00  0.00    +0.000 C 
ENDBRANCH  19  21
BRANCH  19  23
ATOM     23  C   UNL     1      -3.794   4.042 126.545  0.00  0.00    +0.000 C 
ATOM     24  C   UNL     1      -3.504   4.927 127.756  0.00  0.00    +0.000 C 
ATOM     25  C   UNL     1      -2.546   3.111 126.468  0.00  0.00    +0.000 C 
ENDBRANCH  19  23
ENDBRANCH  18  19
ENDBRANCH  17  18
ENDBRANCH   1  17
TORSDOF 8
ENDMDL
