MODEL 1
REMARK VINA RESULT:     -10.4      0.000      0.000
REMARK  Name = Tolvaptan
REMARK  6 active torsions:
REMARK  status: ('A' for Active; 'I' for Inactive)
REMARK    1  A    between atoms: C_1  and  C_2
REMARK    2  A    between atoms: C_7  and  C_8
REMARK    3  A    between atoms: N_10  and  C_11
REMARK    4  A    between atoms: C_13  and  C_14
REMARK    5  A    between atoms: C_15  and  C_18
REMARK    6  A    between atoms: C_24  and  O_25
REMARK                            x       y       z     vdW  Elec       q    Type
REMARK                         _______ _______ _______ _____ _____    ______ ____
ROOT
ATOM      1  C   UNL     1      -7.942   0.672 124.100  0.00  0.00    +0.000 A 
ATOM      2  C   UNL     1      -6.906   0.528 124.998  0.00  0.00    +0.000 A 
ATOM      3  C   UNL     1      -6.863  -0.352 126.380  0.00  0.00    +0.000 A 
ATOM      4  C   UNL     1      -5.608  -0.202 127.079  0.00  0.00    +0.000 C 
ATOM      5  C   UNL     1      -7.674  -1.299 127.127  0.00  0.00    +0.000 A 
ATOM      6  C   UNL     1      -8.973  -0.834 126.061  0.00  0.00    +0.000 A 
ATOM      7  C   UNL     1      -9.075   0.080 124.609  0.00  0.00    +0.000 A 
ENDROOT
BRANCH   5   8
ATOM      8  C   UNL     1      -7.096  -2.373 128.781  0.00  0.00    +0.000 C 
ATOM      9  O   UNL     1      -8.147  -1.575 129.145  0.00  0.00    +0.000 OA
ATOM     10  N   UNL     1      -6.471  -3.724 130.080  0.00  0.00    +0.000 N 
ATOM     11  C   UNL     1      -6.661  -2.358 130.404  0.00  0.00    +0.000 C 
ATOM     12  C   UNL     1      -5.207  -2.410 130.225  0.00  0.00    +0.000 C 
ATOM     13  C   UNL     1      -5.295  -2.566 131.729  0.00  0.00    +0.000 C 
ATOM     14  C   UNL     1      -4.031  -3.361 131.853  0.00  0.00    +0.000 C 
ATOM     15  C   UNL     1      -4.941  -4.153 132.668  0.00  0.00    +0.000 A 
ATOM     16  C   UNL     1      -5.262  -4.751 131.496  0.00  0.00    +0.000 A 
ATOM     17  C   UNL     1      -4.524  -5.694 132.952  0.00  0.00    +0.000 A 
ATOM     18  C   UNL     1      -4.863  -5.970 134.655  0.00  0.00    +0.000 A 
ATOM     19  C   UNL     1      -6.021  -5.398 134.729  0.00  0.00    +0.000 A 
ATOM     20 CL   UNL     1      -7.425  -5.927 135.506  0.00  0.00    +0.000 Cl
ATOM     21  C   UNL     1      -6.015  -4.374 133.768  0.00  0.00    +0.000 A 
BRANCH  14  22
ATOM     22  O   UNL     1      -2.954  -2.614 132.236  0.00  0.00    +0.000 OA
ATOM     23  H   UNL     1      -3.276  -1.729 132.089  0.00  0.00    +0.000 HD
ENDBRANCH  14  22
ENDBRANCH   5   8
BRANCH   1  26
ATOM     24  C   UNL     1      -8.067   2.748 122.673  0.00  0.00    +0.000 C 
ATOM     25  O   UNL     1      -8.415   3.471 123.606  0.00  0.00    +0.000 OA
ATOM     26  N   UNL     1      -7.796   1.375 122.867  0.00  0.00    +0.000 N 
ATOM     27  H   UNL     1      -7.436   0.798 122.138  0.00  0.00    +0.000 HD
BRANCH  24  34
ATOM     28  C   UNL     1      -5.397   3.709 121.601  0.00  0.00    +0.000 C 
ATOM     29  C   UNL     1      -6.649   3.854 120.816  0.00  0.00    +0.000 A 
ATOM     30  C   UNL     1      -6.563   4.457 119.551  0.00  0.00    +0.000 A 
ATOM     31  C   UNL     1      -7.693   4.648 118.769  0.00  0.00    +0.000 A 
ATOM     32  C   UNL     1      -8.930   4.240 119.243  0.00  0.00    +0.000 A 
ATOM     33  C   UNL     1      -9.025   3.624 120.500  0.00  0.00    +0.000 A 
ATOM     34  C   UNL     1      -7.885   3.419 121.314  0.00  0.00    +0.000 A 
ENDBRANCH  24  34
ENDBRANCH   1  26
TORSDOF 4
ENDMDL
MODEL 2
REMARK VINA RESULT:      -9.6      6.893      7.567
REMARK  Name = Tolvaptan
REMARK  6 active torsions:
REMARK  status: ('A' for Active; 'I' for Inactive)
REMARK    1  A    between atoms: C_1  and  C_2
REMARK    2  A    between atoms: C_7  and  C_8
REMARK    3  A    between atoms: N_10  and  C_11
REMARK    4  A    between atoms: C_13  and  C_14
REMARK    5  A    between atoms: C_15  and  C_18
REMARK    6  A    between atoms: C_24  and  O_25
REMARK                            x       y       z     vdW  Elec       q    Type
REMARK                         _______ _______ _______ _____ _____    ______ ____
ROOT
ATOM      1  C   UNL     1      -9.968   5.829 131.191  0.00  0.00    +0.000 A 
ATOM      2  C   UNL     1      -9.371   4.807 130.487  0.00  0.00    +0.000 A 
ATOM      3  C   UNL     1      -8.663   3.444 131.060  0.00  0.00    +0.000 A 
ATOM      4  C   UNL     1      -8.099   2.640 130.002  0.00  0.00    +0.000 C 
ATOM      5  C   UNL     1      -8.455   2.735 132.312  0.00  0.00    +0.000 A 
ATOM      6  C   UNL     1      -9.005   4.198 133.086  0.00  0.00    +0.000 A 
ATOM      7  C   UNL     1      -9.750   5.647 132.538  0.00  0.00    +0.000 A 
ENDROOT
BRANCH   5   8
ATOM      8  C   UNL     1      -7.664   0.852 132.539  0.00  0.00    +0.000 C 
ATOM      9  O   UNL     1      -7.437   1.545 133.698  0.00  0.00    +0.000 OA
ATOM     10  N   UNL     1      -7.253  -1.080 132.526  0.00  0.00    +0.000 N 
ATOM     11  C   UNL     1      -6.341  -0.091 132.972  0.00  0.00    +0.000 C 
ATOM     12  C   UNL     1      -5.836  -0.360 131.622  0.00  0.00    +0.000 C 
ATOM     13  C   UNL     1      -4.929  -1.265 132.431  0.00  0.00    +0.000 C 
ATOM     14  C   UNL     1      -4.722  -2.260 131.332  0.00  0.00    +0.000 C 
ATOM     15  C   UNL     1      -5.022  -3.140 132.453  0.00  0.00    +0.000 A 
ATOM     16  C   UNL     1      -6.313  -2.939 132.095  0.00  0.00    +0.000 A 
ATOM     17  C   UNL     1      -5.511  -4.644 132.099  0.00  0.00    +0.000 A 
ATOM     18  C   UNL     1      -4.650  -5.697 133.212  0.00  0.00    +0.000 A 
ATOM     19  C   UNL     1      -4.799  -5.012 134.299  0.00  0.00    +0.000 A 
ATOM     20 CL   UNL     1      -5.201  -5.546 135.851  0.00  0.00    +0.000 Cl
ATOM     21  C   UNL     1      -4.877  -3.666 133.907  0.00  0.00    +0.000 A 
BRANCH  14  22
ATOM     22  O   UNL     1      -3.547  -2.090 130.658  0.00  0.00    +0.000 OA
ATOM     23  H   UNL     1      -2.979  -1.759 131.348  0.00  0.00    +0.000 HD
ENDBRANCH  14  22
ENDBRANCH   5   8
BRANCH   1  26
ATOM     24  C   UNL     1     -12.011   7.249 130.771  0.00  0.00    +0.000 C 
ATOM     25  O   UNL     1     -12.698   6.657 131.603  0.00  0.00    +0.000 OA
ATOM     26  N   UNL     1     -10.659   6.901 130.551  0.00  0.00    +0.000 N 
ATOM     27  H   UNL     1     -10.070   7.424 129.939  0.00  0.00    +0.000 HD
BRANCH  24  34
ATOM     28  C   UNL     1     -12.875   7.147 127.865  0.00  0.00    +0.000 C 
ATOM     29  C   UNL     1     -13.078   8.361 128.696  0.00  0.00    +0.000 A 
ATOM     30  C   UNL     1     -13.685   9.474 128.093  0.00  0.00    +0.000 A 
ATOM     31  C   UNL     1     -13.887  10.651 128.798  0.00  0.00    +0.000 A 
ATOM     32  C   UNL     1     -13.480  10.735 130.121  0.00  0.00    +0.000 A 
ATOM     33  C   UNL     1     -12.885   9.624 130.737  0.00  0.00    +0.000 A 
ATOM     34  C   UNL     1     -12.670   8.412 130.037  0.00  0.00    +0.000 A 
ENDBRANCH  24  34
ENDBRANCH   1  26
TORSDOF 4
ENDMDL
MODEL 3
REMARK VINA RESULT:      -9.4      8.011      9.798
REMARK  Name = Tolvaptan
REMARK  6 active torsions:
REMARK  status: ('A' for Active; 'I' for Inactive)
REMARK    1  A    between atoms: C_1  and  C_2
REMARK    2  A    between atoms: C_7  and  C_8
REMARK    3  A    between atoms: N_10  and  C_11
REMARK    4  A    between atoms: C_13  and  C_14
REMARK    5  A    between atoms: C_15  and  C_18
REMARK    6  A    between atoms: C_24  and  O_25
REMARK                            x       y       z     vdW  Elec       q    Type
REMARK                         _______ _______ _______ _____ _____    ______ ____
ROOT
ATOM      1  C   UNL     1      -5.895   2.057 126.179  0.00  0.00    +0.000 A 
ATOM      2  C   UNL     1      -5.618   2.131 127.527  0.00  0.00    +0.000 A 
ATOM      3  C   UNL     1      -4.765   3.273 128.337  0.00  0.00    +0.000 A 
ATOM      4  C   UNL     1      -4.649   2.966 129.744  0.00  0.00    +0.000 C 
ATOM      5  C   UNL     1      -4.112   4.551 128.109  0.00  0.00    +0.000 A 
ATOM      6  C   UNL     1      -4.314   4.207 126.411  0.00  0.00    +0.000 A 
ATOM      7  C   UNL     1      -5.190   3.034 125.512  0.00  0.00    +0.000 A 
ENDROOT
BRANCH   5   8
ATOM      8  C   UNL     1      -3.319   5.796 129.538  0.00  0.00    +0.000 C 
ATOM      9  O   UNL     1      -2.314   5.456 128.672  0.00  0.00    +0.000 OA
ATOM     10  N   UNL     1      -2.942   7.193 130.884  0.00  0.00    +0.000 N 
ATOM     11  C   UNL     1      -2.106   6.069 130.669  0.00  0.00    +0.000 C 
ATOM     12  C   UNL     1      -2.846   5.652 131.864  0.00  0.00    +0.000 C 
ATOM     13  C   UNL     1      -1.590   6.204 132.508  0.00  0.00    +0.000 C 
ATOM     14  C   UNL     1      -2.263   6.604 133.785  0.00  0.00    +0.000 C 
ATOM     15  C   UNL     1      -1.498   7.805 133.484  0.00  0.00    +0.000 A 
ATOM     16  C   UNL     1      -2.580   8.152 132.747  0.00  0.00    +0.000 A 
ATOM     17  C   UNL     1      -1.969   9.179 134.204  0.00  0.00    +0.000 A 
ATOM     18  C   UNL     1      -0.491   9.965 134.739  0.00  0.00    +0.000 A 
ATOM     19  C   UNL     1       0.229   9.792 133.678  0.00  0.00    +0.000 A 
ATOM     20 CL   UNL     1       1.249  10.883 132.889  0.00  0.00    +0.000 Cl
ATOM     21  C   UNL     1      -0.223   8.600 133.089  0.00  0.00    +0.000 A 
BRANCH  14  22
ATOM     22  O   UNL     1      -2.093   5.701 134.795  0.00  0.00    +0.000 OA
ATOM     23  H   UNL     1      -2.097   4.878 134.315  0.00  0.00    +0.000 HD
ENDBRANCH  14  22
ENDBRANCH   5   8
BRANCH   1  26
ATOM     24  C   UNL     1      -6.387  -0.258 125.306  0.00  0.00    +0.000 C 
ATOM     25  O   UNL     1      -5.254  -0.678 125.538  0.00  0.00    +0.000 OA
ATOM     26  N   UNL     1      -6.761   1.067 125.627  0.00  0.00    +0.000 N 
ATOM     27  H   UNL     1      -7.697   1.394 125.519  0.00  0.00    +0.000 HD
BRANCH  24  34
ATOM     28  C   UNL     1      -8.127  -2.106 126.966  0.00  0.00    +0.000 C 
ATOM     29  C   UNL     1      -8.192  -2.099 125.483  0.00  0.00    +0.000 A 
ATOM     30  C   UNL     1      -9.089  -2.984 124.863  0.00  0.00    +0.000 A 
ATOM     31  C   UNL     1      -9.190  -3.051 123.481  0.00  0.00    +0.000 A 
ATOM     32  C   UNL     1      -8.390  -2.234 122.696  0.00  0.00    +0.000 A 
ATOM     33  C   UNL     1      -7.500  -1.338 123.306  0.00  0.00    +0.000 A 
ATOM     34  C   UNL     1      -7.382  -1.252 124.714  0.00  0.00    +0.000 A 
ENDBRANCH  24  34
ENDBRANCH   1  26
TORSDOF 4
ENDMDL
MODEL 4
REMARK VINA RESULT:      -9.2      8.032     11.708
REMARK  Name = Tolvaptan
REMARK  6 active torsions:
REMARK  status: ('A' for Active; 'I' for Inactive)
REMARK    1  A    between atoms: C_1  and  C_2
REMARK    2  A    between atoms: C_7  and  C_8
REMARK    3  A    between atoms: N_10  and  C_11
REMARK    4  A    between atoms: C_13  and  C_14
REMARK    5  A    between atoms: C_15  and  C_18
REMARK    6  A    between atoms: C_24  and  O_25
REMARK                            x       y       z     vdW  Elec       q    Type
REMARK                         _______ _______ _______ _____ _____    ______ ____
ROOT
ATOM      1  C   UNL     1      -2.486   6.029 130.725  0.00  0.00    +0.000 A 
ATOM      2  C   UNL     1      -2.942   6.128 129.428  0.00  0.00    +0.000 A 
ATOM      3  C   UNL     1      -3.858   5.065 128.579  0.00  0.00    +0.000 A 
ATOM      4  C   UNL     1      -4.081   5.506 127.222  0.00  0.00    +0.000 C 
ATOM      5  C   UNL     1      -4.580   3.817 128.763  0.00  0.00    +0.000 A 
ATOM      6  C   UNL     1      -3.738   3.701 130.286  0.00  0.00    +0.000 A 
ATOM      7  C   UNL     1      -2.771   4.775 131.216  0.00  0.00    +0.000 A 
ENDROOT
BRANCH   5   8
ATOM      8  C   UNL     1      -5.838   2.917 127.411  0.00  0.00    +0.000 C 
ATOM      9  O   UNL     1      -4.737   2.117 127.556  0.00  0.00    +0.000 OA
ATOM     10  N   UNL     1      -7.361   2.208 126.371  0.00  0.00    +0.000 N 
ATOM     11  C   UNL     1      -6.024   2.203 125.901  0.00  0.00    +0.000 C 
ATOM     12  C   UNL     1      -6.573   3.364 125.194  0.00  0.00    +0.000 C 
ATOM     13  C   UNL     1      -6.735   2.302 124.126  0.00  0.00    +0.000 C 
ATOM     14  C   UNL     1      -7.922   2.946 123.479  0.00  0.00    +0.000 C 
ATOM     15  C   UNL     1      -8.373   1.566 123.581  0.00  0.00    +0.000 A 
ATOM     16  C   UNL     1      -8.787   1.930 124.818  0.00  0.00    +0.000 A 
ATOM     17  C   UNL     1      -9.971   1.305 123.492  0.00  0.00    +0.000 A 
ATOM     18  C   UNL     1     -10.165  -0.096 122.448  0.00  0.00    +0.000 A 
ATOM     19  C   UNL     1      -9.229  -0.846 122.935  0.00  0.00    +0.000 A 
ATOM     20 CL   UNL     1      -9.261  -2.497 123.294  0.00  0.00    +0.000 Cl
ATOM     21  C   UNL     1      -8.241   0.026 123.421  0.00  0.00    +0.000 A 
BRANCH  14  22
ATOM     22  O   UNL     1      -7.608   3.673 122.366  0.00  0.00    +0.000 OA
ATOM     23  H   UNL     1      -7.305   4.489 122.754  0.00  0.00    +0.000 HD
ENDBRANCH  14  22
ENDBRANCH   5   8
BRANCH   1  26
ATOM     24  C   UNL     1      -2.287   7.822 132.488  0.00  0.00    +0.000 C 
ATOM     25  O   UNL     1      -3.362   7.541 133.016  0.00  0.00    +0.000 OA
ATOM     26  N   UNL     1      -1.799   7.094 131.379  0.00  0.00    +0.000 N 
ATOM     27  H   UNL     1      -0.894   7.259 130.994  0.00  0.00    +0.000 HD
BRANCH  24  34
ATOM     28  C   UNL     1       0.210   7.392 134.155  0.00  0.00    +0.000 C 
ATOM     29  C   UNL     1      -0.323   8.752 133.887  0.00  0.00    +0.000 A 
ATOM     30  C   UNL     1       0.366   9.845 134.435  0.00  0.00    +0.000 A 
ATOM     31  C   UNL     1      -0.083  11.144 134.247  0.00  0.00    +0.000 A 
ATOM     32  C   UNL     1      -1.235  11.369 133.510  0.00  0.00    +0.000 A 
ATOM     33  C   UNL     1      -1.924  10.285 132.947  0.00  0.00    +0.000 A 
ATOM     34  C   UNL     1      -1.482   8.951 133.124  0.00  0.00    +0.000 A 
ENDBRANCH  24  34
ENDBRANCH   1  26
TORSDOF 4
ENDMDL
MODEL 5
REMARK VINA RESULT:      -9.2      6.085      7.091
REMARK  Name = Tolvaptan
REMARK  6 active torsions:
REMARK  status: ('A' for Active; 'I' for Inactive)
REMARK    1  A    between atoms: C_1  and  C_2
REMARK    2  A    between atoms: C_7  and  C_8
REMARK    3  A    between atoms: N_10  and  C_11
REMARK    4  A    between atoms: C_13  and  C_14
REMARK    5  A    between atoms: C_15  and  C_18
REMARK    6  A    between atoms: C_24  and  O_25
REMARK                            x       y       z     vdW  Elec       q    Type
REMARK                         _______ _______ _______ _____ _____    ______ ____
ROOT
ATOM      1  C   UNL     1      -9.454   4.058 131.381  0.00  0.00    +0.000 A 
ATOM      2  C   UNL     1      -8.687   3.089 130.771  0.00  0.00    +0.000 A 
ATOM      3  C   UNL     1      -7.807   1.892 131.464  0.00  0.00    +0.000 A 
ATOM      4  C   UNL     1      -7.092   1.108 130.483  0.00  0.00    +0.000 C 
ATOM      5  C   UNL     1      -7.542   1.313 132.770  0.00  0.00    +0.000 A 
ATOM      6  C   UNL     1      -8.330   2.728 133.417  0.00  0.00    +0.000 A 
ATOM      7  C   UNL     1      -9.259   4.007 132.743  0.00  0.00    +0.000 A 
ENDROOT
BRANCH   5   8
ATOM      8  C   UNL     1      -6.491  -0.409 133.159  0.00  0.00    +0.000 C 
ATOM      9  O   UNL     1      -5.920   0.603 133.883  0.00  0.00    +0.000 OA
ATOM     10  N   UNL     1      -5.873  -2.253 133.509  0.00  0.00    +0.000 N 
ATOM     11  C   UNL     1      -4.996  -1.171 133.249  0.00  0.00    +0.000 C 
ATOM     12  C   UNL     1      -5.028  -1.835 131.942  0.00  0.00    +0.000 C 
ATOM     13  C   UNL     1      -3.769  -2.448 132.521  0.00  0.00    +0.000 C 
ATOM     14  C   UNL     1      -3.883  -3.729 131.753  0.00  0.00    +0.000 C 
ATOM     15  C   UNL     1      -3.606  -4.229 133.093  0.00  0.00    +0.000 A 
ATOM     16  C   UNL     1      -4.947  -4.151 133.258  0.00  0.00    +0.000 A 
ATOM     17  C   UNL     1      -3.997  -5.772 133.399  0.00  0.00    +0.000 A 
ATOM     18  C   UNL     1      -2.641  -6.435 134.301  0.00  0.00    +0.000 A 
ATOM     19  C   UNL     1      -2.440  -5.453 135.120  0.00  0.00    +0.000 A 
ATOM     20 CL   UNL     1      -2.131  -5.493 136.780  0.00  0.00    +0.000 Cl
ATOM     21  C   UNL     1      -2.837  -4.289 134.441  0.00  0.00    +0.000 A 
BRANCH  14  22
ATOM     22  O   UNL     1      -3.098  -3.766 130.637  0.00  0.00    +0.000 OA
ATOM     23  H   UNL     1      -3.054  -2.842 130.407  0.00  0.00    +0.000 HD
ENDBRANCH  14  22
ENDBRANCH   5   8
BRANCH   1  26
ATOM     24  C   UNL     1     -10.147   6.374 130.659  0.00  0.00    +0.000 C 
ATOM     25  O   UNL     1      -9.256   6.932 131.298  0.00  0.00    +0.000 OA
ATOM     26  N   UNL     1     -10.271   4.966 130.643  0.00  0.00    +0.000 N 
ATOM     27  H   UNL     1     -10.936   4.499 130.066  0.00  0.00    +0.000 HD
BRANCH  24  34
ATOM     28  C   UNL     1     -12.802   7.443 131.662  0.00  0.00    +0.000 C 
ATOM     29  C   UNL     1     -12.292   7.772 130.306  0.00  0.00    +0.000 A 
ATOM     30  C   UNL     1     -13.082   8.598 129.492  0.00  0.00    +0.000 A 
ATOM     31  C   UNL     1     -12.683   8.931 128.206  0.00  0.00    +0.000 A 
ATOM     32  C   UNL     1     -11.485   8.437 127.712  0.00  0.00    +0.000 A 
ATOM     33  C   UNL     1     -10.681   7.622 128.523  0.00  0.00    +0.000 A 
ATOM     34  C   UNL     1     -11.069   7.271 129.839  0.00  0.00    +0.000 A 
ENDBRANCH  24  34
ENDBRANCH   1  26
TORSDOF 4
ENDMDL
MODEL 6
REMARK VINA RESULT:      -9.2      8.126     10.915
REMARK  Name = Tolvaptan
REMARK  6 active torsions:
REMARK  status: ('A' for Active; 'I' for Inactive)
REMARK    1  A    between atoms: C_1  and  C_2
REMARK    2  A    between atoms: C_7  and  C_8
REMARK    3  A    between atoms: N_10  and  C_11
REMARK    4  A    between atoms: C_13  and  C_14
REMARK    5  A    between atoms: C_15  and  C_18
REMARK    6  A    between atoms: C_24  and  O_25
REMARK                            x       y       z     vdW  Elec       q    Type
REMARK                         _______ _______ _______ _____ _____    ______ ____
ROOT
ATOM      1  C   UNL     1      -3.368   7.014 130.308  0.00  0.00    +0.000 A 
ATOM      2  C   UNL     1      -4.506   6.260 130.118  0.00  0.00    +0.000 A 
ATOM      3  C   UNL     1      -4.710   4.928 129.184  0.00  0.00    +0.000 A 
ATOM      4  C   UNL     1      -6.074   4.455 129.205  0.00  0.00    +0.000 C 
ATOM      5  C   UNL     1      -3.937   4.013 128.360  0.00  0.00    +0.000 A 
ATOM      6  C   UNL     1      -2.652   5.185 128.487  0.00  0.00    +0.000 A 
ATOM      7  C   UNL     1      -2.387   6.589 129.441  0.00  0.00    +0.000 A 
ENDROOT
BRANCH   5   8
ATOM      8  C   UNL     1      -4.604   2.263 127.515  0.00  0.00    +0.000 C 
ATOM      9  O   UNL     1      -3.495   2.668 126.822  0.00  0.00    +0.000 OA
ATOM     10  N   UNL     1      -5.337   0.472 127.115  0.00  0.00    +0.000 N 
ATOM     11  C   UNL     1      -5.042   1.436 126.119  0.00  0.00    +0.000 C 
ATOM     12  C   UNL     1      -6.495   1.587 126.242  0.00  0.00    +0.000 C 
ATOM     13  C   UNL     1      -6.425   0.644 125.058  0.00  0.00    +0.000 C 
ATOM     14  C   UNL     1      -7.747  -0.005 125.329  0.00  0.00    +0.000 C 
ATOM     15  C   UNL     1      -6.905  -1.170 125.099  0.00  0.00    +0.000 A 
ATOM     16  C   UNL     1      -6.628  -1.068 126.421  0.00  0.00    +0.000 A 
ATOM     17  C   UNL     1      -7.442  -2.591 125.666  0.00  0.00    +0.000 A 
ATOM     18  C   UNL     1      -7.133  -3.759 124.389  0.00  0.00    +0.000 A 
ATOM     19  C   UNL     1      -5.933  -3.396 124.065  0.00  0.00    +0.000 A 
ATOM     20 CL   UNL     1      -4.577  -4.353 123.747  0.00  0.00    +0.000 Cl
ATOM     21  C   UNL     1      -5.856  -2.019 124.329  0.00  0.00    +0.000 A 
BRANCH  14  22
ATOM     22  O   UNL     1      -8.764   0.491 124.565  0.00  0.00    +0.000 OA
ATOM     23  H   UNL     1      -9.484   0.496 125.189  0.00  0.00    +0.000 HD
ENDBRANCH  14  22
ENDBRANCH   5   8
BRANCH   1  26
ATOM     24  C   UNL     1      -2.359   8.190 132.299  0.00  0.00    +0.000 C 
ATOM     25  O   UNL     1      -1.460   7.362 132.440  0.00  0.00    +0.000 OA
ATOM     26  N   UNL     1      -3.304   8.081 131.253  0.00  0.00    +0.000 N 
ATOM     27  H   UNL     1      -3.986   8.787 131.080  0.00  0.00    +0.000 HD
BRANCH  24  34
ATOM     28  C   UNL     1      -2.970   7.945 135.260  0.00  0.00    +0.000 C 
ATOM     29  C   UNL     1      -2.640   9.252 134.638  0.00  0.00    +0.000 A 
ATOM     30  C   UNL     1      -2.621  10.385 135.467  0.00  0.00    +0.000 A 
ATOM     31  C   UNL     1      -2.343  11.644 134.955  0.00  0.00    +0.000 A 
ATOM     32  C   UNL     1      -2.084  11.790 133.601  0.00  0.00    +0.000 A 
ATOM     33  C   UNL     1      -2.087  10.662 132.766  0.00  0.00    +0.000 A 
ATOM     34  C   UNL     1      -2.367   9.368 133.268  0.00  0.00    +0.000 A 
ENDBRANCH  24  34
ENDBRANCH   1  26
TORSDOF 4
ENDMDL
MODEL 7
REMARK VINA RESULT:      -9.1      9.190     12.728
REMARK  Name = Tolvaptan
REMARK  6 active torsions:
REMARK  status: ('A' for Active; 'I' for Inactive)
REMARK    1  A    between atoms: C_1  and  C_2
REMARK    2  A    between atoms: C_7  and  C_8
REMARK    3  A    between atoms: N_10  and  C_11
REMARK    4  A    between atoms: C_13  and  C_14
REMARK    5  A    between atoms: C_15  and  C_18
REMARK    6  A    between atoms: C_24  and  O_25
REMARK                            x       y       z     vdW  Elec       q    Type
REMARK                         _______ _______ _______ _____ _____    ______ ____
ROOT
ATOM      1  C   UNL     1      -1.015   6.492 132.121  0.00  0.00    +0.000 A 
ATOM      2  C   UNL     1      -1.333   6.640 130.788  0.00  0.00    +0.000 A 
ATOM      3  C   UNL     1      -2.343   5.733 129.869  0.00  0.00    +0.000 A 
ATOM      4  C   UNL     1      -2.368   6.175 128.494  0.00  0.00    +0.000 C 
ATOM      5  C   UNL     1      -3.283   4.632 129.996  0.00  0.00    +0.000 A 
ATOM      6  C   UNL     1      -2.609   4.405 131.588  0.00  0.00    +0.000 A 
ATOM      7  C   UNL     1      -1.554   5.316 132.593  0.00  0.00    +0.000 A 
ENDROOT
BRANCH   5   8
ATOM      8  C   UNL     1      -4.557   3.933 128.543  0.00  0.00    +0.000 C 
ATOM      9  O   UNL     1      -3.623   2.961 128.785  0.00  0.00    +0.000 OA
ATOM     10  N   UNL     1      -6.085   3.471 127.378  0.00  0.00    +0.000 N 
ATOM     11  C   UNL     1      -4.733   3.233 127.025  0.00  0.00    +0.000 C 
ATOM     12  C   UNL     1      -5.016   4.458 126.269  0.00  0.00    +0.000 C 
ATOM     13  C   UNL     1      -5.264   3.419 125.194  0.00  0.00    +0.000 C 
ATOM     14  C   UNL     1      -6.266   4.243 124.446  0.00  0.00    +0.000 C 
ATOM     15  C   UNL     1      -6.952   2.960 124.513  0.00  0.00    +0.000 A 
ATOM     16  C   UNL     1      -7.401   3.410 125.708  0.00  0.00    +0.000 A 
ATOM     17  C   UNL     1      -8.557   2.970 124.287  0.00  0.00    +0.000 A 
ATOM     18  C   UNL     1      -8.896   1.603 123.235  0.00  0.00    +0.000 A 
ATOM     19  C   UNL     1      -8.145   0.715 123.803  0.00  0.00    +0.000 A 
ATOM     20 CL   UNL     1      -8.486  -0.900 124.163  0.00  0.00    +0.000 Cl
ATOM     21  C   UNL     1      -7.069   1.418 124.370  0.00  0.00    +0.000 A 
BRANCH  14  22
ATOM     22  O   UNL     1      -5.741   4.887 123.362  0.00  0.00    +0.000 OA
ATOM     23  H   UNL     1      -5.017   4.310 123.133  0.00  0.00    +0.000 HD
ENDBRANCH  14  22
ENDBRANCH   5   8
BRANCH   1  26
ATOM     24  C   UNL     1      -0.646   8.705 133.274  0.00  0.00    +0.000 C 
ATOM     25  O   UNL     1      -1.810   9.075 133.121  0.00  0.00    +0.000 OA
ATOM     26  N   UNL     1      -0.212   7.436 132.827  0.00  0.00    +0.000 N 
ATOM     27  H   UNL     1       0.705   7.093 133.017  0.00  0.00    +0.000 HD
BRANCH  24  34
ATOM     28  C   UNL     1      -0.019   8.483 136.233  0.00  0.00    +0.000 C 
ATOM     29  C   UNL     1       0.581   9.546 135.388  0.00  0.00    +0.000 A 
ATOM     30  C   UNL     1       1.454  10.457 136.002  0.00  0.00    +0.000 A 
ATOM     31  C   UNL     1       2.036  11.490 135.283  0.00  0.00    +0.000 A 
ATOM     32  C   UNL     1       1.749  11.631 133.933  0.00  0.00    +0.000 A 
ATOM     33  C   UNL     1       0.888  10.718 133.307  0.00  0.00    +0.000 A 
ATOM     34  C   UNL     1       0.284   9.655 134.022  0.00  0.00    +0.000 A 
ENDBRANCH  24  34
ENDBRANCH   1  26
TORSDOF 4
ENDMDL
MODEL 8
REMARK VINA RESULT:      -8.9      6.132      6.978
REMARK  Name = Tolvaptan
REMARK  6 active torsions:
REMARK  status: ('A' for Active; 'I' for Inactive)
REMARK    1  A    between atoms: C_1  and  C_2
REMARK    2  A    between atoms: C_7  and  C_8
REMARK    3  A    between atoms: N_10  and  C_11
REMARK    4  A    between atoms: C_13  and  C_14
REMARK    5  A    between atoms: C_15  and  C_18
REMARK    6  A    between atoms: C_24  and  O_25
REMARK                            x       y       z     vdW  Elec       q    Type
REMARK                         _______ _______ _______ _____ _____    ______ ____
ROOT
ATOM      1  C   UNL     1      -8.911   4.737 130.239  0.00  0.00    +0.000 A 
ATOM      2  C   UNL     1      -9.228   3.678 131.062  0.00  0.00    +0.000 A 
ATOM      3  C   UNL     1      -8.388   2.295 131.323  0.00  0.00    +0.000 A 
ATOM      4  C   UNL     1      -9.082   1.400 132.219  0.00  0.00    +0.000 C 
ATOM      5  C   UNL     1      -7.117   1.678 130.979  0.00  0.00    +0.000 A 
ATOM      6  C   UNL     1      -6.963   2.951 129.798  0.00  0.00    +0.000 A 
ATOM      7  C   UNL     1      -7.808   4.414 129.481  0.00  0.00    +0.000 A 
ENDROOT
BRANCH   5   8
ATOM      8  C   UNL     1      -6.350  -0.064 131.753  0.00  0.00    +0.000 C 
ATOM      9  O   UNL     1      -5.299   0.752 131.434  0.00  0.00    +0.000 OA
ATOM     10  N   UNL     1      -5.960  -1.718 132.761  0.00  0.00    +0.000 N 
ATOM     11  C   UNL     1      -5.272  -1.342 131.581  0.00  0.00    +0.000 C 
ATOM     12  C   UNL     1      -6.216  -2.335 131.058  0.00  0.00    +0.000 C 
ATOM     13  C   UNL     1      -4.991  -3.206 131.247  0.00  0.00    +0.000 C 
ATOM     14  C   UNL     1      -5.763  -4.467 131.485  0.00  0.00    +0.000 C 
ATOM     15  C   UNL     1      -4.801  -4.519 132.576  0.00  0.00    +0.000 A 
ATOM     16  C   UNL     1      -5.715  -3.775 133.243  0.00  0.00    +0.000 A 
ATOM     17  C   UNL     1      -5.162  -5.478 133.832  0.00  0.00    +0.000 A 
ATOM     18  C   UNL     1      -3.670  -6.318 134.232  0.00  0.00    +0.000 A 
ATOM     19  C   UNL     1      -2.848  -5.321 134.160  0.00  0.00    +0.000 A 
ATOM     20 CL   UNL     1      -1.587  -4.899 135.202  0.00  0.00    +0.000 Cl
ATOM     21  C   UNL     1      -3.384  -4.438 133.208  0.00  0.00    +0.000 A 
BRANCH  14  22
ATOM     22  O   UNL     1      -5.860  -5.262 130.379  0.00  0.00    +0.000 OA
ATOM     23  H   UNL     1      -6.075  -4.623 129.705  0.00  0.00    +0.000 HD
ENDBRANCH  14  22
ENDBRANCH   5   8
BRANCH   1  26
ATOM     24  C   UNL     1     -11.038   6.029 129.832  0.00  0.00    +0.000 C 
ATOM     25  O   UNL     1     -11.693   5.027 129.547  0.00  0.00    +0.000 OA
ATOM     26  N   UNL     1      -9.678   5.939 130.205  0.00  0.00    +0.000 N 
ATOM     27  H   UNL     1      -9.160   6.732 130.516  0.00  0.00    +0.000 HD
BRANCH  24  34
ATOM     28  C   UNL     1     -11.129   7.902 127.447  0.00  0.00    +0.000 C 
ATOM     29  C   UNL     1     -11.831   8.222 128.716  0.00  0.00    +0.000 A 
ATOM     30  C   UNL     1     -12.542   9.430 128.784  0.00  0.00    +0.000 A 
ATOM     31  C   UNL     1     -13.205   9.808 129.942  0.00  0.00    +0.000 A 
ATOM     32  C   UNL     1     -13.161   8.984 131.056  0.00  0.00    +0.000 A 
ATOM     33  C   UNL     1     -12.463   7.768 130.994  0.00  0.00    +0.000 A 
ATOM     34  C   UNL     1     -11.782   7.361 129.822  0.00  0.00    +0.000 A 
ENDBRANCH  24  34
ENDBRANCH   1  26
TORSDOF 4
ENDMDL
MODEL 9
REMARK VINA RESULT:      -8.9      8.887     11.152
REMARK  Name = Tolvaptan
REMARK  6 active torsions:
REMARK  status: ('A' for Active; 'I' for Inactive)
REMARK    1  A    between atoms: C_1  and  C_2
REMARK    2  A    between atoms: C_7  and  C_8
REMARK    3  A    between atoms: N_10  and  C_11
REMARK    4  A    between atoms: C_13  and  C_14
REMARK    5  A    between atoms: C_15  and  C_18
REMARK    6  A    between atoms: C_24  and  O_25
REMARK                            x       y       z     vdW  Elec       q    Type
REMARK                         _______ _______ _______ _____ _____    ______ ____
ROOT
ATOM      1  C   UNL     1      -5.449   1.647 128.559  0.00  0.00    +0.000 A 
ATOM      2  C   UNL     1      -5.152   2.030 129.849  0.00  0.00    +0.000 A 
ATOM      3  C   UNL     1      -4.257   3.306 130.359  0.00  0.00    +0.000 A 
ATOM      4  C   UNL     1      -4.130   3.338 131.797  0.00  0.00    +0.000 C 
ATOM      5  C   UNL     1      -3.574   4.475 129.829  0.00  0.00    +0.000 A 
ATOM      6  C   UNL     1      -3.809   3.744 128.263  0.00  0.00    +0.000 A 
ATOM      7  C   UNL     1      -4.728   2.417 127.674  0.00  0.00    +0.000 A 
ENDROOT
BRANCH   5   8
ATOM      8  C   UNL     1      -2.728   5.999 130.916  0.00  0.00    +0.000 C 
ATOM      9  O   UNL     1      -1.987   5.835 129.776  0.00  0.00    +0.000 OA
ATOM     10  N   UNL     1      -2.329   7.562 132.056  0.00  0.00    +0.000 N 
ATOM     11  C   UNL     1      -1.339   6.659 131.594  0.00  0.00    +0.000 C 
ATOM     12  C   UNL     1      -1.541   6.186 132.967  0.00  0.00    +0.000 C 
ATOM     13  C   UNL     1      -0.335   7.082 133.169  0.00  0.00    +0.000 C 
ATOM     14  C   UNL     1      -0.661   7.422 134.590  0.00  0.00    +0.000 C 
ATOM     15  C   UNL     1      -0.363   8.740 134.048  0.00  0.00    +0.000 A 
ATOM     16  C   UNL     1      -1.670   8.746 133.696  0.00  0.00    +0.000 A 
ATOM     17  C   UNL     1      -0.926  10.019 134.870  0.00  0.00    +0.000 A 
ATOM     18  C   UNL     1       0.389  11.184 134.894  0.00  0.00    +0.000 A 
ATOM     19  C   UNL     1       0.767  11.093 133.660  0.00  0.00    +0.000 A 
ATOM     20 CL   UNL     1       1.175  12.322 132.574  0.00  0.00    +0.000 Cl
ATOM     21  C   UNL     1       0.478   9.779 133.257  0.00  0.00    +0.000 A 
BRANCH  14  22
ATOM     22  O   UNL     1       0.039   6.683 135.500  0.00  0.00    +0.000 OA
ATOM     23  H   UNL     1      -0.558   5.956 135.653  0.00  0.00    +0.000 HD
ENDBRANCH  14  22
ENDBRANCH   5   8
BRANCH   1  26
ATOM     24  C   UNL     1      -6.021  -0.795 128.287  0.00  0.00    +0.000 C 
ATOM     25  O   UNL     1      -4.903  -1.181 128.625  0.00  0.00    +0.000 OA
ATOM     26  N   UNL     1      -6.349   0.580 128.264  0.00  0.00    +0.000 N 
ATOM     27  H   UNL     1      -7.273   0.901 128.071  0.00  0.00    +0.000 HD
BRANCH  24  34
ATOM     28  C   UNL     1      -6.816  -1.562 125.462  0.00  0.00    +0.000 C 
ATOM     29  C   UNL     1      -7.409  -2.232 126.647  0.00  0.00    +0.000 A 
ATOM     30  C   UNL     1      -8.361  -3.239 126.423  0.00  0.00    +0.000 A 
ATOM     31  C   UNL     1      -8.975  -3.895 127.480  0.00  0.00    +0.000 A 
ATOM     32  C   UNL     1      -8.648  -3.548 128.782  0.00  0.00    +0.000 A 
ATOM     33  C   UNL     1      -7.689  -2.552 129.017  0.00  0.00    +0.000 A 
ATOM     34  C   UNL     1      -7.049  -1.871 127.954  0.00  0.00    +0.000 A 
ENDBRANCH  24  34
ENDBRANCH   1  26
TORSDOF 4
ENDMDL
