MODEL 1
REMARK VINA RESULT:      -7.0      0.000      0.000
REMARK  Name = Topiramate
REMARK  8 active torsions:
REMARK  status: ('A' for Active; 'I' for Inactive)
REMARK    1  A    between atoms: C_5  and  C_6
REMARK    2  A    between atoms: C_6  and  O_7
REMARK    3  A    between atoms: O_7  and  S_8
REMARK    4  A    between atoms: S_8  and  N_9
REMARK    5  A    between atoms: C_13  and  C_14
REMARK    6  A    between atoms: C_13  and  C_15
REMARK    7  A    between atoms: C_22  and  C_23
REMARK    8  A    between atoms: C_22  and  C_24
REMARK                            x       y       z     vdW  Elec       q    Type
REMARK                         _______ _______ _______ _____ _____    ______ ____
ROOT
ATOM      1  C   UNL     1     -11.002   6.115 131.240  0.00  0.00    +0.000 C 
ATOM      2  C   UNL     1      -9.521   6.452 131.262  0.00  0.00    +0.000 C 
ATOM      3  O   UNL     1      -8.655   5.377 131.008  0.00  0.00    +0.000 OA
ATOM      4  C   UNL     1      -8.886   4.467 129.928  0.00  0.00    +0.000 C 
ATOM      5  O   UNL     1      -7.903   3.417 129.851  0.00  0.00    +0.000 OA
ATOM      6  C   UNL     1      -7.860   2.930 131.149  0.00  0.00    +0.000 C 
ATOM      7  C   UNL     1      -6.879   3.899 131.931  0.00  0.00    +0.000 C 
ATOM      8  C   UNL     1      -6.929   1.666 131.021  0.00  0.00    +0.000 C 
ATOM      9  O   UNL     1      -9.372   2.947 131.482  0.00  0.00    +0.000 OA
ATOM     10  C   UNL     1     -10.116   3.743 130.292  0.00  0.00    +0.000 C 
ATOM     11  C   UNL     1     -11.251   4.959 130.307  0.00  0.00    +0.000 C 
ATOM     12  O   UNL     1     -11.286   5.721 129.015  0.00  0.00    +0.000 OA
ATOM     13  C   UNL     1     -11.735   7.086 129.300  0.00  0.00    +0.000 C 
ATOM     14  C   UNL     1     -13.102   7.243 128.651  0.00  0.00    +0.000 C 
ATOM     15  C   UNL     1     -10.950   8.257 128.665  0.00  0.00    +0.000 C 
ATOM     16  O   UNL     1     -11.752   7.240 130.716  0.00  0.00    +0.000 OA
ENDROOT
BRANCH   4  17
ATOM     17  C   UNL     1      -8.605   4.999 128.587  0.00  0.00    +0.000 C 
BRANCH  17  18
ATOM     18  O   UNL     1      -8.251   4.075 127.610  0.00  0.00    +0.000 OA
BRANCH  18  19
ATOM     19  S   UNL     1      -8.198   4.697 126.127  0.00  0.00    +0.000 S 
ATOM     20  O   UNL     1      -6.894   5.243 125.924  0.00  0.00    +0.000 OA
ATOM     21  O   UNL     1      -8.849   3.805 125.186  0.00  0.00    +0.000 OA
BRANCH  19  22
ATOM     22  N   UNL     1      -9.332   5.893 126.353  0.00  0.00    +0.000 NA
ATOM     23  H   UNL     1      -9.840   6.082 125.494  0.00  0.00    +0.000 HD
ATOM     24  H   UNL     1      -8.789   6.701 126.666  0.00  0.00    +0.000 HD
ENDBRANCH  19  22
ENDBRANCH  18  19
ENDBRANCH  17  18
ENDBRANCH   4  17
TORSDOF 4
ENDMDL
MODEL 2
REMARK VINA RESULT:      -6.9      1.703      2.236
REMARK  Name = Topiramate
REMARK  8 active torsions:
REMARK  status: ('A' for Active; 'I' for Inactive)
REMARK    1  A    between atoms: C_5  and  C_6
REMARK    2  A    between atoms: C_6  and  O_7
REMARK    3  A    between atoms: O_7  and  S_8
REMARK    4  A    between atoms: S_8  and  N_9
REMARK    5  A    between atoms: C_13  and  C_14
REMARK    6  A    between atoms: C_13  and  C_15
REMARK    7  A    between atoms: C_22  and  C_23
REMARK    8  A    between atoms: C_22  and  C_24
REMARK                            x       y       z     vdW  Elec       q    Type
REMARK                         _______ _______ _______ _____ _____    ______ ____
ROOT
ATOM      1  C   UNL     1     -11.251   8.104 129.693  0.00  0.00    +0.000 C 
ATOM      2  C   UNL     1      -9.808   8.029 129.225  0.00  0.00    +0.000 C 
ATOM      3  O   UNL     1      -8.996   7.118 129.919  0.00  0.00    +0.000 OA
ATOM      4  C   UNL     1      -9.439   5.788 130.206  0.00  0.00    +0.000 C 
ATOM      5  O   UNL     1      -8.475   5.018 130.951  0.00  0.00    +0.000 OA
ATOM      6  C   UNL     1      -8.140   5.862 131.999  0.00  0.00    +0.000 C 
ATOM      7  C   UNL     1      -7.033   6.836 131.420  0.00  0.00    +0.000 C 
ATOM      8  C   UNL     1      -7.234   4.951 132.910  0.00  0.00    +0.000 C 
ATOM      9  O   UNL     1      -9.544   6.422 132.339  0.00  0.00    +0.000 OA
ATOM     10  C   UNL     1     -10.545   5.948 131.165  0.00  0.00    +0.000 C 
ATOM     11  C   UNL     1     -11.674   6.776 130.267  0.00  0.00    +0.000 C 
ATOM     12  O   UNL     1     -12.006   6.075 128.982  0.00  0.00    +0.000 OA
ATOM     13  C   UNL     1     -12.409   7.084 128.000  0.00  0.00    +0.000 C 
ATOM     14  C   UNL     1     -13.887   6.859 127.721  0.00  0.00    +0.000 C 
ATOM     15  C   UNL     1     -11.805   6.998 126.579  0.00  0.00    +0.000 C 
ATOM     16  O   UNL     1     -12.120   8.362 128.561  0.00  0.00    +0.000 OA
ENDROOT
BRANCH   4  17
ATOM     17  C   UNL     1      -9.467   4.873 129.056  0.00  0.00    +0.000 C 
BRANCH  17  18
ATOM     18  O   UNL     1      -8.982   5.369 127.851  0.00  0.00    +0.000 OA
BRANCH  18  19
ATOM     19  S   UNL     1      -8.007   4.346 127.082  0.00  0.00    +0.000 S 
ATOM     20  O   UNL     1      -6.659   4.692 127.408  0.00  0.00    +0.000 OA
ATOM     21  O   UNL     1      -8.531   2.996 127.165  0.00  0.00    +0.000 OA
BRANCH  19  22
ATOM     22  N   UNL     1      -8.395   4.802 125.529  0.00  0.00    +0.000 NA
ATOM     23  H   UNL     1      -7.917   5.659 125.270  0.00  0.00    +0.000 HD
ATOM     24  H   UNL     1      -9.411   4.918 125.546  0.00  0.00    +0.000 HD
ENDBRANCH  19  22
ENDBRANCH  18  19
ENDBRANCH  17  18
ENDBRANCH   4  17
TORSDOF 4
ENDMDL
MODEL 3
REMARK VINA RESULT:      -6.5      3.408      5.216
REMARK  Name = Topiramate
REMARK  8 active torsions:
REMARK  status: ('A' for Active; 'I' for Inactive)
REMARK    1  A    between atoms: C_5  and  C_6
REMARK    2  A    between atoms: C_6  and  O_7
REMARK    3  A    between atoms: O_7  and  S_8
REMARK    4  A    between atoms: S_8  and  N_9
REMARK    5  A    between atoms: C_13  and  C_14
REMARK    6  A    between atoms: C_13  and  C_15
REMARK    7  A    between atoms: C_22  and  C_23
REMARK    8  A    between atoms: C_22  and  C_24
REMARK                            x       y       z     vdW  Elec       q    Type
REMARK                         _______ _______ _______ _____ _____    ______ ____
ROOT
ATOM      1  C   UNL     1      -6.319   3.304 132.364  0.00  0.00    +0.000 C 
ATOM      2  C   UNL     1      -5.986   4.576 133.124  0.00  0.00    +0.000 C 
ATOM      3  O   UNL     1      -5.617   5.673 132.331  0.00  0.00    +0.000 OA
ATOM      4  C   UNL     1      -6.361   6.037 131.164  0.00  0.00    +0.000 C 
ATOM      5  O   UNL     1      -5.808   7.172 130.470  0.00  0.00    +0.000 OA
ATOM      6  C   UNL     1      -4.467   6.840 130.343  0.00  0.00    +0.000 C 
ATOM      7  C   UNL     1      -3.797   7.255 131.718  0.00  0.00    +0.000 C 
ATOM      8  C   UNL     1      -3.905   7.989 129.424  0.00  0.00    +0.000 C 
ATOM      9  O   UNL     1      -4.605   5.340 129.985  0.00  0.00    +0.000 OA
ATOM     10  C   UNL     1      -6.149   4.933 130.212  0.00  0.00    +0.000 C 
ATOM     11  C   UNL     1      -6.856   3.649 130.999  0.00  0.00    +0.000 C 
ATOM     12  O   UNL     1      -8.279   3.929 131.385  0.00  0.00    +0.000 OA
ATOM     13  C   UNL     1      -8.594   3.142 132.578  0.00  0.00    +0.000 C 
ATOM     14  C   UNL     1      -9.621   2.100 132.160  0.00  0.00    +0.000 C 
ATOM     15  C   UNL     1      -9.323   3.849 133.745  0.00  0.00    +0.000 C 
ATOM     16  O   UNL     1      -7.372   2.583 133.053  0.00  0.00    +0.000 OA
ENDROOT
BRANCH   4  17
ATOM     17  C   UNL     1      -7.662   6.671 131.420  0.00  0.00    +0.000 C 
BRANCH  17  18
ATOM     18  O   UNL     1      -8.209   7.417 130.382  0.00  0.00    +0.000 OA
BRANCH  18  19
ATOM     19  S   UNL     1      -9.738   7.039 130.055  0.00  0.00    +0.000 S 
ATOM     20  O   UNL     1     -10.344   6.569 131.260  0.00  0.00    +0.000 OA
ATOM     21  O   UNL     1     -10.333   8.050 129.200  0.00  0.00    +0.000 OA
BRANCH  19  22
ATOM     22  N   UNL     1      -9.432   5.791 128.999  0.00  0.00    +0.000 NA
ATOM     23  H   UNL     1      -9.955   5.905 128.136  0.00  0.00    +0.000 HD
ATOM     24  H   UNL     1      -9.712   4.951 129.511  0.00  0.00    +0.000 HD
ENDBRANCH  19  22
ENDBRANCH  18  19
ENDBRANCH  17  18
ENDBRANCH   4  17
TORSDOF 4
ENDMDL
MODEL 4
REMARK VINA RESULT:      -6.5      1.271      4.567
REMARK  Name = Topiramate
REMARK  8 active torsions:
REMARK  status: ('A' for Active; 'I' for Inactive)
REMARK    1  A    between atoms: C_5  and  C_6
REMARK    2  A    between atoms: C_6  and  O_7
REMARK    3  A    between atoms: O_7  and  S_8
REMARK    4  A    between atoms: S_8  and  N_9
REMARK    5  A    between atoms: C_13  and  C_14
REMARK    6  A    between atoms: C_13  and  C_15
REMARK    7  A    between atoms: C_22  and  C_23
REMARK    8  A    between atoms: C_22  and  C_24
REMARK                            x       y       z     vdW  Elec       q    Type
REMARK                         _______ _______ _______ _____ _____    ______ ____
ROOT
ATOM      1  C   UNL     1      -9.385   3.703 132.027  0.00  0.00    +0.000 C 
ATOM      2  C   UNL     1     -10.418   3.567 130.922  0.00  0.00    +0.000 C 
ATOM      3  O   UNL     1     -10.464   4.630 130.006  0.00  0.00    +0.000 OA
ATOM      4  C   UNL     1      -9.272   5.177 129.433  0.00  0.00    +0.000 C 
ATOM      5  O   UNL     1      -9.527   6.278 128.540  0.00  0.00    +0.000 OA
ATOM      6  C   UNL     1     -10.361   7.100 129.283  0.00  0.00    +0.000 C 
ATOM      7  C   UNL     1     -11.818   6.506 129.093  0.00  0.00    +0.000 C 
ATOM      8  C   UNL     1     -10.485   8.385 128.381  0.00  0.00    +0.000 C 
ATOM      9  O   UNL     1      -9.669   6.991 130.664  0.00  0.00    +0.000 OA
ATOM     10  C   UNL     1      -8.565   5.818 130.555  0.00  0.00    +0.000 C 
ATOM     11  C   UNL     1      -8.218   4.524 131.540  0.00  0.00    +0.000 C 
ATOM     12  O   UNL     1      -7.472   3.441 130.817  0.00  0.00    +0.000 OA
ATOM     13  C   UNL     1      -7.792   2.161 131.453  0.00  0.00    +0.000 C 
ATOM     14  C   UNL     1      -6.514   1.669 132.116  0.00  0.00    +0.000 C 
ATOM     15  C   UNL     1      -8.152   0.965 130.541  0.00  0.00    +0.000 C 
ATOM     16  O   UNL     1      -8.858   2.396 132.368  0.00  0.00    +0.000 OA
ENDROOT
BRANCH   4  17
ATOM     17  C   UNL     1      -8.622   4.340 128.416  0.00  0.00    +0.000 C 
BRANCH  17  18
ATOM     18  O   UNL     1      -7.618   4.938 127.662  0.00  0.00    +0.000 OA
BRANCH  18  19
ATOM     19  S   UNL     1      -7.773   4.697 126.079  0.00  0.00    +0.000 S 
ATOM     20  O   UNL     1      -6.573   5.144 125.445  0.00  0.00    +0.000 OA
ATOM     21  O   UNL     1      -8.378   3.402 125.826  0.00  0.00    +0.000 OA
BRANCH  19  22
ATOM     22  N   UNL     1      -9.031   5.754 125.820  0.00  0.00    +0.000 NA
ATOM     23  H   UNL     1      -9.194   5.891 124.827  0.00  0.00    +0.000 HD
ATOM     24  H   UNL     1      -8.737   6.616 126.285  0.00  0.00    +0.000 HD
ENDBRANCH  19  22
ENDBRANCH  18  19
ENDBRANCH  17  18
ENDBRANCH   4  17
TORSDOF 4
ENDMDL
MODEL 5
REMARK VINA RESULT:      -6.4      5.326      7.413
REMARK  Name = Topiramate
REMARK  8 active torsions:
REMARK  status: ('A' for Active; 'I' for Inactive)
REMARK    1  A    between atoms: C_5  and  C_6
REMARK    2  A    between atoms: C_6  and  O_7
REMARK    3  A    between atoms: O_7  and  S_8
REMARK    4  A    between atoms: S_8  and  N_9
REMARK    5  A    between atoms: C_13  and  C_14
REMARK    6  A    between atoms: C_13  and  C_15
REMARK    7  A    between atoms: C_22  and  C_23
REMARK    8  A    between atoms: C_22  and  C_24
REMARK                            x       y       z     vdW  Elec       q    Type
REMARK                         _______ _______ _______ _____ _____    ______ ____
ROOT
ATOM      1  C   UNL     1      -6.401  -0.132 127.551  0.00  0.00    +0.000 C 
ATOM      2  C   UNL     1      -5.684  -0.810 126.396  0.00  0.00    +0.000 C 
ATOM      3  O   UNL     1      -6.516  -1.345 125.401  0.00  0.00    +0.000 OA
ATOM      4  C   UNL     1      -7.616  -0.603 124.865  0.00  0.00    +0.000 C 
ATOM      5  O   UNL     1      -8.366  -1.335 123.877  0.00  0.00    +0.000 OA
ATOM      6  C   UNL     1      -8.608  -2.550 124.501  0.00  0.00    +0.000 C 
ATOM      7  C   UNL     1      -7.301  -3.414 124.264  0.00  0.00    +0.000 C 
ATOM      8  C   UNL     1      -9.583  -3.274 123.498  0.00  0.00    +0.000 C 
ATOM      9  O   UNL     1      -8.940  -2.046 125.927  0.00  0.00    +0.000 OA
ATOM     10  C   UNL     1      -8.573  -0.476 125.978  0.00  0.00    +0.000 C 
ATOM     11  C   UNL     1      -7.716   0.431 127.078  0.00  0.00    +0.000 C 
ATOM     12  O   UNL     1      -7.209   1.714 126.489  0.00  0.00    +0.000 OA
ATOM     13  C   UNL     1      -5.985   2.093 127.198  0.00  0.00    +0.000 C 
ATOM     14  C   UNL     1      -6.303   3.361 127.976  0.00  0.00    +0.000 C 
ATOM     15  C   UNL     1      -4.766   2.538 126.358  0.00  0.00    +0.000 C 
ATOM     16  O   UNL     1      -5.615   0.992 128.023  0.00  0.00    +0.000 OA
ENDROOT
BRANCH   4  17
ATOM     17  C   UNL     1      -7.252   0.494 123.958  0.00  0.00    +0.000 C 
BRANCH  17  18
ATOM     18  O   UNL     1      -8.297   1.128 123.294  0.00  0.00    +0.000 OA
BRANCH  18  19
ATOM     19  S   UNL     1      -8.146   2.729 123.243  0.00  0.00    +0.000 S 
ATOM     20  O   UNL     1      -6.775   3.051 123.483  0.00  0.00    +0.000 OA
ATOM     21  O   UNL     1      -8.915   3.270 122.138  0.00  0.00    +0.000 OA
BRANCH  19  22
ATOM     22  N   UNL     1      -9.096   3.078 124.564  0.00  0.00    +0.000 NA
ATOM     23  H   UNL     1      -9.888   3.656 124.302  0.00  0.00    +0.000 HD
ATOM     24  H   UNL     1      -8.465   3.559 125.209  0.00  0.00    +0.000 HD
ENDBRANCH  19  22
ENDBRANCH  18  19
ENDBRANCH  17  18
ENDBRANCH   4  17
TORSDOF 4
ENDMDL
MODEL 6
REMARK VINA RESULT:      -6.2      2.690      4.831
REMARK  Name = Topiramate
REMARK  8 active torsions:
REMARK  status: ('A' for Active; 'I' for Inactive)
REMARK    1  A    between atoms: C_5  and  C_6
REMARK    2  A    between atoms: C_6  and  O_7
REMARK    3  A    between atoms: O_7  and  S_8
REMARK    4  A    between atoms: S_8  and  N_9
REMARK    5  A    between atoms: C_13  and  C_14
REMARK    6  A    between atoms: C_13  and  C_15
REMARK    7  A    between atoms: C_22  and  C_23
REMARK    8  A    between atoms: C_22  and  C_24
REMARK                            x       y       z     vdW  Elec       q    Type
REMARK                         _______ _______ _______ _____ _____    ______ ____
ROOT
ATOM      1  C   UNL     1      -6.909   2.421 128.204  0.00  0.00    +0.000 C 
ATOM      2  C   UNL     1      -8.399   2.256 128.449  0.00  0.00    +0.000 C 
ATOM      3  O   UNL     1      -8.857   2.706 129.697  0.00  0.00    +0.000 OA
ATOM      4  C   UNL     1      -8.459   3.973 130.230  0.00  0.00    +0.000 C 
ATOM      5  O   UNL     1      -9.012   4.240 131.533  0.00  0.00    +0.000 OA
ATOM      6  C   UNL     1      -8.720   3.084 132.241  0.00  0.00    +0.000 C 
ATOM      7  C   UNL     1      -9.872   2.060 131.875  0.00  0.00    +0.000 C 
ATOM      8  C   UNL     1      -9.156   3.451 133.709  0.00  0.00    +0.000 C 
ATOM      9  O   UNL     1      -7.281   2.825 131.732  0.00  0.00    +0.000 OA
ATOM     10  C   UNL     1      -7.018   3.839 130.504  0.00  0.00    +0.000 C 
ATOM     11  C   UNL     1      -6.389   3.602 128.982  0.00  0.00    +0.000 C 
ATOM     12  O   UNL     1      -6.785   4.689 128.026  0.00  0.00    +0.000 OA
ATOM     13  C   UNL     1      -6.811   4.124 126.675  0.00  0.00    +0.000 C 
ATOM     14  C   UNL     1      -5.679   4.783 125.901  0.00  0.00    +0.000 C 
ATOM     15  C   UNL     1      -8.030   4.442 125.778  0.00  0.00    +0.000 C 
ATOM     16  O   UNL     1      -6.673   2.712 126.803  0.00  0.00    +0.000 OA
ENDROOT
BRANCH   4  17
ATOM     17  C   UNL     1      -9.074   5.145 129.591  0.00  0.00    +0.000 C 
BRANCH  17  18
ATOM     18  O   UNL     1     -10.439   5.072 129.333  0.00  0.00    +0.000 OA
BRANCH  18  19
ATOM     19  S   UNL     1     -11.268   6.326 129.905  0.00  0.00    +0.000 S 
ATOM     20  O   UNL     1     -10.386   7.449 129.963  0.00  0.00    +0.000 OA
ATOM     21  O   UNL     1     -12.586   6.373 129.300  0.00  0.00    +0.000 OA
BRANCH  19  22
ATOM     22  N   UNL     1     -11.574   5.712 131.420  0.00  0.00    +0.000 NA
ATOM     23  H   UNL     1     -11.139   4.803 131.541  0.00  0.00    +0.000 HD
ATOM     24  H   UNL     1     -12.595   5.661 131.472  0.00  0.00    +0.000 HD
ENDBRANCH  19  22
ENDBRANCH  18  19
ENDBRANCH  17  18
ENDBRANCH   4  17
TORSDOF 4
ENDMDL
MODEL 7
REMARK VINA RESULT:      -6.1      4.122      6.787
REMARK  Name = Topiramate
REMARK  8 active torsions:
REMARK  status: ('A' for Active; 'I' for Inactive)
REMARK    1  A    between atoms: C_5  and  C_6
REMARK    2  A    between atoms: C_6  and  O_7
REMARK    3  A    between atoms: O_7  and  S_8
REMARK    4  A    between atoms: S_8  and  N_9
REMARK    5  A    between atoms: C_13  and  C_14
REMARK    6  A    between atoms: C_13  and  C_15
REMARK    7  A    between atoms: C_22  and  C_23
REMARK    8  A    between atoms: C_22  and  C_24
REMARK                            x       y       z     vdW  Elec       q    Type
REMARK                         _______ _______ _______ _____ _____    ______ ____
ROOT
ATOM      1  C   UNL     1      -2.525   5.936 128.347  0.00  0.00    +0.000 C 
ATOM      2  C   UNL     1      -3.834   6.553 127.884  0.00  0.00    +0.000 C 
ATOM      3  O   UNL     1      -4.713   5.677 127.228  0.00  0.00    +0.000 OA
ATOM      4  C   UNL     1      -4.996   4.373 127.745  0.00  0.00    +0.000 C 
ATOM      5  O   UNL     1      -5.899   3.618 126.914  0.00  0.00    +0.000 OA
ATOM      6  C   UNL     1      -5.339   3.739 125.651  0.00  0.00    +0.000 C 
ATOM      7  C   UNL     1      -5.859   5.126 125.089  0.00  0.00    +0.000 C 
ATOM      8  C   UNL     1      -6.216   2.762 124.781  0.00  0.00    +0.000 C 
ATOM      9  O   UNL     1      -3.842   3.577 126.014  0.00  0.00    +0.000 OA
ATOM     10  C   UNL     1      -3.732   3.627 127.623  0.00  0.00    +0.000 C 
ATOM     11  C   UNL     1      -2.724   4.472 128.642  0.00  0.00    +0.000 C 
ATOM     12  O   UNL     1      -3.290   4.599 130.026  0.00  0.00    +0.000 OA
ATOM     13  C   UNL     1      -2.769   5.831 130.623  0.00  0.00    +0.000 C 
ATOM     14  C   UNL     1      -1.852   5.414 131.763  0.00  0.00    +0.000 C 
ATOM     15  C   UNL     1      -3.765   6.765 131.348  0.00  0.00    +0.000 C 
ATOM     16  O   UNL     1      -2.106   6.555 129.590  0.00  0.00    +0.000 OA
ENDROOT
BRANCH   4  17
ATOM     17  C   UNL     1      -5.864   4.342 128.930  0.00  0.00    +0.000 C 
BRANCH  17  18
ATOM     18  O   UNL     1      -7.057   3.637 128.813  0.00  0.00    +0.000 OA
BRANCH  18  19
ATOM     19  S   UNL     1      -8.364   4.536 129.081  0.00  0.00    +0.000 S 
ATOM     20  O   UNL     1      -9.427   3.665 129.472  0.00  0.00    +0.000 OA
ATOM     21  O   UNL     1      -8.004   5.739 129.810  0.00  0.00    +0.000 OA
BRANCH  19  22
ATOM     22  N   UNL     1      -8.569   5.090 127.526  0.00  0.00    +0.000 NA
ATOM     23  H   UNL     1      -9.291   5.803 127.484  0.00  0.00    +0.000 HD
ATOM     24  H   UNL     1      -8.821   4.255 126.991  0.00  0.00    +0.000 HD
ENDBRANCH  19  22
ENDBRANCH  18  19
ENDBRANCH  17  18
ENDBRANCH   4  17
TORSDOF 4
ENDMDL
MODEL 8
REMARK VINA RESULT:      -6.1      5.052      7.599
REMARK  Name = Topiramate
REMARK  8 active torsions:
REMARK  status: ('A' for Active; 'I' for Inactive)
REMARK    1  A    between atoms: C_5  and  C_6
REMARK    2  A    between atoms: C_6  and  O_7
REMARK    3  A    between atoms: O_7  and  S_8
REMARK    4  A    between atoms: S_8  and  N_9
REMARK    5  A    between atoms: C_13  and  C_14
REMARK    6  A    between atoms: C_13  and  C_15
REMARK    7  A    between atoms: C_22  and  C_23
REMARK    8  A    between atoms: C_22  and  C_24
REMARK                            x       y       z     vdW  Elec       q    Type
REMARK                         _______ _______ _______ _____ _____    ______ ____
ROOT
ATOM      1  C   UNL     1      -5.814  -1.375 126.584  0.00  0.00    +0.000 C 
ATOM      2  C   UNL     1      -7.030  -1.557 127.477  0.00  0.00    +0.000 C 
ATOM      3  O   UNL     1      -7.686  -0.374 127.850  0.00  0.00    +0.000 OA
ATOM      4  C   UNL     1      -7.987   0.649 126.896  0.00  0.00    +0.000 C 
ATOM      5  O   UNL     1      -8.635   1.796 127.480  0.00  0.00    +0.000 OA
ATOM      6  C   UNL     1      -7.825   2.097 128.564  0.00  0.00    +0.000 C 
ATOM      7  C   UNL     1      -8.303   1.135 129.729  0.00  0.00    +0.000 C 
ATOM      8  C   UNL     1      -8.427   3.456 129.086  0.00  0.00    +0.000 C 
ATOM      9  O   UNL     1      -6.435   1.878 127.918  0.00  0.00    +0.000 OA
ATOM     10  C   UNL     1      -6.679   1.185 126.481  0.00  0.00    +0.000 C 
ATOM     11  C   UNL     1      -5.974  -0.131 125.748  0.00  0.00    +0.000 C 
ATOM     12  O   UNL     1      -6.833  -0.705 124.659  0.00  0.00    +0.000 OA
ATOM     13  C   UNL     1      -6.537  -2.135 124.548  0.00  0.00    +0.000 C 
ATOM     14  C   UNL     1      -5.863  -2.340 123.199  0.00  0.00    +0.000 C 
ATOM     15  C   UNL     1      -7.726  -3.119 124.456  0.00  0.00    +0.000 C 
ATOM     16  O   UNL     1      -5.716  -2.487 125.658  0.00  0.00    +0.000 OA
ENDROOT
BRANCH   4  17
ATOM     17  C   UNL     1      -9.086   0.342 125.971  0.00  0.00    +0.000 C 
BRANCH  17  18
ATOM     18  O   UNL     1      -9.701   1.424 125.350  0.00  0.00    +0.000 OA
BRANCH  18  19
ATOM     19  S   UNL     1      -9.994   1.185 123.786  0.00  0.00    +0.000 S 
ATOM     20  O   UNL     1      -9.382   2.250 123.056  0.00  0.00    +0.000 OA
ATOM     21  O   UNL     1      -9.825  -0.217 123.453  0.00  0.00    +0.000 OA
BRANCH  19  22
ATOM     22  N   UNL     1     -11.648   1.357 123.846  0.00  0.00    +0.000 NA
ATOM     23  H   UNL     1     -11.944   2.205 123.372  0.00  0.00    +0.000 HD
ATOM     24  H   UNL     1     -11.864   1.378 124.845  0.00  0.00    +0.000 HD
ENDBRANCH  19  22
ENDBRANCH  18  19
ENDBRANCH  17  18
ENDBRANCH   4  17
TORSDOF 4
ENDMDL
MODEL 9
REMARK VINA RESULT:      -6.1      2.710      5.054
REMARK  Name = Topiramate
REMARK  8 active torsions:
REMARK  status: ('A' for Active; 'I' for Inactive)
REMARK    1  A    between atoms: C_5  and  C_6
REMARK    2  A    between atoms: C_6  and  O_7
REMARK    3  A    between atoms: O_7  and  S_8
REMARK    4  A    between atoms: S_8  and  N_9
REMARK    5  A    between atoms: C_13  and  C_14
REMARK    6  A    between atoms: C_13  and  C_15
REMARK    7  A    between atoms: C_22  and  C_23
REMARK    8  A    between atoms: C_22  and  C_24
REMARK                            x       y       z     vdW  Elec       q    Type
REMARK                         _______ _______ _______ _____ _____    ______ ____
ROOT
ATOM      1  C   UNL     1      -4.862   4.297 130.719  0.00  0.00    +0.000 C 
ATOM      2  C   UNL     1      -5.432   2.922 130.417  0.00  0.00    +0.000 C 
ATOM      3  O   UNL     1      -6.812   2.884 130.165  0.00  0.00    +0.000 OA
ATOM      4  C   UNL     1      -7.441   3.825 129.290  0.00  0.00    +0.000 C 
ATOM      5  O   UNL     1      -8.865   3.639 129.185  0.00  0.00    +0.000 OA
ATOM      6  C   UNL     1      -9.272   3.568 130.509  0.00  0.00    +0.000 C 
ATOM      7  C   UNL     1      -9.028   2.065 130.947  0.00  0.00    +0.000 C 
ATOM      8  C   UNL     1     -10.842   3.553 130.396  0.00  0.00    +0.000 C 
ATOM      9  O   UNL     1      -8.389   4.689 131.111  0.00  0.00    +0.000 OA
ATOM     10  C   UNL     1      -7.328   5.124 129.977  0.00  0.00    +0.000 C 
ATOM     11  C   UNL     1      -5.681   5.355 130.025  0.00  0.00    +0.000 C 
ATOM     12  O   UNL     1      -5.052   5.265 128.666  0.00  0.00    +0.000 OA
ATOM     13  C   UNL     1      -3.672   4.802 128.829  0.00  0.00    +0.000 C 
ATOM     14  C   UNL     1      -2.770   5.960 128.428  0.00  0.00    +0.000 C 
ATOM     15  C   UNL     1      -3.168   3.676 127.896  0.00  0.00    +0.000 C 
ATOM     16  O   UNL     1      -3.517   4.397 130.186  0.00  0.00    +0.000 OA
ENDROOT
BRANCH   4  17
ATOM     17  C   UNL     1      -7.183   3.621 127.858  0.00  0.00    +0.000 C 
BRANCH  17  18
ATOM     18  O   UNL     1      -8.295   3.562 127.025  0.00  0.00    +0.000 OA
BRANCH  18  19
ATOM     19  S   UNL     1      -8.233   4.598 125.796  0.00  0.00    +0.000 S 
ATOM     20  O   UNL     1      -8.363   3.852 124.584  0.00  0.00    +0.000 OA
ATOM     21  O   UNL     1      -9.017   5.781 126.097  0.00  0.00    +0.000 OA
BRANCH  19  22
ATOM     22  N   UNL     1      -6.670   5.117 126.028  0.00  0.00    +0.000 NA
ATOM     23  H   UNL     1      -6.049   4.735 125.322  0.00  0.00    +0.000 HD
ATOM     24  H   UNL     1      -6.432   4.791 126.968  0.00  0.00    +0.000 HD
ENDBRANCH  19  22
ENDBRANCH  18  19
ENDBRANCH  17  18
ENDBRANCH   4  17
TORSDOF 4
ENDMDL
