MODEL 1
REMARK VINA RESULT:      -9.3      0.000      0.000
REMARK  Name = Topotecan
REMARK  8 active torsions:
REMARK  status: ('A' for Active; 'I' for Inactive)
REMARK    1  A    between atoms: C_1  and  C_2
REMARK    2  A    between atoms: C_2  and  C_3
REMARK    3  A    between atoms: C_3  and  O_4
REMARK    4  A    between atoms: C_21  and  O_22
REMARK    5  A    between atoms: C_23  and  C_24
REMARK    6  A    between atoms: C_24  and  N_25
REMARK    7  A    between atoms: N_25  and  C_26
REMARK    8  A    between atoms: N_25  and  C_27
REMARK                            x       y       z     vdW  Elec       q    Type
REMARK                         _______ _______ _______ _____ _____    ______ ____
ROOT
ATOM      1  C   UNL     1      -5.894  -2.461 125.210  0.00  0.00    +0.000 C 
ATOM      2  C   UNL     1      -7.185  -3.148 124.532  0.00  0.00    +0.000 C 
ATOM      3  O   UNL     1      -7.368  -4.337 124.269  0.00  0.00    +0.000 OA
ATOM      4  O   UNL     1      -8.198  -2.298 124.331  0.00  0.00    +0.000 OA
ATOM      5  C   UNL     1      -8.917  -2.532 125.501  0.00  0.00    +0.000 C 
ATOM      6  C   UNL     1      -8.251  -1.669 126.451  0.00  0.00    +0.000 A 
ATOM      7  C   UNL     1      -6.954  -1.945 126.743  0.00  0.00    +0.000 A 
ATOM      8  C   UNL     1      -7.130  -1.286 128.380  0.00  0.00    +0.000 A 
ATOM      9  C   UNL     1      -7.855  -0.103 128.729  0.00  0.00    +0.000 A 
ATOM     10  N   UNL     1      -8.381   0.493 127.596  0.00  0.00    +0.000 N 
ATOM     11  C   UNL     1      -8.622   1.921 127.755  0.00  0.00    +0.000 C 
ATOM     12  C   UNL     1      -8.540   2.133 129.223  0.00  0.00    +0.000 A 
ATOM     13  C   UNL     1      -8.449   3.380 129.848  0.00  0.00    +0.000 A 
ATOM     14  C   UNL     1      -8.649   3.614 131.216  0.00  0.00    +0.000 A 
ATOM     15  C   UNL     1      -8.688   2.404 131.950  0.00  0.00    +0.000 A 
ATOM     16  C   UNL     1      -8.859   2.679 133.347  0.00  0.00    +0.000 A 
ATOM     17  C   UNL     1      -8.935   3.972 133.972  0.00  0.00    +0.000 A 
ATOM     18  C   UNL     1      -8.919   5.116 133.198  0.00  0.00    +0.000 A 
ATOM     19  C   UNL     1      -8.820   4.976 131.808  0.00  0.00    +0.000 A 
ATOM     20  N   UNL     1      -8.491   1.081 131.305  0.00  0.00    +0.000 NA
ATOM     21  C   UNL     1      -8.394   0.967 129.930  0.00  0.00    +0.000 A 
ATOM     22  C   UNL     1      -8.554  -0.176 126.391  0.00  0.00    +0.000 A 
ATOM     23  O   UNL     1      -8.905   0.342 125.389  0.00  0.00    +0.000 OA
ENDROOT
BRANCH   1  25
ATOM     24  C   UNL     1      -3.929  -4.656 123.731  0.00  0.00    +0.000 C 
ATOM     25  C   UNL     1      -5.116  -3.531 123.828  0.00  0.00    +0.000 C 
ENDBRANCH   1  25
BRANCH   1  26
ATOM     26  O   UNL     1      -5.520  -1.193 124.621  0.00  0.00    +0.000 OA
ATOM     27  H   UNL     1      -4.596  -1.279 124.308  0.00  0.00    +0.000 HD
ENDBRANCH   1  26
BRANCH  18  28
ATOM     28  O   UNL     1      -9.004   6.365 133.757  0.00  0.00    +0.000 OA
ATOM     29  H   UNL     1      -8.199   6.885 133.587  0.00  0.00    +0.000 HD
ENDBRANCH  18  28
BRANCH  19  30
ATOM     30  C   UNL     1      -8.948   6.295 130.999  0.00  0.00    +0.000 C 
BRANCH  30  31
ATOM     31  N   UNL     1     -10.318   6.778 130.802  0.00  0.00    +0.000 NA
ATOM     32  C   UNL     1     -10.457   7.644 129.628  0.00  0.00    +0.000 C 
ATOM     33  C   UNL     1     -11.328   5.734 130.779  0.00  0.00    +0.000 C 
ENDBRANCH  30  31
ENDBRANCH  19  30
TORSDOF 5
ENDMDL
MODEL 2
REMARK VINA RESULT:      -8.2      1.492      1.960
REMARK  Name = Topotecan
REMARK  8 active torsions:
REMARK  status: ('A' for Active; 'I' for Inactive)
REMARK    1  A    between atoms: C_1  and  C_2
REMARK    2  A    between atoms: C_2  and  C_3
REMARK    3  A    between atoms: C_3  and  O_4
REMARK    4  A    between atoms: C_21  and  O_22
REMARK    5  A    between atoms: C_23  and  C_24
REMARK    6  A    between atoms: C_24  and  N_25
REMARK    7  A    between atoms: N_25  and  C_26
REMARK    8  A    between atoms: N_25  and  C_27
REMARK                            x       y       z     vdW  Elec       q    Type
REMARK                         _______ _______ _______ _____ _____    ______ ____
ROOT
ATOM      1  C   UNL     1      -6.143  -2.493 125.222  0.00  0.00    +0.000 C 
ATOM      2  C   UNL     1      -7.378  -2.589 124.189  0.00  0.00    +0.000 C 
ATOM      3  O   UNL     1      -7.891  -3.599 123.705  0.00  0.00    +0.000 OA
ATOM      4  O   UNL     1      -7.944  -1.408 123.923  0.00  0.00    +0.000 OA
ATOM      5  C   UNL     1      -8.970  -1.438 124.865  0.00  0.00    +0.000 C 
ATOM      6  C   UNL     1      -8.308  -0.963 126.059  0.00  0.00    +0.000 A 
ATOM      7  C   UNL     1      -7.307  -1.730 126.565  0.00  0.00    +0.000 A 
ATOM      8  C   UNL     1      -7.650  -1.176 128.214  0.00  0.00    +0.000 A 
ATOM      9  C   UNL     1      -7.979   0.164 128.593  0.00  0.00    +0.000 A 
ATOM     10  N   UNL     1      -7.959   0.996 127.488  0.00  0.00    +0.000 N 
ATOM     11  C   UNL     1      -7.719   2.394 127.822  0.00  0.00    +0.000 C 
ATOM     12  C   UNL     1      -7.942   2.450 129.290  0.00  0.00    +0.000 A 
ATOM     13  C   UNL     1      -7.582   3.521 130.113  0.00  0.00    +0.000 A 
ATOM     14  C   UNL     1      -8.027   3.711 131.430  0.00  0.00    +0.000 A 
ATOM     15  C   UNL     1      -8.669   2.555 131.934  0.00  0.00    +0.000 A 
ATOM     16  C   UNL     1      -9.081   2.770 133.291  0.00  0.00    +0.000 A 
ATOM     17  C   UNL     1      -8.856   3.946 134.087  0.00  0.00    +0.000 A 
ATOM     18  C   UNL     1      -8.247   5.053 133.529  0.00  0.00    +0.000 A 
ATOM     19  C   UNL     1      -7.855   4.989 132.186  0.00  0.00    +0.000 A 
ATOM     20  N   UNL     1      -8.790   1.307 131.138  0.00  0.00    +0.000 NA
ATOM     21  C   UNL     1      -8.396   1.267 129.813  0.00  0.00    +0.000 A 
ATOM     22  C   UNL     1      -8.045   0.533 126.181  0.00  0.00    +0.000 A 
ATOM     23  O   UNL     1      -7.927   1.218 125.225  0.00  0.00    +0.000 OA
ENDROOT
BRANCH   1  25
ATOM     24  C   UNL     1      -4.117  -4.579 123.670  0.00  0.00    +0.000 C 
ATOM     25  C   UNL     1      -5.466  -3.673 123.877  0.00  0.00    +0.000 C 
ENDBRANCH   1  25
BRANCH   1  26
ATOM     26  O   UNL     1      -5.215  -1.421 124.938  0.00  0.00    +0.000 OA
ATOM     27  H   UNL     1      -5.745  -0.642 124.666  0.00  0.00    +0.000 HD
ENDBRANCH   1  26
BRANCH  18  28
ATOM     28  O   UNL     1      -8.028   6.197 134.254  0.00  0.00    +0.000 OA
ATOM     29  H   UNL     1      -7.509   6.845 133.746  0.00  0.00    +0.000 HD
ENDBRANCH  18  28
BRANCH  19  30
ATOM     30  C   UNL     1      -7.305   6.315 131.593  0.00  0.00    +0.000 C 
BRANCH  30  31
ATOM     31  N   UNL     1      -5.890   6.582 131.861  0.00  0.00    +0.000 NA
ATOM     32  C   UNL     1      -5.152   5.389 132.283  0.00  0.00    +0.000 C 
ATOM     33  C   UNL     1      -5.187   7.251 130.779  0.00  0.00    +0.000 C 
ENDBRANCH  30  31
ENDBRANCH  19  30
TORSDOF 5
ENDMDL
MODEL 3
REMARK VINA RESULT:      -8.1      5.345      7.696
REMARK  Name = Topotecan
REMARK  8 active torsions:
REMARK  status: ('A' for Active; 'I' for Inactive)
REMARK    1  A    between atoms: C_1  and  C_2
REMARK    2  A    between atoms: C_2  and  C_3
REMARK    3  A    between atoms: C_3  and  O_4
REMARK    4  A    between atoms: C_21  and  O_22
REMARK    5  A    between atoms: C_23  and  C_24
REMARK    6  A    between atoms: C_24  and  N_25
REMARK    7  A    between atoms: N_25  and  C_26
REMARK    8  A    between atoms: N_25  and  C_27
REMARK                            x       y       z     vdW  Elec       q    Type
REMARK                         _______ _______ _______ _____ _____    ______ ____
ROOT
ATOM      1  C   UNL     1      -7.098  -3.334 132.596  0.00  0.00    +0.000 C 
ATOM      2  C   UNL     1      -5.806  -4.292 132.487  0.00  0.00    +0.000 C 
ATOM      3  O   UNL     1      -5.689  -5.461 132.858  0.00  0.00    +0.000 OA
ATOM      4  O   UNL     1      -4.786  -3.740 131.822  0.00  0.00    +0.000 OA
ATOM      5  C   UNL     1      -5.047  -4.255 130.553  0.00  0.00    +0.000 C 
ATOM      6  C   UNL     1      -6.021  -3.321 130.034  0.00  0.00    +0.000 A 
ATOM      7  C   UNL     1      -7.220  -3.253 130.668  0.00  0.00    +0.000 A 
ATOM      8  C   UNL     1      -8.045  -2.801 129.164  0.00  0.00    +0.000 A 
ATOM      9  C   UNL     1      -7.543  -1.895 128.177  0.00  0.00    +0.000 A 
ATOM     10  N   UNL     1      -6.322  -1.378 128.574  0.00  0.00    +0.000 N 
ATOM     11  C   UNL     1      -6.017  -0.089 127.967  0.00  0.00    +0.000 C 
ATOM     12  C   UNL     1      -6.996   0.019 126.855  0.00  0.00    +0.000 A 
ATOM     13  C   UNL     1      -7.270   1.189 126.141  0.00  0.00    +0.000 A 
ATOM     14  C   UNL     1      -7.971   1.249 124.927  0.00  0.00    +0.000 A 
ATOM     15  C   UNL     1      -8.610   0.021 124.636  0.00  0.00    +0.000 A 
ATOM     16  C   UNL     1      -9.345   0.124 123.408  0.00  0.00    +0.000 A 
ATOM     17  C   UNL     1      -9.487   1.292 122.581  0.00  0.00    +0.000 A 
ATOM     18  C   UNL     1      -8.815   2.455 122.905  0.00  0.00    +0.000 A 
ATOM     19  C   UNL     1      -8.011   2.460 124.051  0.00  0.00    +0.000 A 
ATOM     20  N   UNL     1      -8.550  -1.141 125.559  0.00  0.00    +0.000 NA
ATOM     21  C   UNL     1      -7.749  -1.114 126.686  0.00  0.00    +0.000 A 
ATOM     22  C   UNL     1      -5.519  -1.970 129.540  0.00  0.00    +0.000 A 
ATOM     23  O   UNL     1      -4.525  -1.489 129.963  0.00  0.00    +0.000 OA
ENDROOT
BRANCH   1  25
ATOM     24  C   UNL     1      -7.981  -4.653 135.485  0.00  0.00    +0.000 C 
ATOM     25  C   UNL     1      -6.952  -4.035 134.370  0.00  0.00    +0.000 C 
ENDBRANCH   1  25
BRANCH   1  26
ATOM     26  O   UNL     1      -6.793  -1.969 132.967  0.00  0.00    +0.000 OA
ATOM     27  H   UNL     1      -7.583  -1.428 132.760  0.00  0.00    +0.000 HD
ENDBRANCH   1  26
BRANCH  18  28
ATOM     28  O   UNL     1      -8.916   3.584 122.133  0.00  0.00    +0.000 OA
ATOM     29  H   UNL     1      -9.801   3.666 121.738  0.00  0.00    +0.000 HD
ENDBRANCH  18  28
BRANCH  19  30
ATOM     30  C   UNL     1      -7.180   3.753 124.273  0.00  0.00    +0.000 C 
BRANCH  30  31
ATOM     31  N   UNL     1      -5.750   3.638 123.976  0.00  0.00    +0.000 NA
ATOM     32  C   UNL     1      -5.362   4.330 122.745  0.00  0.00    +0.000 C 
ATOM     33  C   UNL     1      -4.875   4.025 125.069  0.00  0.00    +0.000 C 
ENDBRANCH  30  31
ENDBRANCH  19  30
TORSDOF 5
ENDMDL
MODEL 4
REMARK VINA RESULT:      -8.0      4.485      6.355
REMARK  Name = Topotecan
REMARK  8 active torsions:
REMARK  status: ('A' for Active; 'I' for Inactive)
REMARK    1  A    between atoms: C_1  and  C_2
REMARK    2  A    between atoms: C_2  and  C_3
REMARK    3  A    between atoms: C_3  and  O_4
REMARK    4  A    between atoms: C_21  and  O_22
REMARK    5  A    between atoms: C_23  and  C_24
REMARK    6  A    between atoms: C_24  and  N_25
REMARK    7  A    between atoms: N_25  and  C_26
REMARK    8  A    between atoms: N_25  and  C_27
REMARK                            x       y       z     vdW  Elec       q    Type
REMARK                         _______ _______ _______ _____ _____    ______ ____
ROOT
ATOM      1  C   UNL     1      -6.385   3.337 121.888  0.00  0.00    +0.000 C 
ATOM      2  C   UNL     1      -7.845   3.558 121.240  0.00  0.00    +0.000 C 
ATOM      3  O   UNL     1      -8.188   3.417 120.065  0.00  0.00    +0.000 OA
ATOM      4  O   UNL     1      -8.792   3.838 122.141  0.00  0.00    +0.000 OA
ATOM      5  C   UNL     1      -9.282   2.551 122.353  0.00  0.00    +0.000 C 
ATOM      6  C   UNL     1      -8.362   2.027 123.337  0.00  0.00    +0.000 A 
ATOM      7  C   UNL     1      -7.064   1.880 122.962  0.00  0.00    +0.000 A 
ATOM      8  C   UNL     1      -6.848   0.512 124.069  0.00  0.00    +0.000 A 
ATOM      9  C   UNL     1      -7.373   0.422 125.398  0.00  0.00    +0.000 A 
ATOM     10  N   UNL     1      -8.055   1.580 125.726  0.00  0.00    +0.000 N 
ATOM     11  C   UNL     1      -8.124   1.822 127.161  0.00  0.00    +0.000 C 
ATOM     12  C   UNL     1      -7.731   0.520 127.758  0.00  0.00    +0.000 A 
ATOM     13  C   UNL     1      -7.400   0.323 129.102  0.00  0.00    +0.000 A 
ATOM     14  C   UNL     1      -7.300  -0.925 129.734  0.00  0.00    +0.000 A 
ATOM     15  C   UNL     1      -7.307  -1.984 128.797  0.00  0.00    +0.000 A 
ATOM     16  C   UNL     1      -7.169  -3.243 129.472  0.00  0.00    +0.000 A 
ATOM     17  C   UNL     1      -6.997  -3.452 130.884  0.00  0.00    +0.000 A 
ATOM     18  C   UNL     1      -7.027  -2.378 131.752  0.00  0.00    +0.000 A 
ATOM     19  C   UNL     1      -7.220  -1.098 131.217  0.00  0.00    +0.000 A 
ATOM     20  N   UNL     1      -7.368  -1.745 127.333  0.00  0.00    +0.000 NA
ATOM     21  C   UNL     1      -7.559  -0.472 126.827  0.00  0.00    +0.000 A 
ATOM     22  C   UNL     1      -8.527   2.483 124.781  0.00  0.00    +0.000 A 
ATOM     23  O   UNL     1      -9.020   3.524 125.046  0.00  0.00    +0.000 OA
ENDROOT
BRANCH   1  25
ATOM     24  C   UNL     1      -4.948   5.643 120.021  0.00  0.00    +0.000 C 
ATOM     25  C   UNL     1      -6.003   4.440 120.372  0.00  0.00    +0.000 C 
ENDBRANCH   1  25
BRANCH   1  26
ATOM     26  O   UNL     1      -6.017   4.333 122.872  0.00  0.00    +0.000 OA
ATOM     27  H   UNL     1      -5.531   3.870 123.586  0.00  0.00    +0.000 HD
ENDBRANCH   1  26
BRANCH  18  28
ATOM     28  O   UNL     1      -6.879  -2.541 133.105  0.00  0.00    +0.000 OA
ATOM     29  H   UNL     1      -6.010  -2.921 133.324  0.00  0.00    +0.000 HD
ENDBRANCH  18  28
BRANCH  19  30
ATOM     30  C   UNL     1      -7.381   0.039 132.263  0.00  0.00    +0.000 C 
BRANCH  30  31
ATOM     31  N   UNL     1      -6.138   0.488 132.896  0.00  0.00    +0.000 NA
ATOM     32  C   UNL     1      -5.296   1.286 132.003  0.00  0.00    +0.000 C 
ATOM     33  C   UNL     1      -6.322   1.175 134.163  0.00  0.00    +0.000 C 
ENDBRANCH  30  31
ENDBRANCH  19  30
TORSDOF 5
ENDMDL
MODEL 5
REMARK VINA RESULT:      -8.0      4.629      6.861
REMARK  Name = Topotecan
REMARK  8 active torsions:
REMARK  status: ('A' for Active; 'I' for Inactive)
REMARK    1  A    between atoms: C_1  and  C_2
REMARK    2  A    between atoms: C_2  and  C_3
REMARK    3  A    between atoms: C_3  and  O_4
REMARK    4  A    between atoms: C_21  and  O_22
REMARK    5  A    between atoms: C_23  and  C_24
REMARK    6  A    between atoms: C_24  and  N_25
REMARK    7  A    between atoms: N_25  and  C_26
REMARK    8  A    between atoms: N_25  and  C_27
REMARK                            x       y       z     vdW  Elec       q    Type
REMARK                         _______ _______ _______ _____ _____    ______ ____
ROOT
ATOM      1  C   UNL     1      -6.766   2.477 123.175  0.00  0.00    +0.000 C 
ATOM      2  C   UNL     1      -8.327   2.790 122.918  0.00  0.00    +0.000 C 
ATOM      3  O   UNL     1      -8.952   2.738 121.858  0.00  0.00    +0.000 OA
ATOM      4  O   UNL     1      -9.013   3.044 124.038  0.00  0.00    +0.000 OA
ATOM      5  C   UNL     1      -9.500   1.763 124.293  0.00  0.00    +0.000 C 
ATOM      6  C   UNL     1      -8.396   1.144 124.991  0.00  0.00    +0.000 A 
ATOM      7  C   UNL     1      -7.237   0.978 124.302  0.00  0.00    +0.000 A 
ATOM      8  C   UNL     1      -6.826  -0.467 125.246  0.00  0.00    +0.000 A 
ATOM      9  C   UNL     1      -7.017  -0.625 126.655  0.00  0.00    +0.000 A 
ATOM     10  N   UNL     1      -7.541   0.533 127.204  0.00  0.00    +0.000 N 
ATOM     11  C   UNL     1      -7.247   0.682 128.623  0.00  0.00    +0.000 C 
ATOM     12  C   UNL     1      -6.787  -0.669 129.033  0.00  0.00    +0.000 A 
ATOM     13  C   UNL     1      -6.149  -0.964 130.242  0.00  0.00    +0.000 A 
ATOM     14  C   UNL     1      -5.961  -2.253 130.761  0.00  0.00    +0.000 A 
ATOM     15  C   UNL     1      -6.247  -3.249 129.797  0.00  0.00    +0.000 A 
ATOM     16  C   UNL     1      -6.013  -4.553 130.348  0.00  0.00    +0.000 A 
ATOM     17  C   UNL     1      -5.513  -4.860 131.661  0.00  0.00    +0.000 A 
ATOM     18  C   UNL     1      -5.279  -3.844 132.567  0.00  0.00    +0.000 A 
ATOM     19  C   UNL     1      -5.532  -2.526 132.167  0.00  0.00    +0.000 A 
ATOM     20  N   UNL     1      -6.650  -2.912 128.408  0.00  0.00    +0.000 NA
ATOM     21  C   UNL     1      -6.894  -1.603 128.036  0.00  0.00    +0.000 A 
ATOM     22  C   UNL     1      -8.183   1.511 126.455  0.00  0.00    +0.000 A 
ATOM     23  O   UNL     1      -8.544   2.549 126.889  0.00  0.00    +0.000 OA
ENDROOT
BRANCH   1  25
ATOM     24  C   UNL     1      -5.576   4.152 120.598  0.00  0.00    +0.000 C 
ATOM     25  C   UNL     1      -6.710   3.662 121.675  0.00  0.00    +0.000 C 
ENDBRANCH   1  25
BRANCH   1  26
ATOM     26  O   UNL     1      -6.123   3.393 124.092  0.00  0.00    +0.000 OA
ATOM     27  H   UNL     1      -5.660   2.853 124.766  0.00  0.00    +0.000 HD
ENDBRANCH   1  26
BRANCH  18  28
ATOM     28  O   UNL     1      -4.815  -4.100 133.832  0.00  0.00    +0.000 OA
ATOM     29  H   UNL     1      -5.201  -4.918 134.192  0.00  0.00    +0.000 HD
ENDBRANCH  18  28
BRANCH  19  30
ATOM     30  C   UNL     1      -5.378  -1.455 133.281  0.00  0.00    +0.000 C 
BRANCH  30  31
ATOM     31  N   UNL     1      -4.039  -1.350 133.868  0.00  0.00    +0.000 NA
ATOM     32  C   UNL     1      -3.024  -0.917 132.906  0.00  0.00    +0.000 C 
ATOM     33  C   UNL     1      -3.971  -0.538 135.071  0.00  0.00    +0.000 C 
ENDBRANCH  30  31
ENDBRANCH  19  30
TORSDOF 5
ENDMDL
MODEL 6
REMARK VINA RESULT:      -7.9      5.728      7.144
REMARK  Name = Topotecan
REMARK  8 active torsions:
REMARK  status: ('A' for Active; 'I' for Inactive)
REMARK    1  A    between atoms: C_1  and  C_2
REMARK    2  A    between atoms: C_2  and  C_3
REMARK    3  A    between atoms: C_3  and  O_4
REMARK    4  A    between atoms: C_21  and  O_22
REMARK    5  A    between atoms: C_23  and  C_24
REMARK    6  A    between atoms: C_24  and  N_25
REMARK    7  A    between atoms: N_25  and  C_26
REMARK    8  A    between atoms: N_25  and  C_27
REMARK                            x       y       z     vdW  Elec       q    Type
REMARK                         _______ _______ _______ _____ _____    ______ ____
ROOT
ATOM      1  C   UNL     1      -8.660  -0.656 124.558  0.00  0.00    +0.000 C 
ATOM      2  C   UNL     1      -8.912  -1.976 123.665  0.00  0.00    +0.000 C 
ATOM      3  O   UNL     1      -8.615  -2.167 122.485  0.00  0.00    +0.000 OA
ATOM      4  O   UNL     1      -9.425  -2.998 124.357  0.00  0.00    +0.000 OA
ATOM      5  C   UNL     1      -8.243  -3.663 124.676  0.00  0.00    +0.000 C 
ATOM      6  C   UNL     1      -7.800  -2.957 125.858  0.00  0.00    +0.000 A 
ATOM      7  C   UNL     1      -7.470  -1.647 125.715  0.00  0.00    +0.000 A 
ATOM      8  C   UNL     1      -6.286  -1.751 127.031  0.00  0.00    +0.000 A 
ATOM      9  C   UNL     1      -6.464  -2.463 128.260  0.00  0.00    +0.000 A 
ATOM     10  N   UNL     1      -7.721  -3.040 128.305  0.00  0.00    +0.000 N 
ATOM     11  C   UNL     1      -8.199  -3.278 129.660  0.00  0.00    +0.000 C 
ATOM     12  C   UNL     1      -6.980  -3.130 130.496  0.00  0.00    +0.000 A 
ATOM     13  C   UNL     1      -6.974  -3.014 131.889  0.00  0.00    +0.000 A 
ATOM     14  C   UNL     1      -5.842  -3.153 132.706  0.00  0.00    +0.000 A 
ATOM     15  C   UNL     1      -4.649  -3.156 131.945  0.00  0.00    +0.000 A 
ATOM     16  C   UNL     1      -3.510  -3.264 132.810  0.00  0.00    +0.000 A 
ATOM     17  C   UNL     1      -3.518  -3.315 134.247  0.00  0.00    +0.000 A 
ATOM     18  C   UNL     1      -4.717  -3.337 134.932  0.00  0.00    +0.000 A 
ATOM     19  C   UNL     1      -5.905  -3.300 134.193  0.00  0.00    +0.000 A 
ATOM     20  N   UNL     1      -4.652  -2.985 130.469  0.00  0.00    +0.000 NA
ATOM     21  C   UNL     1      -5.838  -2.950 129.759  0.00  0.00    +0.000 A 
ATOM     22  C   UNL     1      -8.499  -3.266 127.176  0.00  0.00    +0.000 A 
ATOM     23  O   UNL     1      -9.612  -3.663 127.206  0.00  0.00    +0.000 OA
ENDROOT
BRANCH   1  25
ATOM     24  C   UNL     1      -9.762   1.556 122.376  0.00  0.00    +0.000 C 
ATOM     25  C   UNL     1      -9.459   0.061 122.974  0.00  0.00    +0.000 C 
ENDBRANCH   1  25
BRANCH   1  26
ATOM     26  O   UNL     1      -9.763  -0.313 125.430  0.00  0.00    +0.000 OA
ATOM     27  H   UNL     1      -9.940  -1.093 125.995  0.00  0.00    +0.000 HD
ENDBRANCH   1  26
BRANCH  18  28
ATOM     28  O   UNL     1      -4.763  -3.399 136.301  0.00  0.00    +0.000 OA
ATOM     29  H   UNL     1      -3.925  -3.729 136.670  0.00  0.00    +0.000 HD
ENDBRANCH  18  28
BRANCH  19  30
ATOM     30  C   UNL     1      -7.207  -3.467 135.022  0.00  0.00    +0.000 C 
BRANCH  30  31
ATOM     31  N   UNL     1      -7.240  -4.635 135.907  0.00  0.00    +0.000 NA
ATOM     32  C   UNL     1      -8.391  -4.635 136.813  0.00  0.00    +0.000 C 
ATOM     33  C   UNL     1      -7.139  -5.913 135.222  0.00  0.00    +0.000 C 
ENDBRANCH  30  31
ENDBRANCH  19  30
TORSDOF 5
ENDMDL
MODEL 7
REMARK VINA RESULT:      -7.8      5.800      9.360
REMARK  Name = Topotecan
REMARK  8 active torsions:
REMARK  status: ('A' for Active; 'I' for Inactive)
REMARK    1  A    between atoms: C_1  and  C_2
REMARK    2  A    between atoms: C_2  and  C_3
REMARK    3  A    between atoms: C_3  and  O_4
REMARK    4  A    between atoms: C_21  and  O_22
REMARK    5  A    between atoms: C_23  and  C_24
REMARK    6  A    between atoms: C_24  and  N_25
REMARK    7  A    between atoms: N_25  and  C_26
REMARK    8  A    between atoms: N_25  and  C_27
REMARK                            x       y       z     vdW  Elec       q    Type
REMARK                         _______ _______ _______ _____ _____    ______ ____
ROOT
ATOM      1  C   UNL     1     -11.982   8.522 130.202  0.00  0.00    +0.000 C 
ATOM      2  C   UNL     1     -12.477   8.084 128.731  0.00  0.00    +0.000 C 
ATOM      3  O   UNL     1     -12.701   8.802 127.756  0.00  0.00    +0.000 OA
ATOM      4  O   UNL     1     -12.551   6.759 128.565  0.00  0.00    +0.000 OA
ATOM      5  C   UNL     1     -11.293   6.537 128.009  0.00  0.00    +0.000 C 
ATOM      6  C   UNL     1     -10.448   6.442 129.178  0.00  0.00    +0.000 A 
ATOM      7  C   UNL     1     -10.328   7.553 129.952  0.00  0.00    +0.000 A 
ATOM      8  C   UNL     1      -8.689   7.090 130.446  0.00  0.00    +0.000 A 
ATOM      9  C   UNL     1      -8.258   5.765 130.773  0.00  0.00    +0.000 A 
ATOM     10  N   UNL     1      -9.318   4.879 130.688  0.00  0.00    +0.000 N 
ATOM     11  C   UNL     1      -9.143   3.690 131.511  0.00  0.00    +0.000 C 
ATOM     12  C   UNL     1      -7.701   3.714 131.866  0.00  0.00    +0.000 A 
ATOM     13  C   UNL     1      -7.107   2.922 132.853  0.00  0.00    +0.000 A 
ATOM     14  C   UNL     1      -5.726   2.730 133.010  0.00  0.00    +0.000 A 
ATOM     15  C   UNL     1      -4.982   3.643 132.228  0.00  0.00    +0.000 A 
ATOM     16  C   UNL     1      -3.577   3.444 132.437  0.00  0.00    +0.000 A 
ATOM     17  C   UNL     1      -2.961   2.504 133.334  0.00  0.00    +0.000 A 
ATOM     18  C   UNL     1      -3.742   1.619 134.052  0.00  0.00    +0.000 A 
ATOM     19  C   UNL     1      -5.131   1.673 133.884  0.00  0.00    +0.000 A 
ATOM     20  N   UNL     1      -5.634   4.686 131.394  0.00  0.00    +0.000 NA
ATOM     21  C   UNL     1      -7.008   4.720 131.244  0.00  0.00    +0.000 A 
ATOM     22  C   UNL     1     -10.483   5.146 129.979  0.00  0.00    +0.000 A 
ATOM     23  O   UNL     1     -11.435   4.447 129.980  0.00  0.00    +0.000 OA
ENDROOT
BRANCH   1  25
ATOM     24  C   UNL     1     -13.703  11.327 130.014  0.00  0.00    +0.000 C 
ATOM     25  C   UNL     1     -13.443   9.714 129.884  0.00  0.00    +0.000 C 
ENDBRANCH   1  25
BRANCH   1  26
ATOM     26  O   UNL     1     -12.627   7.806 131.281  0.00  0.00    +0.000 OA
ATOM     27  H   UNL     1     -12.814   8.455 131.991  0.00  0.00    +0.000 HD
ENDBRANCH   1  26
BRANCH  18  28
ATOM     28  O   UNL     1      -3.189   0.701 134.907  0.00  0.00    +0.000 OA
ATOM     29  H   UNL     1      -3.456  -0.206 134.674  0.00  0.00    +0.000 HD
ENDBRANCH  18  28
BRANCH  19  30
ATOM     30  C   UNL     1      -5.930   0.559 134.615  0.00  0.00    +0.000 C 
BRANCH  30  31
ATOM     31  N   UNL     1      -5.808  -0.781 134.035  0.00  0.00    +0.000 NA
ATOM     32  C   UNL     1      -5.981  -1.850 135.022  0.00  0.00    +0.000 C 
ATOM     33  C   UNL     1      -6.660  -1.019 132.882  0.00  0.00    +0.000 C 
ENDBRANCH  30  31
ENDBRANCH  19  30
TORSDOF 5
ENDMDL
MODEL 8
REMARK VINA RESULT:      -7.8      5.422      9.277
REMARK  Name = Topotecan
REMARK  8 active torsions:
REMARK  status: ('A' for Active; 'I' for Inactive)
REMARK    1  A    between atoms: C_1  and  C_2
REMARK    2  A    between atoms: C_2  and  C_3
REMARK    3  A    between atoms: C_3  and  O_4
REMARK    4  A    between atoms: C_21  and  O_22
REMARK    5  A    between atoms: C_23  and  C_24
REMARK    6  A    between atoms: C_24  and  N_25
REMARK    7  A    between atoms: N_25  and  C_26
REMARK    8  A    between atoms: N_25  and  C_27
REMARK                            x       y       z     vdW  Elec       q    Type
REMARK                         _______ _______ _______ _____ _____    ______ ____
ROOT
ATOM      1  C   UNL     1     -10.211   5.869 129.561  0.00  0.00    +0.000 C 
ATOM      2  C   UNL     1     -10.653   6.785 130.813  0.00  0.00    +0.000 C 
ATOM      3  O   UNL     1     -11.731   7.347 131.004  0.00  0.00    +0.000 OA
ATOM      4  O   UNL     1      -9.736   6.838 131.785  0.00  0.00    +0.000 OA
ATOM      5  C   UNL     1     -10.218   5.814 132.598  0.00  0.00    +0.000 C 
ATOM      6  C   UNL     1      -9.645   4.636 131.987  0.00  0.00    +0.000 A 
ATOM      7  C   UNL     1     -10.042   4.333 130.724  0.00  0.00    +0.000 A 
ATOM      8  C   UNL     1      -9.799   2.600 131.010  0.00  0.00    +0.000 A 
ATOM      9  C   UNL     1      -8.707   2.018 131.730  0.00  0.00    +0.000 A 
ATOM     10  N   UNL     1      -7.828   3.001 132.150  0.00  0.00    +0.000 N 
ATOM     11  C   UNL     1      -6.474   2.510 132.367  0.00  0.00    +0.000 C 
ATOM     12  C   UNL     1      -6.634   1.033 132.394  0.00  0.00    +0.000 A 
ATOM     13  C   UNL     1      -5.584   0.113 132.321  0.00  0.00    +0.000 A 
ATOM     14  C   UNL     1      -5.685  -1.253 132.621  0.00  0.00    +0.000 A 
ATOM     15  C   UNL     1      -7.035  -1.658 132.748  0.00  0.00    +0.000 A 
ATOM     16  C   UNL     1      -7.105  -3.065 133.020  0.00  0.00    +0.000 A 
ATOM     17  C   UNL     1      -6.003  -3.984 133.112  0.00  0.00    +0.000 A 
ATOM     18  C   UNL     1      -4.706  -3.522 133.006  0.00  0.00    +0.000 A 
ATOM     19  C   UNL     1      -4.504  -2.152 132.802  0.00  0.00    +0.000 A 
ATOM     20  N   UNL     1      -8.166  -0.720 132.535  0.00  0.00    +0.000 NA
ATOM     21  C   UNL     1      -7.942   0.630 132.334  0.00  0.00    +0.000 A 
ATOM     22  C   UNL     1      -8.172   4.344 132.246  0.00  0.00    +0.000 A 
ATOM     23  O   UNL     1      -7.408   5.208 132.504  0.00  0.00    +0.000 OA
ENDROOT
BRANCH   1  25
ATOM     24  C   UNL     1     -11.075   7.964 127.167  0.00  0.00    +0.000 C 
ATOM     25  C   UNL     1     -10.942   7.416 128.705  0.00  0.00    +0.000 C 
ENDBRANCH   1  25
BRANCH   1  26
ATOM     26  O   UNL     1      -8.855   6.096 129.110  0.00  0.00    +0.000 OA
ATOM     27  H   UNL     1      -8.787   7.040 128.857  0.00  0.00    +0.000 HD
ENDBRANCH   1  26
BRANCH  18  28
ATOM     28  O   UNL     1      -3.630  -4.367 133.102  0.00  0.00    +0.000 OA
ATOM     29  H   UNL     1      -2.790  -3.878 133.059  0.00  0.00    +0.000 HD
ENDBRANCH  18  28
BRANCH  19  30
ATOM     30  C   UNL     1      -3.022  -1.689 132.833  0.00  0.00    +0.000 C 
BRANCH  30  31
ATOM     31  N   UNL     1      -2.367  -1.771 134.141  0.00  0.00    +0.000 NA
ATOM     32  C   UNL     1      -0.947  -1.413 134.095  0.00  0.00    +0.000 C 
ATOM     33  C   UNL     1      -3.038  -1.033 135.198  0.00  0.00    +0.000 C 
ENDBRANCH  30  31
ENDBRANCH  19  30
TORSDOF 5
ENDMDL
MODEL 9
REMARK VINA RESULT:      -7.7      4.169      9.204
REMARK  Name = Topotecan
REMARK  8 active torsions:
REMARK  status: ('A' for Active; 'I' for Inactive)
REMARK    1  A    between atoms: C_1  and  C_2
REMARK    2  A    between atoms: C_2  and  C_3
REMARK    3  A    between atoms: C_3  and  O_4
REMARK    4  A    between atoms: C_21  and  O_22
REMARK    5  A    between atoms: C_23  and  C_24
REMARK    6  A    between atoms: C_24  and  N_25
REMARK    7  A    between atoms: N_25  and  C_26
REMARK    8  A    between atoms: N_25  and  C_27
REMARK                            x       y       z     vdW  Elec       q    Type
REMARK                         _______ _______ _______ _____ _____    ______ ____
ROOT
ATOM      1  C   UNL     1     -11.278   5.733 129.616  0.00  0.00    +0.000 C 
ATOM      2  C   UNL     1     -11.116   6.848 130.771  0.00  0.00    +0.000 C 
ATOM      3  O   UNL     1     -11.991   7.545 131.286  0.00  0.00    +0.000 OA
ATOM      4  O   UNL     1      -9.877   6.928 131.266  0.00  0.00    +0.000 OA
ATOM      5  C   UNL     1     -10.022   6.079 132.361  0.00  0.00    +0.000 C 
ATOM      6  C   UNL     1      -9.809   4.776 131.774  0.00  0.00    +0.000 A 
ATOM      7  C   UNL     1     -10.709   4.355 130.847  0.00  0.00    +0.000 A 
ATOM      8  C   UNL     1     -10.447   2.658 131.293  0.00  0.00    +0.000 A 
ATOM      9  C   UNL     1      -9.182   2.060 131.595  0.00  0.00    +0.000 A 
ATOM     10  N   UNL     1      -8.165   2.988 131.456  0.00  0.00    +0.000 N 
ATOM     11  C   UNL     1      -6.867   2.385 131.185  0.00  0.00    +0.000 C 
ATOM     12  C   UNL     1      -7.067   0.951 131.517  0.00  0.00    +0.000 A 
ATOM     13  C   UNL     1      -6.185  -0.080 131.178  0.00  0.00    +0.000 A 
ATOM     14  C   UNL     1      -6.214  -1.375 131.714  0.00  0.00    +0.000 A 
ATOM     15  C   UNL     1      -7.405  -1.611 132.440  0.00  0.00    +0.000 A 
ATOM     16  C   UNL     1      -7.420  -2.953 132.945  0.00  0.00    +0.000 A 
ATOM     17  C   UNL     1      -6.422  -3.967 132.734  0.00  0.00    +0.000 A 
ATOM     18  C   UNL     1      -5.267  -3.667 132.039  0.00  0.00    +0.000 A 
ATOM     19  C   UNL     1      -5.106  -2.366 131.548  0.00  0.00    +0.000 A 
ATOM     20  N   UNL     1      -8.479  -0.591 132.551  0.00  0.00    +0.000 NA
ATOM     21  C   UNL     1      -8.299   0.689 132.058  0.00  0.00    +0.000 A 
ATOM     22  C   UNL     1      -8.377   4.361 131.460  0.00  0.00    +0.000 A 
ATOM     23  O   UNL     1      -7.537   5.163 131.241  0.00  0.00    +0.000 OA
ENDROOT
BRANCH   1  25
ATOM     24  C   UNL     1     -13.415   7.443 127.780  0.00  0.00    +0.000 C 
ATOM     25  C   UNL     1     -12.227   7.225 128.887  0.00  0.00    +0.000 C 
ENDBRANCH   1  25
BRANCH   1  26
ATOM     26  O   UNL     1     -10.223   5.750 128.626  0.00  0.00    +0.000 OA
ATOM     27  H   UNL     1     -10.649   5.861 127.750  0.00  0.00    +0.000 HD
ENDBRANCH   1  26
BRANCH  18  28
ATOM     28  O   UNL     1      -4.288  -4.605 131.830  0.00  0.00    +0.000 OA
ATOM     29  H   UNL     1      -4.122  -5.129 132.633  0.00  0.00    +0.000 HD
ENDBRANCH  18  28
BRANCH  19  30
ATOM     30  C   UNL     1      -3.727  -2.067 130.901  0.00  0.00    +0.000 C 
BRANCH  30  31
ATOM     31  N   UNL     1      -3.628  -2.369 129.470  0.00  0.00    +0.000 NA
ATOM     32  C   UNL     1      -2.813  -3.554 129.190  0.00  0.00    +0.000 C 
ATOM     33  C   UNL     1      -4.905  -2.463 128.784  0.00  0.00    +0.000 C 
ENDBRANCH  30  31
ENDBRANCH  19  30
TORSDOF 5
ENDMDL
