MODEL 1
REMARK VINA RESULT:      -7.8      0.000      0.000
REMARK  Name = Torasemide
REMARK  8 active torsions:
REMARK  status: ('A' for Active; 'I' for Inactive)
REMARK    1  A    between atoms: C_1  and  C_2
REMARK    2  A    between atoms: C_2  and  C_3
REMARK    3  A    between atoms: C_2  and  N_4
REMARK    4  A    between atoms: N_7  and  S_8
REMARK    5  A    between atoms: S_8  and  C_11
REMARK    6  A    between atoms: C_12  and  N_13
REMARK    7  A    between atoms: N_13  and  C_14
REMARK    8  A    between atoms: C_18  and  C_19
REMARK                            x       y       z     vdW  Elec       q    Type
REMARK                         _______ _______ _______ _____ _____    ______ ____
ROOT
ATOM      1  C   UNL     1      -6.951   3.413 122.989  0.00  0.00    +0.000 A 
ATOM      2  C   UNL     1      -6.019   4.033 123.861  0.00  0.00    +0.000 A 
ATOM      3  C   UNL     1      -4.894   4.651 123.244  0.00  0.00    +0.000 A 
ATOM      4  C   UNL     1      -4.772   4.686 121.860  0.00  0.00    +0.000 A 
ATOM      5  N   UNL     1      -5.694   4.179 121.033  0.00  0.00    +0.000 NA
ATOM      6  C   UNL     1      -6.761   3.578 121.613  0.00  0.00    +0.000 A 
ENDROOT
BRANCH   1   7
ATOM      7  S   UNL     1      -8.463   2.506 123.384  0.00  0.00    +0.000 S 
ATOM      8  O   UNL     1      -9.279   2.516 122.178  0.00  0.00    +0.000 OA
ATOM      9  O   UNL     1      -9.013   3.109 124.563  0.00  0.00    +0.000 OA
BRANCH   7  13
ATOM     10  N   UNL     1      -8.328  -1.403 124.344  0.00  0.00    +0.000 N 
ATOM     11  C   UNL     1      -8.856  -0.196 123.849  0.00  0.00    +0.000 C 
ATOM     12  O   UNL     1     -10.063  -0.055 123.734  0.00  0.00    +0.000 OA
ATOM     13  N   UNL     1      -7.951   0.868 123.592  0.00  0.00    +0.000 N 
ATOM     14  H   UNL     1      -7.334  -1.501 124.499  0.00  0.00    +0.000 HD
ATOM     15  H   UNL     1      -6.956   0.750 123.718  0.00  0.00    +0.000 HD
BRANCH  10  17
ATOM     16  C   UNL     1      -9.500  -3.553 123.709  0.00  0.00    +0.000 C 
ATOM     17  C   UNL     1      -9.215  -2.517 124.805  0.00  0.00    +0.000 C 
ATOM     18  C   UNL     1      -8.708  -3.306 126.029  0.00  0.00    +0.000 C 
ENDBRANCH  10  17
ENDBRANCH   7  13
ENDBRANCH   1   7
BRANCH   2  19
ATOM     19  N   UNL     1      -6.038   4.099 125.283  0.00  0.00    +0.000 N 
ATOM     20  H   UNL     1      -6.929   3.920 125.737  0.00  0.00    +0.000 HD
BRANCH  19  21
ATOM     21  C   UNL     1      -4.961   4.142 126.178  0.00  0.00    +0.000 A 
ATOM     22  C   UNL     1      -4.954   5.139 127.132  0.00  0.00    +0.000 A 
ATOM     23  C   UNL     1      -3.770   5.458 127.782  0.00  0.00    +0.000 A 
ATOM     24  C   UNL     1      -2.590   4.797 127.532  0.00  0.00    +0.000 A 
ATOM     25  C   UNL     1      -2.643   3.639 126.778  0.00  0.00    +0.000 A 
ATOM     26  C   UNL     1      -1.405   2.811 126.706  0.00  0.00    +0.000 C 
ATOM     27  C   UNL     1      -3.842   3.298 126.104  0.00  0.00    +0.000 A 
ENDBRANCH  19  21
ENDBRANCH   2  19
TORSDOF 5
ENDMDL
MODEL 2
REMARK VINA RESULT:      -7.6      3.285      7.023
REMARK  Name = Torasemide
REMARK  8 active torsions:
REMARK  status: ('A' for Active; 'I' for Inactive)
REMARK    1  A    between atoms: C_1  and  C_2
REMARK    2  A    between atoms: C_2  and  C_3
REMARK    3  A    between atoms: C_2  and  N_4
REMARK    4  A    between atoms: N_7  and  S_8
REMARK    5  A    between atoms: S_8  and  C_11
REMARK    6  A    between atoms: C_12  and  N_13
REMARK    7  A    between atoms: N_13  and  C_14
REMARK    8  A    between atoms: C_18  and  C_19
REMARK                            x       y       z     vdW  Elec       q    Type
REMARK                         _______ _______ _______ _____ _____    ______ ____
ROOT
ATOM      1  C   UNL     1      -8.584  -0.644 125.089  0.00  0.00    +0.000 A 
ATOM      2  C   UNL     1      -8.477  -1.616 126.118  0.00  0.00    +0.000 A 
ATOM      3  C   UNL     1      -8.910  -2.932 125.788  0.00  0.00    +0.000 A 
ATOM      4  C   UNL     1      -9.349  -3.235 124.505  0.00  0.00    +0.000 A 
ATOM      5  N   UNL     1      -9.368  -2.341 123.509  0.00  0.00    +0.000 NA
ATOM      6  C   UNL     1      -8.970  -1.084 123.819  0.00  0.00    +0.000 A 
ENDROOT
BRANCH   1   7
ATOM      7  S   UNL     1      -8.180   1.117 125.129  0.00  0.00    +0.000 S 
ATOM      8  O   UNL     1      -7.274   1.308 126.253  0.00  0.00    +0.000 OA
ATOM      9  O   UNL     1      -9.425   1.828 125.152  0.00  0.00    +0.000 OA
BRANCH   7  13
ATOM     10  N   UNL     1      -6.405   2.807 121.934  0.00  0.00    +0.000 N 
ATOM     11  C   UNL     1      -6.864   2.678 123.258  0.00  0.00    +0.000 C 
ATOM     12  O   UNL     1      -7.019   3.669 123.955  0.00  0.00    +0.000 OA
ATOM     13  N   UNL     1      -7.231   1.383 123.709  0.00  0.00    +0.000 N 
ATOM     14  H   UNL     1      -6.335   1.997 121.336  0.00  0.00    +0.000 HD
ATOM     15  H   UNL     1      -7.126   0.572 123.116  0.00  0.00    +0.000 HD
BRANCH  10  17
ATOM     16  C   UNL     1      -4.697   4.603 121.423  0.00  0.00    +0.000 C 
ATOM     17  C   UNL     1      -6.160   4.149 121.316  0.00  0.00    +0.000 C 
ATOM     18  C   UNL     1      -6.547   4.276 119.829  0.00  0.00    +0.000 C 
ENDBRANCH  10  17
ENDBRANCH   7  13
ENDBRANCH   1   7
BRANCH   2  19
ATOM     19  N   UNL     1      -8.019  -1.450 127.456  0.00  0.00    +0.000 N 
ATOM     20  H   UNL     1      -8.439  -0.697 127.992  0.00  0.00    +0.000 HD
BRANCH  19  21
ATOM     21  C   UNL     1      -7.241  -2.317 128.236  0.00  0.00    +0.000 A 
ATOM     22  C   UNL     1      -7.864  -2.990 129.266  0.00  0.00    +0.000 A 
ATOM     23  C   UNL     1      -7.100  -3.551 130.279  0.00  0.00    +0.000 A 
ATOM     24  C   UNL     1      -5.725  -3.486 130.289  0.00  0.00    +0.000 A 
ATOM     25  C   UNL     1      -5.089  -3.045 129.143  0.00  0.00    +0.000 A 
ATOM     26  C   UNL     1      -3.607  -3.194 129.081  0.00  0.00    +0.000 C 
ATOM     27  C   UNL     1      -5.852  -2.466 128.099  0.00  0.00    +0.000 A 
ENDBRANCH  19  21
ENDBRANCH   2  19
TORSDOF 5
ENDMDL
MODEL 3
REMARK VINA RESULT:      -7.6      2.631      7.054
REMARK  Name = Torasemide
REMARK  8 active torsions:
REMARK  status: ('A' for Active; 'I' for Inactive)
REMARK    1  A    between atoms: C_1  and  C_2
REMARK    2  A    between atoms: C_2  and  C_3
REMARK    3  A    between atoms: C_2  and  N_4
REMARK    4  A    between atoms: N_7  and  S_8
REMARK    5  A    between atoms: S_8  and  C_11
REMARK    6  A    between atoms: C_12  and  N_13
REMARK    7  A    between atoms: N_13  and  C_14
REMARK    8  A    between atoms: C_18  and  C_19
REMARK                            x       y       z     vdW  Elec       q    Type
REMARK                         _______ _______ _______ _____ _____    ______ ____
ROOT
ATOM      1  C   UNL     1      -8.242   2.270 125.353  0.00  0.00    +0.000 A 
ATOM      2  C   UNL     1      -8.377   2.209 123.942  0.00  0.00    +0.000 A 
ATOM      3  C   UNL     1      -8.563   0.913 123.382  0.00  0.00    +0.000 A 
ATOM      4  C   UNL     1      -8.669  -0.206 124.199  0.00  0.00    +0.000 A 
ATOM      5  N   UNL     1      -8.630  -0.141 125.536  0.00  0.00    +0.000 NA
ATOM      6  C   UNL     1      -8.439   1.088 126.075  0.00  0.00    +0.000 A 
ENDROOT
BRANCH   1   7
ATOM      7  S   UNL     1      -7.957   3.702 126.417  0.00  0.00    +0.000 S 
ATOM      8  O   UNL     1      -8.591   3.402 127.693  0.00  0.00    +0.000 OA
ATOM      9  O   UNL     1      -8.423   4.852 125.698  0.00  0.00    +0.000 OA
BRANCH   7  13
ATOM     10  N   UNL     1      -4.272   4.610 127.765  0.00  0.00    +0.000 N 
ATOM     11  C   UNL     1      -5.663   4.393 127.805  0.00  0.00    +0.000 C 
ATOM     12  O   UNL     1      -6.334   4.874 128.704  0.00  0.00    +0.000 OA
ATOM     13  N   UNL     1      -6.255   3.691 126.723  0.00  0.00    +0.000 N 
ATOM     14  H   UNL     1      -3.723   4.265 126.990  0.00  0.00    +0.000 HD
ATOM     15  H   UNL     1      -5.695   3.321 125.968  0.00  0.00    +0.000 HD
BRANCH  10  17
ATOM     16  C   UNL     1      -3.007   4.697 129.955  0.00  0.00    +0.000 C 
ATOM     17  C   UNL     1      -3.585   5.482 128.768  0.00  0.00    +0.000 C 
ATOM     18  C   UNL     1      -2.434   6.349 128.217  0.00  0.00    +0.000 C 
ENDBRANCH  10  17
ENDBRANCH   7  13
ENDBRANCH   1   7
BRANCH   2  19
ATOM     19  N   UNL     1      -8.321   3.271 122.995  0.00  0.00    +0.000 N 
ATOM     20  H   UNL     1      -8.914   4.076 123.177  0.00  0.00    +0.000 HD
BRANCH  19  21
ATOM     21  C   UNL     1      -7.396   3.487 121.965  0.00  0.00    +0.000 A 
ATOM     22  C   UNL     1      -6.060   3.552 122.303  0.00  0.00    +0.000 A 
ATOM     23  C   UNL     1      -5.156   4.124 121.419  0.00  0.00    +0.000 A 
ATOM     24  C   UNL     1      -5.535   4.614 120.191  0.00  0.00    +0.000 A 
ATOM     25  C   UNL     1      -6.810   4.323 119.742  0.00  0.00    +0.000 A 
ATOM     26  C   UNL     1      -7.132   4.660 118.326  0.00  0.00    +0.000 C 
ATOM     27  C   UNL     1      -7.748   3.742 120.631  0.00  0.00    +0.000 A 
ENDBRANCH  19  21
ENDBRANCH   2  19
TORSDOF 5
ENDMDL
MODEL 4
REMARK VINA RESULT:      -7.5      3.252      5.482
REMARK  Name = Torasemide
REMARK  8 active torsions:
REMARK  status: ('A' for Active; 'I' for Inactive)
REMARK    1  A    between atoms: C_1  and  C_2
REMARK    2  A    between atoms: C_2  and  C_3
REMARK    3  A    between atoms: C_2  and  N_4
REMARK    4  A    between atoms: N_7  and  S_8
REMARK    5  A    between atoms: S_8  and  C_11
REMARK    6  A    between atoms: C_12  and  N_13
REMARK    7  A    between atoms: N_13  and  C_14
REMARK    8  A    between atoms: C_18  and  C_19
REMARK                            x       y       z     vdW  Elec       q    Type
REMARK                         _______ _______ _______ _____ _____    ______ ____
ROOT
ATOM      1  C   UNL     1      -7.938   1.254 124.443  0.00  0.00    +0.000 A 
ATOM      2  C   UNL     1      -7.386   2.423 123.860  0.00  0.00    +0.000 A 
ATOM      3  C   UNL     1      -7.421   3.602 124.658  0.00  0.00    +0.000 A 
ATOM      4  C   UNL     1      -7.915   3.567 125.956  0.00  0.00    +0.000 A 
ATOM      5  N   UNL     1      -8.355   2.445 126.540  0.00  0.00    +0.000 NA
ATOM      6  C   UNL     1      -8.337   1.323 125.782  0.00  0.00    +0.000 A 
ENDROOT
BRANCH   1   7
ATOM      7  S   UNL     1      -8.112  -0.403 123.744  0.00  0.00    +0.000 S 
ATOM      8  O   UNL     1      -7.163  -0.490 122.644  0.00  0.00    +0.000 OA
ATOM      9  O   UNL     1      -9.502  -0.581 123.438  0.00  0.00    +0.000 OA
BRANCH   7  13
ATOM     10  N   UNL     1      -7.707  -2.569 127.116  0.00  0.00    +0.000 N 
ATOM     11  C   UNL     1      -8.336  -2.018 125.983  0.00  0.00    +0.000 C 
ATOM     12  O   UNL     1      -9.554  -1.948 125.930  0.00  0.00    +0.000 OA
ATOM     13  N   UNL     1      -7.510  -1.463 124.970  0.00  0.00    +0.000 N 
ATOM     14  H   UNL     1      -6.700  -2.572 127.190  0.00  0.00    +0.000 HD
ATOM     15  H   UNL     1      -6.503  -1.500 125.037  0.00  0.00    +0.000 HD
BRANCH  10  17
ATOM     16  C   UNL     1      -9.159  -4.389 128.107  0.00  0.00    +0.000 C 
ATOM     17  C   UNL     1      -8.492  -3.020 128.308  0.00  0.00    +0.000 C 
ATOM     18  C   UNL     1      -7.701  -3.110 129.628  0.00  0.00    +0.000 C 
ENDBRANCH  10  17
ENDBRANCH   7  13
ENDBRANCH   1   7
BRANCH   2  19
ATOM     19  N   UNL     1      -6.823   2.591 122.563  0.00  0.00    +0.000 N 
ATOM     20  H   UNL     1      -6.121   1.914 122.279  0.00  0.00    +0.000 HD
BRANCH  19  21
ATOM     21  C   UNL     1      -7.256   3.412 121.512  0.00  0.00    +0.000 A 
ATOM     22  C   UNL     1      -8.603   3.420 121.215  0.00  0.00    +0.000 A 
ATOM     23  C   UNL     1      -9.030   3.900 119.985  0.00  0.00    +0.000 A 
ATOM     24  C   UNL     1      -8.159   4.400 119.045  0.00  0.00    +0.000 A 
ATOM     25  C   UNL     1      -6.851   4.632 119.432  0.00  0.00    +0.000 A 
ATOM     26  C   UNL     1      -5.979   5.381 118.482  0.00  0.00    +0.000 C 
ATOM     27  C   UNL     1      -6.396   4.146 120.682  0.00  0.00    +0.000 A 
ENDBRANCH  19  21
ENDBRANCH   2  19
TORSDOF 5
ENDMDL
MODEL 5
REMARK VINA RESULT:      -7.4      3.686      6.987
REMARK  Name = Torasemide
REMARK  8 active torsions:
REMARK  status: ('A' for Active; 'I' for Inactive)
REMARK    1  A    between atoms: C_1  and  C_2
REMARK    2  A    between atoms: C_2  and  C_3
REMARK    3  A    between atoms: C_2  and  N_4
REMARK    4  A    between atoms: N_7  and  S_8
REMARK    5  A    between atoms: S_8  and  C_11
REMARK    6  A    between atoms: C_12  and  N_13
REMARK    7  A    between atoms: N_13  and  C_14
REMARK    8  A    between atoms: C_18  and  C_19
REMARK                            x       y       z     vdW  Elec       q    Type
REMARK                         _______ _______ _______ _____ _____    ______ ____
ROOT
ATOM      1  C   UNL     1      -7.847   2.668 125.438  0.00  0.00    +0.000 A 
ATOM      2  C   UNL     1      -7.976   2.405 124.050  0.00  0.00    +0.000 A 
ATOM      3  C   UNL     1      -7.943   1.035 123.663  0.00  0.00    +0.000 A 
ATOM      4  C   UNL     1      -7.855   0.029 124.617  0.00  0.00    +0.000 A 
ATOM      5  N   UNL     1      -7.823   0.271 125.933  0.00  0.00    +0.000 NA
ATOM      6  C   UNL     1      -7.840   1.573 126.308  0.00  0.00    +0.000 A 
ENDROOT
BRANCH   1   7
ATOM      7  S   UNL     1      -7.804   4.253 126.306  0.00  0.00    +0.000 S 
ATOM      8  O   UNL     1      -8.979   4.994 125.871  0.00  0.00    +0.000 OA
ATOM      9  O   UNL     1      -6.519   4.833 126.045  0.00  0.00    +0.000 OA
BRANCH   7  13
ATOM     10  N   UNL     1      -8.511   4.482 130.264  0.00  0.00    +0.000 N 
ATOM     11  C   UNL     1      -8.646   4.770 128.893  0.00  0.00    +0.000 C 
ATOM     12  O   UNL     1      -9.155   5.820 128.532  0.00  0.00    +0.000 OA
ATOM     13  N   UNL     1      -8.085   3.854 127.964  0.00  0.00    +0.000 N 
ATOM     14  H   UNL     1      -8.036   3.643 130.565  0.00  0.00    +0.000 HD
ATOM     15  H   UNL     1      -7.641   3.001 128.273  0.00  0.00    +0.000 HD
BRANCH  10  17
ATOM     16  C   UNL     1      -9.391   4.799 132.615  0.00  0.00    +0.000 C 
ATOM     17  C   UNL     1      -8.916   5.466 131.316  0.00  0.00    +0.000 C 
ATOM     18  C   UNL     1      -7.834   6.488 131.722  0.00  0.00    +0.000 C 
ENDBRANCH  10  17
ENDBRANCH   7  13
ENDBRANCH   1   7
BRANCH   2  19
ATOM     19  N   UNL     1      -8.104   3.331 122.976  0.00  0.00    +0.000 N 
ATOM     20  H   UNL     1      -8.833   4.033 123.063  0.00  0.00    +0.000 HD
BRANCH  19  21
ATOM     21  C   UNL     1      -7.223   3.578 121.914  0.00  0.00    +0.000 A 
ATOM     22  C   UNL     1      -5.886   3.742 122.211  0.00  0.00    +0.000 A 
ATOM     23  C   UNL     1      -5.047   4.347 121.286  0.00  0.00    +0.000 A 
ATOM     24  C   UNL     1      -5.491   4.773 120.056  0.00  0.00    +0.000 A 
ATOM     25  C   UNL     1      -6.756   4.384 119.653  0.00  0.00    +0.000 A 
ATOM     26  C   UNL     1      -7.137   4.655 118.237  0.00  0.00    +0.000 C 
ATOM     27  C   UNL     1      -7.628   3.769 120.584  0.00  0.00    +0.000 A 
ENDBRANCH  19  21
ENDBRANCH   2  19
TORSDOF 5
ENDMDL
MODEL 6
REMARK VINA RESULT:      -7.4      6.289      8.247
REMARK  Name = Torasemide
REMARK  8 active torsions:
REMARK  status: ('A' for Active; 'I' for Inactive)
REMARK    1  A    between atoms: C_1  and  C_2
REMARK    2  A    between atoms: C_2  and  C_3
REMARK    3  A    between atoms: C_2  and  N_4
REMARK    4  A    between atoms: N_7  and  S_8
REMARK    5  A    between atoms: S_8  and  C_11
REMARK    6  A    between atoms: C_12  and  N_13
REMARK    7  A    between atoms: N_13  and  C_14
REMARK    8  A    between atoms: C_18  and  C_19
REMARK                            x       y       z     vdW  Elec       q    Type
REMARK                         _______ _______ _______ _____ _____    ______ ____
ROOT
ATOM      1  C   UNL     1      -8.501   4.397 131.315  0.00  0.00    +0.000 A 
ATOM      2  C   UNL     1      -9.195   5.224 132.237  0.00  0.00    +0.000 A 
ATOM      3  C   UNL     1      -8.466   5.633 133.390  0.00  0.00    +0.000 A 
ATOM      4  C   UNL     1      -7.131   5.281 133.548  0.00  0.00    +0.000 A 
ATOM      5  N   UNL     1      -6.448   4.575 132.638  0.00  0.00    +0.000 NA
ATOM      6  C   UNL     1      -7.139   4.172 131.545  0.00  0.00    +0.000 A 
ENDROOT
BRANCH   1   7
ATOM      7  S   UNL     1      -9.085   3.653 129.776  0.00  0.00    +0.000 S 
ATOM      8  O   UNL     1      -8.762   4.594 128.713  0.00  0.00    +0.000 OA
ATOM      9  O   UNL     1     -10.467   3.324 129.973  0.00  0.00    +0.000 OA
BRANCH   7  13
ATOM     10  N   UNL     1      -7.569   0.138 128.525  0.00  0.00    +0.000 N 
ATOM     11  C   UNL     1      -8.218   1.385 128.445  0.00  0.00    +0.000 C 
ATOM     12  O   UNL     1      -8.964   1.631 127.511  0.00  0.00    +0.000 OA
ATOM     13  N   UNL     1      -8.054   2.288 129.528  0.00  0.00    +0.000 N 
ATOM     14  H   UNL     1      -7.001  -0.091 129.327  0.00  0.00    +0.000 HD
ATOM     15  H   UNL     1      -7.456   2.064 130.311  0.00  0.00    +0.000 HD
BRANCH  10  17
ATOM     16  C   UNL     1      -6.766  -0.981 126.403  0.00  0.00    +0.000 C 
ATOM     17  C   UNL     1      -7.819  -0.942 127.519  0.00  0.00    +0.000 C 
ATOM     18  C   UNL     1      -7.904  -2.373 128.089  0.00  0.00    +0.000 C 
ENDBRANCH  10  17
ENDBRANCH   7  13
ENDBRANCH   1   7
BRANCH   2  19
ATOM     19  N   UNL     1     -10.542   5.682 132.183  0.00  0.00    +0.000 N 
ATOM     20  H   UNL     1     -11.145   5.417 132.955  0.00  0.00    +0.000 HD
BRANCH  19  21
ATOM     21  C   UNL     1     -11.112   6.647 131.341  0.00  0.00    +0.000 A 
ATOM     22  C   UNL     1     -12.437   6.976 131.544  0.00  0.00    +0.000 A 
ATOM     23  C   UNL     1     -13.144   7.620 130.539  0.00  0.00    +0.000 A 
ATOM     24  C   UNL     1     -12.568   7.974 129.341  0.00  0.00    +0.000 A 
ATOM     25  C   UNL     1     -11.192   7.882 129.232  0.00  0.00    +0.000 A 
ATOM     26  C   UNL     1     -10.559   8.479 128.020  0.00  0.00    +0.000 C 
ATOM     27  C   UNL     1     -10.453   7.224 130.245  0.00  0.00    +0.000 A 
ENDBRANCH  19  21
ENDBRANCH   2  19
TORSDOF 5
ENDMDL
MODEL 7
REMARK VINA RESULT:      -7.4      2.934      6.791
REMARK  Name = Torasemide
REMARK  8 active torsions:
REMARK  status: ('A' for Active; 'I' for Inactive)
REMARK    1  A    between atoms: C_1  and  C_2
REMARK    2  A    between atoms: C_2  and  C_3
REMARK    3  A    between atoms: C_2  and  N_4
REMARK    4  A    between atoms: N_7  and  S_8
REMARK    5  A    between atoms: S_8  and  C_11
REMARK    6  A    between atoms: C_12  and  N_13
REMARK    7  A    between atoms: N_13  and  C_14
REMARK    8  A    between atoms: C_18  and  C_19
REMARK                            x       y       z     vdW  Elec       q    Type
REMARK                         _______ _______ _______ _____ _____    ______ ____
ROOT
ATOM      1  C   UNL     1      -7.729   1.799 125.469  0.00  0.00    +0.000 A 
ATOM      2  C   UNL     1      -7.014   1.061 124.489  0.00  0.00    +0.000 A 
ATOM      3  C   UNL     1      -7.219   1.450 123.135  0.00  0.00    +0.000 A 
ATOM      4  C   UNL     1      -8.027   2.536 122.821  0.00  0.00    +0.000 A 
ATOM      5  N   UNL     1      -8.632   3.289 123.749  0.00  0.00    +0.000 NA
ATOM      6  C   UNL     1      -8.452   2.916 125.038  0.00  0.00    +0.000 A 
ENDROOT
BRANCH   1   7
ATOM      7  S   UNL     1      -7.765   1.588 127.263  0.00  0.00    +0.000 S 
ATOM      8  O   UNL     1      -8.214   0.225 127.510  0.00  0.00    +0.000 OA
ATOM      9  O   UNL     1      -8.563   2.657 127.790  0.00  0.00    +0.000 OA
BRANCH   7  13
ATOM     10  N   UNL     1      -3.852   2.497 127.550  0.00  0.00    +0.000 N 
ATOM     11  C   UNL     1      -5.238   2.710 127.426  0.00  0.00    +0.000 C 
ATOM     12  O   UNL     1      -5.660   3.763 126.976  0.00  0.00    +0.000 OA
ATOM     13  N   UNL     1      -6.105   1.631 127.744  0.00  0.00    +0.000 N 
ATOM     14  H   UNL     1      -3.498   1.605 127.864  0.00  0.00    +0.000 HD
ATOM     15  H   UNL     1      -5.744   0.753 128.089  0.00  0.00    +0.000 HD
BRANCH  10  17
ATOM     16  C   UNL     1      -2.523   4.568 128.139  0.00  0.00    +0.000 C 
ATOM     17  C   UNL     1      -2.857   3.511 127.077  0.00  0.00    +0.000 C 
ATOM     18  C   UNL     1      -1.509   2.942 126.589  0.00  0.00    +0.000 C 
ENDBRANCH  10  17
ENDBRANCH   7  13
ENDBRANCH   1   7
BRANCH   2  19
ATOM     19  N   UNL     1      -6.136  -0.044 124.672  0.00  0.00    +0.000 N 
ATOM     20  H   UNL     1      -5.336   0.104 125.280  0.00  0.00    +0.000 HD
BRANCH  19  21
ATOM     21  C   UNL     1      -6.328  -1.390 124.332  0.00  0.00    +0.000 A 
ATOM     22  C   UNL     1      -7.596  -1.915 124.473  0.00  0.00    +0.000 A 
ATOM     23  C   UNL     1      -7.767  -3.292 124.515  0.00  0.00    +0.000 A 
ATOM     24  C   UNL     1      -6.715  -4.170 124.395  0.00  0.00    +0.000 A 
ATOM     25  C   UNL     1      -5.491  -3.663 123.998  0.00  0.00    +0.000 A 
ATOM     26  C   UNL     1      -4.423  -4.646 123.652  0.00  0.00    +0.000 C 
ATOM     27  C   UNL     1      -5.296  -2.261 123.953  0.00  0.00    +0.000 A 
ENDBRANCH  19  21
ENDBRANCH   2  19
TORSDOF 5
ENDMDL
MODEL 8
REMARK VINA RESULT:      -7.3      3.421      5.837
REMARK  Name = Torasemide
REMARK  8 active torsions:
REMARK  status: ('A' for Active; 'I' for Inactive)
REMARK    1  A    between atoms: C_1  and  C_2
REMARK    2  A    between atoms: C_2  and  C_3
REMARK    3  A    between atoms: C_2  and  N_4
REMARK    4  A    between atoms: N_7  and  S_8
REMARK    5  A    between atoms: S_8  and  C_11
REMARK    6  A    between atoms: C_12  and  N_13
REMARK    7  A    between atoms: N_13  and  C_14
REMARK    8  A    between atoms: C_18  and  C_19
REMARK                            x       y       z     vdW  Elec       q    Type
REMARK                         _______ _______ _______ _____ _____    ______ ____
ROOT
ATOM      1  C   UNL     1      -6.265   2.222 125.527  0.00  0.00    +0.000 A 
ATOM      2  C   UNL     1      -6.225   3.011 124.348  0.00  0.00    +0.000 A 
ATOM      3  C   UNL     1      -5.930   4.393 124.524  0.00  0.00    +0.000 A 
ATOM      4  C   UNL     1      -5.637   4.902 125.784  0.00  0.00    +0.000 A 
ATOM      5  N   UNL     1      -5.587   4.143 126.885  0.00  0.00    +0.000 NA
ATOM      6  C   UNL     1      -5.880   2.830 126.727  0.00  0.00    +0.000 A 
ENDROOT
BRANCH   1   7
ATOM      7  S   UNL     1      -6.637   0.465 125.719  0.00  0.00    +0.000 S 
ATOM      8  O   UNL     1      -6.403  -0.151 124.421  0.00  0.00    +0.000 OA
ATOM      9  O   UNL     1      -7.960   0.378 126.267  0.00  0.00    +0.000 OA
BRANCH   7  13
ATOM     10  N   UNL     1      -4.551  -1.739 128.367  0.00  0.00    +0.000 N 
ATOM     11  C   UNL     1      -5.395  -1.460 127.275  0.00  0.00    +0.000 C 
ATOM     12  O   UNL     1      -6.160  -2.313 126.855  0.00  0.00    +0.000 OA
ATOM     13  N   UNL     1      -5.393  -0.138 126.757  0.00  0.00    +0.000 N 
ATOM     14  H   UNL     1      -3.962  -1.016 128.756  0.00  0.00    +0.000 HD
ATOM     15  H   UNL     1      -4.776   0.570 127.130  0.00  0.00    +0.000 HD
BRANCH  10  17
ATOM     16  C   UNL     1      -3.252  -3.766 129.144  0.00  0.00    +0.000 C 
ATOM     17  C   UNL     1      -4.609  -3.049 129.088  0.00  0.00    +0.000 C 
ATOM     18  C   UNL     1      -5.129  -2.987 130.538  0.00  0.00    +0.000 C 
ENDBRANCH  10  17
ENDBRANCH   7  13
ENDBRANCH   1   7
BRANCH   2  19
ATOM     19  N   UNL     1      -6.471   2.615 123.003  0.00  0.00    +0.000 N 
ATOM     20  H   UNL     1      -6.457   1.617 122.811  0.00  0.00    +0.000 HD
BRANCH  19  21
ATOM     21  C   UNL     1      -6.966   3.376 121.936  0.00  0.00    +0.000 A 
ATOM     22  C   UNL     1      -8.325   3.347 121.700  0.00  0.00    +0.000 A 
ATOM     23  C   UNL     1      -8.816   3.760 120.469  0.00  0.00    +0.000 A 
ATOM     24  C   UNL     1      -7.997   4.228 119.467  0.00  0.00    +0.000 A 
ATOM     25  C   UNL     1      -6.679   4.501 119.783  0.00  0.00    +0.000 A 
ATOM     26  C   UNL     1      -5.864   5.218 118.760  0.00  0.00    +0.000 C 
ATOM     27  C   UNL     1      -6.158   4.084 121.032  0.00  0.00    +0.000 A 
ENDBRANCH  19  21
ENDBRANCH   2  19
TORSDOF 5
ENDMDL
MODEL 9
REMARK VINA RESULT:      -7.3      2.834      7.037
REMARK  Name = Torasemide
REMARK  8 active torsions:
REMARK  status: ('A' for Active; 'I' for Inactive)
REMARK    1  A    between atoms: C_1  and  C_2
REMARK    2  A    between atoms: C_2  and  C_3
REMARK    3  A    between atoms: C_2  and  N_4
REMARK    4  A    between atoms: N_7  and  S_8
REMARK    5  A    between atoms: S_8  and  C_11
REMARK    6  A    between atoms: C_12  and  N_13
REMARK    7  A    between atoms: N_13  and  C_14
REMARK    8  A    between atoms: C_18  and  C_19
REMARK                            x       y       z     vdW  Elec       q    Type
REMARK                         _______ _______ _______ _____ _____    ______ ____
ROOT
ATOM      1  C   UNL     1      -7.956  -0.622 124.598  0.00  0.00    +0.000 A 
ATOM      2  C   UNL     1      -8.198  -1.613 125.584  0.00  0.00    +0.000 A 
ATOM      3  C   UNL     1      -8.621  -2.886 125.107  0.00  0.00    +0.000 A 
ATOM      4  C   UNL     1      -8.721  -3.137 123.744  0.00  0.00    +0.000 A 
ATOM      5  N   UNL     1      -8.409  -2.231 122.809  0.00  0.00    +0.000 NA
ATOM      6  C   UNL     1      -8.019  -1.013 123.256  0.00  0.00    +0.000 A 
ENDROOT
BRANCH   1   7
ATOM      7  S   UNL     1      -7.451   1.101 124.803  0.00  0.00    +0.000 S 
ATOM      8  O   UNL     1      -8.444   1.722 125.669  0.00  0.00    +0.000 OA
ATOM      9  O   UNL     1      -7.285   1.644 123.486  0.00  0.00    +0.000 OA
BRANCH   7  13
ATOM     10  N   UNL     1      -3.932   1.998 126.544  0.00  0.00    +0.000 N 
ATOM     11  C   UNL     1      -5.257   2.179 126.103  0.00  0.00    +0.000 C 
ATOM     12  O   UNL     1      -5.710   3.304 125.965  0.00  0.00    +0.000 OA
ATOM     13  N   UNL     1      -5.997   1.025 125.734  0.00  0.00    +0.000 N 
ATOM     14  H   UNL     1      -3.535   1.071 126.600  0.00  0.00    +0.000 HD
ATOM     15  H   UNL     1      -5.603   0.099 125.825  0.00  0.00    +0.000 HD
BRANCH  10  17
ATOM     16  C   UNL     1      -3.057   3.656 128.243  0.00  0.00    +0.000 C 
ATOM     17  C   UNL     1      -3.021   3.160 126.790  0.00  0.00    +0.000 C 
ATOM     18  C   UNL     1      -1.536   2.923 126.447  0.00  0.00    +0.000 C 
ENDBRANCH  10  17
ENDBRANCH   7  13
ENDBRANCH   1   7
BRANCH   2  19
ATOM     19  N   UNL     1      -8.103  -1.502 127.000  0.00  0.00    +0.000 N 
ATOM     20  H   UNL     1      -8.768  -0.883 127.455  0.00  0.00    +0.000 HD
BRANCH  19  21
ATOM     21  C   UNL     1      -7.384  -2.298 127.902  0.00  0.00    +0.000 A 
ATOM     22  C   UNL     1      -8.093  -2.972 128.875  0.00  0.00    +0.000 A 
ATOM     23  C   UNL     1      -7.432  -3.456 129.994  0.00  0.00    +0.000 A 
ATOM     24  C   UNL     1      -6.074  -3.314 130.168  0.00  0.00    +0.000 A 
ATOM     25  C   UNL     1      -5.326  -2.875 129.091  0.00  0.00    +0.000 A 
ATOM     26  C   UNL     1      -3.841  -2.943 129.216  0.00  0.00    +0.000 C 
ATOM     27  C   UNL     1      -5.983  -2.373 127.941  0.00  0.00    +0.000 A 
ENDBRANCH  19  21
ENDBRANCH   2  19
TORSDOF 5
ENDMDL
