MODEL 1
REMARK VINA RESULT:      -7.2      0.000      0.000
REMARK  Name = Toremifene
REMARK  11 active torsions:
REMARK  status: ('A' for Active; 'I' for Inactive)
REMARK    1  A    between atoms: C_1  and  N_2
REMARK    2  A    between atoms: N_2  and  C_3
REMARK    3  A    between atoms: N_2  and  C_4
REMARK    4  A    between atoms: C_4  and  C_5
REMARK    5  A    between atoms: C_5  and  O_6
REMARK    6  A    between atoms: O_6  and  C_7
REMARK    7  A    between atoms: C_10  and  C_13
REMARK    8  A    between atoms: C_13  and  C_24
REMARK    9  A    between atoms: C_14  and  C_15
REMARK   10  A    between atoms: C_14  and  C_18
REMARK   11  A    between atoms: C_15  and  C_16
REMARK                            x       y       z     vdW  Elec       q    Type
REMARK                         _______ _______ _______ _____ _____    ______ ____
ROOT
ATOM      1  C   UNL     1      -7.428  -0.539 127.576  0.00  0.00    +0.000 C 
ATOM      2  C   UNL     1      -7.868  -0.964 126.328  0.00  0.00    +0.000 C 
ENDROOT
BRANCH   1   6
ATOM      3  C   UNL     1      -7.819   3.654 128.609  0.00  0.00    +0.000 A 
ATOM      4  C   UNL     1      -8.700   2.737 129.105  0.00  0.00    +0.000 A 
ATOM      5  C   UNL     1      -8.407   1.388 128.999  0.00  0.00    +0.000 A 
ATOM      6  C   UNL     1      -7.478   0.907 128.069  0.00  0.00    +0.000 A 
ATOM      7  C   UNL     1      -6.566   1.857 127.602  0.00  0.00    +0.000 A 
ATOM      8  C   UNL     1      -6.690   3.213 127.915  0.00  0.00    +0.000 A 
BRANCH   3   9
ATOM      9  O   UNL     1      -8.097   4.935 128.967  0.00  0.00    +0.000 OA
BRANCH   9  10
ATOM     10  C   UNL     1      -9.256   5.069 129.768  0.00  0.00    +0.000 C 
BRANCH  10  11
ATOM     11  C   UNL     1      -9.832   6.458 129.525  0.00  0.00    +0.000 C 
BRANCH  11  13
ATOM     12  C   UNL     1     -12.189   6.482 129.114  0.00  0.00    +0.000 C 
ATOM     13  N   UNL     1     -10.871   6.446 128.484  0.00  0.00    +0.000 NA
ATOM     14  C   UNL     1     -10.729   7.576 127.564  0.00  0.00    +0.000 C 
ENDBRANCH  11  13
ENDBRANCH  10  11
ENDBRANCH   9  10
ENDBRANCH   3   9
ENDBRANCH   1   6
BRANCH   2  15
ATOM     15  C   UNL     1      -8.302  -0.019 125.215  0.00  0.00    +0.000 A 
ATOM     16  C   UNL     1      -9.559   0.616 125.219  0.00  0.00    +0.000 A 
ATOM     17  C   UNL     1      -9.890   1.580 124.255  0.00  0.00    +0.000 A 
ATOM     18  C   UNL     1      -8.930   2.016 123.346  0.00  0.00    +0.000 A 
ATOM     19  C   UNL     1      -7.688   1.395 123.315  0.00  0.00    +0.000 A 
ATOM     20  C   UNL     1      -7.417   0.318 124.172  0.00  0.00    +0.000 A 
ENDBRANCH   2  15
BRANCH   1  21
ATOM     21  C   UNL     1      -6.837  -1.546 128.541  0.00  0.00    +0.000 A 
ATOM     22  C   UNL     1      -5.465  -1.855 128.573  0.00  0.00    +0.000 A 
ATOM     23  C   UNL     1      -5.035  -3.033 129.207  0.00  0.00    +0.000 A 
ATOM     24  C   UNL     1      -5.910  -3.758 130.011  0.00  0.00    +0.000 A 
ATOM     25  C   UNL     1      -7.222  -3.318 130.168  0.00  0.00    +0.000 A 
ATOM     26  C   UNL     1      -7.691  -2.244 129.409  0.00  0.00    +0.000 A 
ENDBRANCH   1  21
BRANCH   2  27
ATOM     27  C   UNL     1      -8.021  -2.419 125.783  0.00  0.00    +0.000 C 
BRANCH  27  28
ATOM     28  C   UNL     1      -9.390  -2.927 125.372  0.00  0.00    +0.000 C 
ATOM     29 CL   UNL     1      -9.592  -3.322 123.656  0.00  0.00    +0.000 Cl
ENDBRANCH  27  28
ENDBRANCH   2  27
TORSDOF 9
ENDMDL
MODEL 2
REMARK VINA RESULT:      -7.2      3.979      6.817
REMARK  Name = Toremifene
REMARK  11 active torsions:
REMARK  status: ('A' for Active; 'I' for Inactive)
REMARK    1  A    between atoms: C_1  and  N_2
REMARK    2  A    between atoms: N_2  and  C_3
REMARK    3  A    between atoms: N_2  and  C_4
REMARK    4  A    between atoms: C_4  and  C_5
REMARK    5  A    between atoms: C_5  and  O_6
REMARK    6  A    between atoms: O_6  and  C_7
REMARK    7  A    between atoms: C_10  and  C_13
REMARK    8  A    between atoms: C_13  and  C_24
REMARK    9  A    between atoms: C_14  and  C_15
REMARK   10  A    between atoms: C_14  and  C_18
REMARK   11  A    between atoms: C_15  and  C_16
REMARK                            x       y       z     vdW  Elec       q    Type
REMARK                         _______ _______ _______ _____ _____    ______ ____
ROOT
ATOM      1  C   UNL     1      -6.740  -2.255 130.320  0.00  0.00    +0.000 C 
ATOM      2  C   UNL     1      -6.379  -0.941 130.594  0.00  0.00    +0.000 C 
ENDROOT
BRANCH   1   6
ATOM      3  C   UNL     1      -8.805  -3.238 126.636  0.00  0.00    +0.000 A 
ATOM      4  C   UNL     1      -7.664  -2.488 126.607  0.00  0.00    +0.000 A 
ATOM      5  C   UNL     1      -6.871  -2.415 127.741  0.00  0.00    +0.000 A 
ATOM      6  C   UNL     1      -7.371  -2.728 129.011  0.00  0.00    +0.000 A 
ATOM      7  C   UNL     1      -8.519  -3.524 129.012  0.00  0.00    +0.000 A 
ATOM      8  C   UNL     1      -9.201  -3.836 127.834  0.00  0.00    +0.000 A 
BRANCH   3   9
ATOM      9  O   UNL     1      -9.375  -3.418 125.416  0.00  0.00    +0.000 OA
BRANCH   9  10
ATOM     10  C   UNL     1      -8.444  -3.540 124.358  0.00  0.00    +0.000 C 
BRANCH  10  11
ATOM     11  C   UNL     1      -9.049  -2.878 123.126  0.00  0.00    +0.000 C 
BRANCH  11  13
ATOM     12  C   UNL     1      -8.755  -0.525 123.444  0.00  0.00    +0.000 C 
ATOM     13  N   UNL     1      -8.282  -1.694 122.708  0.00  0.00    +0.000 NA
ATOM     14  C   UNL     1      -6.845  -1.873 122.929  0.00  0.00    +0.000 C 
ENDBRANCH  11  13
ENDBRANCH  10  11
ENDBRANCH   9  10
ENDBRANCH   3   9
ENDBRANCH   1   6
BRANCH   2  15
ATOM     15  C   UNL     1      -6.721   0.237 129.693  0.00  0.00    +0.000 A 
ATOM     16  C   UNL     1      -5.764   0.841 128.854  0.00  0.00    +0.000 A 
ATOM     17  C   UNL     1      -6.127   1.841 127.939  0.00  0.00    +0.000 A 
ATOM     18  C   UNL     1      -7.468   2.168 127.757  0.00  0.00    +0.000 A 
ATOM     19  C   UNL     1      -8.427   1.594 128.582  0.00  0.00    +0.000 A 
ATOM     20  C   UNL     1      -8.043   0.718 129.608  0.00  0.00    +0.000 A 
ENDBRANCH   2  15
BRANCH   1  21
ATOM     21  C   UNL     1      -6.523  -3.324 131.372  0.00  0.00    +0.000 A 
ATOM     22  C   UNL     1      -7.175  -3.308 132.618  0.00  0.00    +0.000 A 
ATOM     23  C   UNL     1      -6.672  -4.088 133.673  0.00  0.00    +0.000 A 
ATOM     24  C   UNL     1      -5.701  -5.055 133.429  0.00  0.00    +0.000 A 
ATOM     25  C   UNL     1      -5.217  -5.233 132.136  0.00  0.00    +0.000 A 
ATOM     26  C   UNL     1      -5.597  -4.348 131.125  0.00  0.00    +0.000 A 
ENDBRANCH   1  21
BRANCH   2  27
ATOM     27  C   UNL     1      -5.585  -0.375 131.814  0.00  0.00    +0.000 C 
BRANCH  27  28
ATOM     28  C   UNL     1      -4.094  -0.630 131.922  0.00  0.00    +0.000 C 
ATOM     29 CL   UNL     1      -3.349  -1.490 130.564  0.00  0.00    +0.000 Cl
ENDBRANCH  27  28
ENDBRANCH   2  27
TORSDOF 9
ENDMDL
MODEL 3
REMARK VINA RESULT:      -7.1      2.853      6.038
REMARK  Name = Toremifene
REMARK  11 active torsions:
REMARK  status: ('A' for Active; 'I' for Inactive)
REMARK    1  A    between atoms: C_1  and  N_2
REMARK    2  A    between atoms: N_2  and  C_3
REMARK    3  A    between atoms: N_2  and  C_4
REMARK    4  A    between atoms: C_4  and  C_5
REMARK    5  A    between atoms: C_5  and  O_6
REMARK    6  A    between atoms: O_6  and  C_7
REMARK    7  A    between atoms: C_10  and  C_13
REMARK    8  A    between atoms: C_13  and  C_24
REMARK    9  A    between atoms: C_14  and  C_15
REMARK   10  A    between atoms: C_14  and  C_18
REMARK   11  A    between atoms: C_15  and  C_16
REMARK                            x       y       z     vdW  Elec       q    Type
REMARK                         _______ _______ _______ _____ _____    ______ ____
ROOT
ATOM      1  C   UNL     1      -6.895   1.758 124.349  0.00  0.00    +0.000 C 
ATOM      2  C   UNL     1      -6.938   0.372 124.243  0.00  0.00    +0.000 C 
ENDROOT
BRANCH   1   6
ATOM      3  C   UNL     1      -5.934   4.298 127.729  0.00  0.00    +0.000 A 
ATOM      4  C   UNL     1      -7.236   4.026 127.419  0.00  0.00    +0.000 A 
ATOM      5  C   UNL     1      -7.522   3.007 126.526  0.00  0.00    +0.000 A 
ATOM      6  C   UNL     1      -6.563   2.521 125.630  0.00  0.00    +0.000 A 
ATOM      7  C   UNL     1      -5.237   2.784 125.987  0.00  0.00    +0.000 A 
ATOM      8  C   UNL     1      -4.915   3.613 127.065  0.00  0.00    +0.000 A 
BRANCH   3   9
ATOM      9  O   UNL     1      -5.784   5.154 128.774  0.00  0.00    +0.000 OA
BRANCH   9  10
ATOM     10  C   UNL     1      -4.792   4.760 129.702  0.00  0.00    +0.000 C 
BRANCH  10  11
ATOM     11  C   UNL     1      -4.035   6.009 130.134  0.00  0.00    +0.000 C 
BRANCH  11  13
ATOM     12  C   UNL     1      -4.055   8.364 129.713  0.00  0.00    +0.000 C 
ATOM     13  N   UNL     1      -4.042   7.043 129.089  0.00  0.00    +0.000 NA
ATOM     14  C   UNL     1      -2.883   6.924 128.201  0.00  0.00    +0.000 C 
ENDBRANCH  11  13
ENDBRANCH  10  11
ENDBRANCH   9  10
ENDBRANCH   3   9
ENDBRANCH   1   6
BRANCH   2  15
ATOM     15  C   UNL     1      -6.831  -0.572 125.432  0.00  0.00    +0.000 A 
ATOM     16  C   UNL     1      -5.630  -1.232 125.759  0.00  0.00    +0.000 A 
ATOM     17  C   UNL     1      -5.516  -1.997 126.929  0.00  0.00    +0.000 A 
ATOM     18  C   UNL     1      -6.555  -2.015 127.855  0.00  0.00    +0.000 A 
ATOM     19  C   UNL     1      -7.752  -1.382 127.549  0.00  0.00    +0.000 A 
ATOM     20  C   UNL     1      -7.922  -0.756 126.305  0.00  0.00    +0.000 A 
ENDBRANCH   2  15
BRANCH   1  21
ATOM     21  C   UNL     1      -7.204   2.609 123.134  0.00  0.00    +0.000 A 
ATOM     22  C   UNL     1      -8.517   2.867 122.701  0.00  0.00    +0.000 A 
ATOM     23  C   UNL     1      -8.737   3.334 121.394  0.00  0.00    +0.000 A 
ATOM     24  C   UNL     1      -7.669   3.778 120.619  0.00  0.00    +0.000 A 
ATOM     25  C   UNL     1      -6.379   3.739 121.141  0.00  0.00    +0.000 A 
ATOM     26  C   UNL     1      -6.145   3.124 122.372  0.00  0.00    +0.000 A 
ENDBRANCH   1  21
BRANCH   2  27
ATOM     27  C   UNL     1      -7.099  -0.510 122.965  0.00  0.00    +0.000 C 
BRANCH  27  28
ATOM     28  C   UNL     1      -8.337  -1.370 122.798  0.00  0.00    +0.000 C 
ATOM     29 CL   UNL     1      -9.849  -0.506 122.473  0.00  0.00    +0.000 Cl
ENDBRANCH  27  28
ENDBRANCH   2  27
TORSDOF 9
ENDMDL
MODEL 4
REMARK VINA RESULT:      -7.1      3.126      5.586
REMARK  Name = Toremifene
REMARK  11 active torsions:
REMARK  status: ('A' for Active; 'I' for Inactive)
REMARK    1  A    between atoms: C_1  and  N_2
REMARK    2  A    between atoms: N_2  and  C_3
REMARK    3  A    between atoms: N_2  and  C_4
REMARK    4  A    between atoms: C_4  and  C_5
REMARK    5  A    between atoms: C_5  and  O_6
REMARK    6  A    between atoms: O_6  and  C_7
REMARK    7  A    between atoms: C_10  and  C_13
REMARK    8  A    between atoms: C_13  and  C_24
REMARK    9  A    between atoms: C_14  and  C_15
REMARK   10  A    between atoms: C_14  and  C_18
REMARK   11  A    between atoms: C_15  and  C_16
REMARK                            x       y       z     vdW  Elec       q    Type
REMARK                         _______ _______ _______ _____ _____    ______ ____
ROOT
ATOM      1  C   UNL     1      -6.994  -1.258 129.603  0.00  0.00    +0.000 C 
ATOM      2  C   UNL     1      -5.707  -1.515 130.060  0.00  0.00    +0.000 C 
ENDROOT
BRANCH   1   6
ATOM      3  C   UNL     1      -9.185   2.069 131.314  0.00  0.00    +0.000 A 
ATOM      4  C   UNL     1      -8.488   2.229 130.151  0.00  0.00    +0.000 A 
ATOM      5  C   UNL     1      -8.030   1.110 129.476  0.00  0.00    +0.000 A 
ATOM      6  C   UNL     1      -7.889  -0.129 130.112  0.00  0.00    +0.000 A 
ATOM      7  C   UNL     1      -8.639  -0.279 131.282  0.00  0.00    +0.000 A 
ATOM      8  C   UNL     1      -9.337   0.789 131.852  0.00  0.00    +0.000 A 
BRANCH   3   9
ATOM      9  O   UNL     1      -9.773   3.208 131.764  0.00  0.00    +0.000 OA
BRANCH   9  10
ATOM     10  C   UNL     1      -8.905   4.324 131.812  0.00  0.00    +0.000 C 
BRANCH  10  11
ATOM     11  C   UNL     1      -9.481   5.321 132.807  0.00  0.00    +0.000 C 
BRANCH  11  13
ATOM     12  C   UNL     1      -9.225   6.765 130.917  0.00  0.00    +0.000 C 
ATOM     13  N   UNL     1      -9.987   6.531 132.141  0.00  0.00    +0.000 NA
ATOM     14  C   UNL     1     -11.413   6.421 131.826  0.00  0.00    +0.000 C 
ENDBRANCH  11  13
ENDBRANCH  10  11
ENDBRANCH   9  10
ENDBRANCH   3   9
ENDBRANCH   1   6
BRANCH   2  15
ATOM     15  C   UNL     1      -5.076  -0.811 131.253  0.00  0.00    +0.000 A 
ATOM     16  C   UNL     1      -4.292   0.350 131.110  0.00  0.00    +0.000 A 
ATOM     17  C   UNL     1      -3.825   1.055 132.230  0.00  0.00    +0.000 A 
ATOM     18  C   UNL     1      -4.236   0.686 133.508  0.00  0.00    +0.000 A 
ATOM     19  C   UNL     1      -4.999  -0.463 133.674  0.00  0.00    +0.000 A 
ATOM     20  C   UNL     1      -5.325  -1.259 132.566  0.00  0.00    +0.000 A 
ENDBRANCH   2  15
BRANCH   1  21
ATOM     21  C   UNL     1      -7.597  -2.146 128.532  0.00  0.00    +0.000 A 
ATOM     22  C   UNL     1      -7.493  -1.860 127.160  0.00  0.00    +0.000 A 
ATOM     23  C   UNL     1      -8.362  -2.489 126.253  0.00  0.00    +0.000 A 
ATOM     24  C   UNL     1      -9.144  -3.565 126.662  0.00  0.00    +0.000 A 
ATOM     25  C   UNL     1      -9.073  -4.003 127.981  0.00  0.00    +0.000 A 
ATOM     26  C   UNL     1      -8.336  -3.276 128.917  0.00  0.00    +0.000 A 
ENDBRANCH   1  21
BRANCH   2  27
ATOM     27  C   UNL     1      -4.650  -2.521 129.504  0.00  0.00    +0.000 C 
BRANCH  27  28
ATOM     28  C   UNL     1      -4.318  -3.772 130.295  0.00  0.00    +0.000 C 
ATOM     29 CL   UNL     1      -5.672  -4.863 130.634  0.00  0.00    +0.000 Cl
ENDBRANCH  27  28
ENDBRANCH   2  27
TORSDOF 9
ENDMDL
MODEL 5
REMARK VINA RESULT:      -7.0      4.381      7.394
REMARK  Name = Toremifene
REMARK  11 active torsions:
REMARK  status: ('A' for Active; 'I' for Inactive)
REMARK    1  A    between atoms: C_1  and  N_2
REMARK    2  A    between atoms: N_2  and  C_3
REMARK    3  A    between atoms: N_2  and  C_4
REMARK    4  A    between atoms: C_4  and  C_5
REMARK    5  A    between atoms: C_5  and  O_6
REMARK    6  A    between atoms: O_6  and  C_7
REMARK    7  A    between atoms: C_10  and  C_13
REMARK    8  A    between atoms: C_13  and  C_24
REMARK    9  A    between atoms: C_14  and  C_15
REMARK   10  A    between atoms: C_14  and  C_18
REMARK   11  A    between atoms: C_15  and  C_16
REMARK                            x       y       z     vdW  Elec       q    Type
REMARK                         _______ _______ _______ _____ _____    ______ ____
ROOT
ATOM      1  C   UNL     1      -5.830   5.547 131.427  0.00  0.00    +0.000 C 
ATOM      2  C   UNL     1      -5.439   4.382 130.777  0.00  0.00    +0.000 C 
ENDROOT
BRANCH   1   6
ATOM      3  C   UNL     1     -10.067   6.370 131.849  0.00  0.00    +0.000 A 
ATOM      4  C   UNL     1      -9.403   5.660 132.809  0.00  0.00    +0.000 A 
ATOM      5  C   UNL     1      -8.018   5.642 132.805  0.00  0.00    +0.000 A 
ATOM      6  C   UNL     1      -7.281   5.966 131.660  0.00  0.00    +0.000 A 
ATOM      7  C   UNL     1      -7.972   6.721 130.708  0.00  0.00    +0.000 A 
ATOM      8  C   UNL     1      -9.340   6.981 130.825  0.00  0.00    +0.000 A 
BRANCH   3   9
ATOM      9  O   UNL     1     -11.398   6.500 132.084  0.00  0.00    +0.000 OA
BRANCH   9  10
ATOM     10  C   UNL     1     -12.201   6.378 130.925  0.00  0.00    +0.000 C 
BRANCH  10  11
ATOM     11  C   UNL     1     -12.921   7.703 130.714  0.00  0.00    +0.000 C 
BRANCH  11  13
ATOM     12  C   UNL     1     -11.813   8.654 128.819  0.00  0.00    +0.000 C 
ATOM     13  N   UNL     1     -13.050   8.036 129.287  0.00  0.00    +0.000 NA
ATOM     14  C   UNL     1     -13.351   6.852 128.480  0.00  0.00    +0.000 C 
ENDBRANCH  11  13
ENDBRANCH  10  11
ENDBRANCH   9  10
ENDBRANCH   3   9
ENDBRANCH   1   6
BRANCH   2  15
ATOM     15  C   UNL     1      -6.402   3.448 130.057  0.00  0.00    +0.000 A 
ATOM     16  C   UNL     1      -7.000   2.347 130.699  0.00  0.00    +0.000 A 
ATOM     17  C   UNL     1      -7.980   1.575 130.058  0.00  0.00    +0.000 A 
ATOM     18  C   UNL     1      -8.470   1.962 128.814  0.00  0.00    +0.000 A 
ATOM     19  C   UNL     1      -7.886   3.038 128.156  0.00  0.00    +0.000 A 
ATOM     20  C   UNL     1      -6.794   3.706 128.728  0.00  0.00    +0.000 A 
ENDBRANCH   2  15
BRANCH   1  21
ATOM     21  C   UNL     1      -4.775   6.503 131.945  0.00  0.00    +0.000 A 
ATOM     22  C   UNL     1      -4.201   7.508 131.145  0.00  0.00    +0.000 A 
ATOM     23  C   UNL     1      -2.995   8.106 131.544  0.00  0.00    +0.000 A 
ATOM     24  C   UNL     1      -2.500   7.900 132.829  0.00  0.00    +0.000 A 
ATOM     25  C   UNL     1      -3.200   7.080 133.711  0.00  0.00    +0.000 A 
ATOM     26  C   UNL     1      -4.306   6.358 133.259  0.00  0.00    +0.000 A 
ENDBRANCH   1  21
BRANCH   2  27
ATOM     27  C   UNL     1      -4.008   3.773 130.630  0.00  0.00    +0.000 C 
BRANCH  27  28
ATOM     28  C   UNL     1      -3.081   4.288 129.546  0.00  0.00    +0.000 C 
ATOM     29 CL   UNL     1      -3.804   5.387 128.359  0.00  0.00    +0.000 Cl
ENDBRANCH  27  28
ENDBRANCH   2  27
TORSDOF 9
ENDMDL
MODEL 6
REMARK VINA RESULT:      -6.9      3.698      5.337
REMARK  Name = Toremifene
REMARK  11 active torsions:
REMARK  status: ('A' for Active; 'I' for Inactive)
REMARK    1  A    between atoms: C_1  and  N_2
REMARK    2  A    between atoms: N_2  and  C_3
REMARK    3  A    between atoms: N_2  and  C_4
REMARK    4  A    between atoms: C_4  and  C_5
REMARK    5  A    between atoms: C_5  and  O_6
REMARK    6  A    between atoms: O_6  and  C_7
REMARK    7  A    between atoms: C_10  and  C_13
REMARK    8  A    between atoms: C_13  and  C_24
REMARK    9  A    between atoms: C_14  and  C_15
REMARK   10  A    between atoms: C_14  and  C_18
REMARK   11  A    between atoms: C_15  and  C_16
REMARK                            x       y       z     vdW  Elec       q    Type
REMARK                         _______ _______ _______ _____ _____    ______ ____
ROOT
ATOM      1  C   UNL     1      -7.565  -0.404 128.453  0.00  0.00    +0.000 C 
ATOM      2  C   UNL     1      -7.772  -1.744 128.148  0.00  0.00    +0.000 C 
ENDROOT
BRANCH   1   6
ATOM      3  C   UNL     1      -7.359   2.471 125.214  0.00  0.00    +0.000 A 
ATOM      4  C   UNL     1      -8.569   2.023 125.662  0.00  0.00    +0.000 A 
ATOM      5  C   UNL     1      -8.635   1.332 126.860  0.00  0.00    +0.000 A 
ATOM      6  C   UNL     1      -7.507   0.723 127.423  0.00  0.00    +0.000 A 
ATOM      7  C   UNL     1      -6.282   1.223 126.972  0.00  0.00    +0.000 A 
ATOM      8  C   UNL     1      -6.202   2.138 125.920  0.00  0.00    +0.000 A 
BRANCH   3   9
ATOM      9  O   UNL     1      -7.444   3.321 124.158  0.00  0.00    +0.000 OA
BRANCH   9  10
ATOM     10  C   UNL     1      -6.638   2.952 123.055  0.00  0.00    +0.000 C 
BRANCH  10  11
ATOM     11  C   UNL     1      -7.300   3.489 121.793  0.00  0.00    +0.000 C 
BRANCH  11  13
ATOM     12  C   UNL     1      -7.008   4.223 119.534  0.00  0.00    +0.000 C 
ATOM     13  N   UNL     1      -6.343   3.613 120.683  0.00  0.00    +0.000 NA
ATOM     14  C   UNL     1      -5.173   4.410 121.061  0.00  0.00    +0.000 C 
ENDBRANCH  11  13
ENDBRANCH  10  11
ENDBRANCH   9  10
ENDBRANCH   3   9
ENDBRANCH   1   6
BRANCH   2  15
ATOM     15  C   UNL     1      -7.797  -2.296 126.729  0.00  0.00    +0.000 A 
ATOM     16  C   UNL     1      -6.622  -2.468 125.972  0.00  0.00    +0.000 A 
ATOM     17  C   UNL     1      -6.651  -3.096 124.717  0.00  0.00    +0.000 A 
ATOM     18  C   UNL     1      -7.830  -3.672 124.252  0.00  0.00    +0.000 A 
ATOM     19  C   UNL     1      -9.003  -3.503 124.977  0.00  0.00    +0.000 A 
ATOM     20  C   UNL     1      -9.004  -2.734 126.149  0.00  0.00    +0.000 A 
ENDBRANCH   2  15
BRANCH   1  21
ATOM     21  C   UNL     1      -7.366   0.011 129.897  0.00  0.00    +0.000 A 
ATOM     22  C   UNL     1      -6.101   0.044 130.511  0.00  0.00    +0.000 A 
ATOM     23  C   UNL     1      -6.011   0.070 131.912  0.00  0.00    +0.000 A 
ATOM     24  C   UNL     1      -7.144   0.315 132.684  0.00  0.00    +0.000 A 
ATOM     25  C   UNL     1      -8.371   0.517 132.057  0.00  0.00    +0.000 A 
ATOM     26  C   UNL     1      -8.487   0.328 130.679  0.00  0.00    +0.000 A 
ENDBRANCH   1  21
BRANCH   2  27
ATOM     27  C   UNL     1      -8.014  -2.945 129.116  0.00  0.00    +0.000 C 
BRANCH  27  28
ATOM     28  C   UNL     1      -6.839  -3.581 129.833  0.00  0.00    +0.000 C 
ATOM     29 CL   UNL     1      -6.800  -3.384 131.593  0.00  0.00    +0.000 Cl
ENDBRANCH  27  28
ENDBRANCH   2  27
TORSDOF 9
ENDMDL
MODEL 7
REMARK VINA RESULT:      -6.8      4.152      8.203
REMARK  Name = Toremifene
REMARK  11 active torsions:
REMARK  status: ('A' for Active; 'I' for Inactive)
REMARK    1  A    between atoms: C_1  and  N_2
REMARK    2  A    between atoms: N_2  and  C_3
REMARK    3  A    between atoms: N_2  and  C_4
REMARK    4  A    between atoms: C_4  and  C_5
REMARK    5  A    between atoms: C_5  and  O_6
REMARK    6  A    between atoms: O_6  and  C_7
REMARK    7  A    between atoms: C_10  and  C_13
REMARK    8  A    between atoms: C_13  and  C_24
REMARK    9  A    between atoms: C_14  and  C_15
REMARK   10  A    between atoms: C_14  and  C_18
REMARK   11  A    between atoms: C_15  and  C_16
REMARK                            x       y       z     vdW  Elec       q    Type
REMARK                         _______ _______ _______ _____ _____    ______ ____
ROOT
ATOM      1  C   UNL     1      -7.634  -1.074 130.783  0.00  0.00    +0.000 C 
ATOM      2  C   UNL     1      -6.899  -1.471 131.894  0.00  0.00    +0.000 C 
ENDROOT
BRANCH   1   6
ATOM      3  C   UNL     1      -8.445  -3.183 127.082  0.00  0.00    +0.000 A 
ATOM      4  C   UNL     1      -7.725  -2.023 127.071  0.00  0.00    +0.000 A 
ATOM      5  C   UNL     1      -7.240  -1.513 128.264  0.00  0.00    +0.000 A 
ATOM      6  C   UNL     1      -7.779  -1.890 129.499  0.00  0.00    +0.000 A 
ATOM      7  C   UNL     1      -8.483  -3.097 129.491  0.00  0.00    +0.000 A 
ATOM      8  C   UNL     1      -8.763  -3.779 128.304  0.00  0.00    +0.000 A 
BRANCH   3   9
ATOM      9  O   UNL     1      -8.672  -3.701 125.848  0.00  0.00    +0.000 OA
BRANCH   9  10
ATOM     10  C   UNL     1      -7.793  -3.218 124.850  0.00  0.00    +0.000 C 
BRANCH  10  11
ATOM     11  C   UNL     1      -8.594  -3.045 123.566  0.00  0.00    +0.000 C 
BRANCH  11  13
ATOM     12  C   UNL     1      -8.813  -0.665 123.465  0.00  0.00    +0.000 C 
ATOM     13  N   UNL     1      -8.201  -1.831 122.834  0.00  0.00    +0.000 NA
ATOM     14  C   UNL     1      -6.746  -1.669 122.794  0.00  0.00    +0.000 C 
ENDBRANCH  11  13
ENDBRANCH  10  11
ENDBRANCH   9  10
ENDBRANCH   3   9
ENDBRANCH   1   6
BRANCH   2  15
ATOM     15  C   UNL     1      -5.997  -2.697 131.918  0.00  0.00    +0.000 A 
ATOM     16  C   UNL     1      -4.690  -2.676 131.393  0.00  0.00    +0.000 A 
ATOM     17  C   UNL     1      -3.830  -3.775 131.539  0.00  0.00    +0.000 A 
ATOM     18  C   UNL     1      -4.214  -4.864 132.316  0.00  0.00    +0.000 A 
ATOM     19  C   UNL     1      -5.503  -4.912 132.833  0.00  0.00    +0.000 A 
ATOM     20  C   UNL     1      -6.416  -3.886 132.547  0.00  0.00    +0.000 A 
ENDBRANCH   2  15
BRANCH   1  21
ATOM     21  C   UNL     1      -8.347   0.264 130.799  0.00  0.00    +0.000 A 
ATOM     22  C   UNL     1      -7.943   1.351 130.004  0.00  0.00    +0.000 A 
ATOM     23  C   UNL     1      -8.387   2.645 130.322  0.00  0.00    +0.000 A 
ATOM     24  C   UNL     1      -9.410   2.828 131.248  0.00  0.00    +0.000 A 
ATOM     25  C   UNL     1      -9.978   1.721 131.872  0.00  0.00    +0.000 A 
ATOM     26  C   UNL     1      -9.424   0.454 131.678  0.00  0.00    +0.000 A 
ENDBRANCH   1  21
BRANCH   2  27
ATOM     27  C   UNL     1      -6.817  -0.808 133.305  0.00  0.00    +0.000 C 
BRANCH  27  28
ATOM     28  C   UNL     1      -5.954   0.423 133.507  0.00  0.00    +0.000 C 
ATOM     29 CL   UNL     1      -6.818   1.942 133.795  0.00  0.00    +0.000 Cl
ENDBRANCH  27  28
ENDBRANCH   2  27
TORSDOF 9
ENDMDL
MODEL 8
REMARK VINA RESULT:      -6.8      2.127      5.209
REMARK  Name = Toremifene
REMARK  11 active torsions:
REMARK  status: ('A' for Active; 'I' for Inactive)
REMARK    1  A    between atoms: C_1  and  N_2
REMARK    2  A    between atoms: N_2  and  C_3
REMARK    3  A    between atoms: N_2  and  C_4
REMARK    4  A    between atoms: C_4  and  C_5
REMARK    5  A    between atoms: C_5  and  O_6
REMARK    6  A    between atoms: O_6  and  C_7
REMARK    7  A    between atoms: C_10  and  C_13
REMARK    8  A    between atoms: C_13  and  C_24
REMARK    9  A    between atoms: C_14  and  C_15
REMARK   10  A    between atoms: C_14  and  C_18
REMARK   11  A    between atoms: C_15  and  C_16
REMARK                            x       y       z     vdW  Elec       q    Type
REMARK                         _______ _______ _______ _____ _____    ______ ____
ROOT
ATOM      1  C   UNL     1      -7.563   0.260 125.620  0.00  0.00    +0.000 C 
ATOM      2  C   UNL     1      -7.463  -1.123 125.526  0.00  0.00    +0.000 C 
ENDROOT
BRANCH   1   6
ATOM      3  C   UNL     1      -7.440   2.872 129.078  0.00  0.00    +0.000 A 
ATOM      4  C   UNL     1      -8.622   2.321 128.673  0.00  0.00    +0.000 A 
ATOM      5  C   UNL     1      -8.607   1.285 127.754  0.00  0.00    +0.000 A 
ATOM      6  C   UNL     1      -7.503   1.049 126.927  0.00  0.00    +0.000 A 
ATOM      7  C   UNL     1      -6.299   1.595 127.382  0.00  0.00    +0.000 A 
ATOM      8  C   UNL     1      -6.248   2.450 128.485  0.00  0.00    +0.000 A 
BRANCH   3   9
ATOM      9  O   UNL     1      -7.561   3.715 130.137  0.00  0.00    +0.000 OA
BRANCH   9  10
ATOM     10  C   UNL     1      -8.868   3.781 130.673  0.00  0.00    +0.000 C 
BRANCH  10  11
ATOM     11  C   UNL     1      -8.746   3.983 132.178  0.00  0.00    +0.000 C 
BRANCH  11  13
ATOM     12  C   UNL     1      -9.815   1.843 132.154  0.00  0.00    +0.000 C 
ATOM     13  N   UNL     1      -8.938   2.727 132.918  0.00  0.00    +0.000 NA
ATOM     14  C   UNL     1      -7.664   2.055 133.184  0.00  0.00    +0.000 C 
ENDBRANCH  11  13
ENDBRANCH  10  11
ENDBRANCH   9  10
ENDBRANCH   3   9
ENDBRANCH   1   6
BRANCH   2  15
ATOM     15  C   UNL     1      -7.451  -2.056 126.729  0.00  0.00    +0.000 A 
ATOM     16  C   UNL     1      -6.390  -2.072 127.654  0.00  0.00    +0.000 A 
ATOM     17  C   UNL     1      -6.456  -2.845 128.823  0.00  0.00    +0.000 A 
ATOM     18  C   UNL     1      -7.630  -3.517 129.150  0.00  0.00    +0.000 A 
ATOM     19  C   UNL     1      -8.685  -3.525 128.247  0.00  0.00    +0.000 A 
ATOM     20  C   UNL     1      -8.555  -2.887 127.004  0.00  0.00    +0.000 A 
ENDBRANCH   2  15
BRANCH   1  21
ATOM     21  C   UNL     1      -7.761   1.081 124.361  0.00  0.00    +0.000 A 
ATOM     22  C   UNL     1      -6.688   1.614 123.624  0.00  0.00    +0.000 A 
ATOM     23  C   UNL     1      -6.925   2.652 122.708  0.00  0.00    +0.000 A 
ATOM     24  C   UNL     1      -8.227   2.981 122.341  0.00  0.00    +0.000 A 
ATOM     25  C   UNL     1      -9.295   2.287 122.903  0.00  0.00    +0.000 A 
ATOM     26  C   UNL     1      -9.065   1.373 123.933  0.00  0.00    +0.000 A 
ENDBRANCH   1  21
BRANCH   2  27
ATOM     27  C   UNL     1      -7.344  -2.014 124.249  0.00  0.00    +0.000 C 
BRANCH  27  28
ATOM     28  C   UNL     1      -8.521  -2.124 123.298  0.00  0.00    +0.000 C 
ATOM     29 CL   UNL     1      -9.634  -3.472 123.588  0.00  0.00    +0.000 Cl
ENDBRANCH  27  28
ENDBRANCH   2  27
TORSDOF 9
ENDMDL
MODEL 9
REMARK VINA RESULT:      -6.8      4.041      7.160
REMARK  Name = Toremifene
REMARK  11 active torsions:
REMARK  status: ('A' for Active; 'I' for Inactive)
REMARK    1  A    between atoms: C_1  and  N_2
REMARK    2  A    between atoms: N_2  and  C_3
REMARK    3  A    between atoms: N_2  and  C_4
REMARK    4  A    between atoms: C_4  and  C_5
REMARK    5  A    between atoms: C_5  and  O_6
REMARK    6  A    between atoms: O_6  and  C_7
REMARK    7  A    between atoms: C_10  and  C_13
REMARK    8  A    between atoms: C_13  and  C_24
REMARK    9  A    between atoms: C_14  and  C_15
REMARK   10  A    between atoms: C_14  and  C_18
REMARK   11  A    between atoms: C_15  and  C_16
REMARK                            x       y       z     vdW  Elec       q    Type
REMARK                         _______ _______ _______ _____ _____    ______ ____
ROOT
ATOM      1  C   UNL     1      -7.532  -1.466 127.188  0.00  0.00    +0.000 C 
ATOM      2  C   UNL     1      -7.851  -0.126 127.374  0.00  0.00    +0.000 C 
ENDROOT
BRANCH   1   6
ATOM      3  C   UNL     1      -5.615  -3.619 130.428  0.00  0.00    +0.000 A 
ATOM      4  C   UNL     1      -6.977  -3.552 130.356  0.00  0.00    +0.000 A 
ATOM      5  C   UNL     1      -7.574  -3.109 129.187  0.00  0.00    +0.000 A 
ATOM      6  C   UNL     1      -6.870  -2.356 128.239  0.00  0.00    +0.000 A 
ATOM      7  C   UNL     1      -5.479  -2.469 128.313  0.00  0.00    +0.000 A 
ATOM      8  C   UNL     1      -4.849  -3.147 129.359  0.00  0.00    +0.000 A 
BRANCH   3   9
ATOM      9  O   UNL     1      -5.154  -4.274 131.525  0.00  0.00    +0.000 OA
BRANCH   9  10
ATOM     10  C   UNL     1      -3.792  -4.021 131.815  0.00  0.00    +0.000 C 
BRANCH  10  11
ATOM     11  C   UNL     1      -3.736  -2.935 132.881  0.00  0.00    +0.000 C 
BRANCH  11  13
ATOM     12  C   UNL     1      -3.717  -0.709 132.004  0.00  0.00    +0.000 C 
ATOM     13  N   UNL     1      -2.880  -1.811 132.473  0.00  0.00    +0.000 NA
ATOM     14  C   UNL     1      -2.026  -1.354 133.571  0.00  0.00    +0.000 C 
ENDBRANCH  11  13
ENDBRANCH  10  11
ENDBRANCH   9  10
ENDBRANCH   3   9
ENDBRANCH   1   6
BRANCH   2  15
ATOM     15  C   UNL     1      -7.428   0.684 128.591  0.00  0.00    +0.000 A 
ATOM     16  C   UNL     1      -8.241   0.800 129.734  0.00  0.00    +0.000 A 
ATOM     17  C   UNL     1      -7.781   1.444 130.893  0.00  0.00    +0.000 A 
ATOM     18  C   UNL     1      -6.460   1.874 130.974  0.00  0.00    +0.000 A 
ATOM     19  C   UNL     1      -5.643   1.782 129.854  0.00  0.00    +0.000 A 
ATOM     20  C   UNL     1      -6.156   1.288 128.645  0.00  0.00    +0.000 A 
ENDBRANCH   2  15
BRANCH   1  21
ATOM     21  C   UNL     1      -7.833  -2.128 125.858  0.00  0.00    +0.000 A 
ATOM     22  C   UNL     1      -6.932  -2.108 124.778  0.00  0.00    +0.000 A 
ATOM     23  C   UNL     1      -7.396  -2.398 123.484  0.00  0.00    +0.000 A 
ATOM     24  C   UNL     1      -8.663  -2.946 123.299  0.00  0.00    +0.000 A 
ATOM     25  C   UNL     1      -9.475  -3.186 124.403  0.00  0.00    +0.000 A 
ATOM     26  C   UNL     1      -9.079  -2.745 125.667  0.00  0.00    +0.000 A 
ENDBRANCH   1  21
BRANCH   2  27
ATOM     27  C   UNL     1      -8.669   0.826 126.445  0.00  0.00    +0.000 C 
BRANCH  27  28
ATOM     28  C   UNL     1      -8.053   1.324 125.152  0.00  0.00    +0.000 C 
ATOM     29 CL   UNL     1      -6.284   1.415 125.114  0.00  0.00    +0.000 Cl
ENDBRANCH  27  28
ENDBRANCH   2  27
TORSDOF 9
ENDMDL
