MODEL 1
REMARK VINA RESULT:      -9.6      0.000      0.000
REMARK  Name = Trametinib
REMARK  8 active torsions:
REMARK  status: ('A' for Active; 'I' for Inactive)
REMARK    1  A    between atoms: C_1  and  N_2
REMARK    2  A    between atoms: C_5  and  C_6
REMARK    3  A    between atoms: N_8  and  C_28
REMARK    4  A    between atoms: N_11  and  C_12
REMARK    5  A    between atoms: C_18  and  N_19
REMARK    6  A    between atoms: N_19  and  C_20
REMARK    7  A    between atoms: C_30  and  N_31
REMARK    8  A    between atoms: C_32  and  C_33
REMARK                            x       y       z     vdW  Elec       q    Type
REMARK                         _______ _______ _______ _____ _____    ______ ____
ROOT
ATOM      1  C   UNL     1      -9.418   2.344 132.672  0.00  0.00    +0.000 C 
ATOM      2  N   UNL     1      -8.811   2.105 131.381  0.00  0.00    +0.000 N 
ATOM      3  C   UNL     1      -8.642   0.759 131.148  0.00  0.00    +0.000 A 
ATOM      4  O   UNL     1      -8.974  -0.101 131.945  0.00  0.00    +0.000 OA
ATOM      5  C   UNL     1      -8.043   0.365 129.853  0.00  0.00    +0.000 A 
ATOM      6  C   UNL     1      -7.915  -1.134 129.810  0.00  0.00    +0.000 C 
ATOM      7  C   UNL     1      -7.735   1.308 128.924  0.00  0.00    +0.000 A 
ATOM      8  N   UNL     1      -7.200   1.016 127.647  0.00  0.00    +0.000 N 
ATOM      9  C   UNL     1      -6.866   1.972 126.678  0.00  0.00    +0.000 A 
ATOM     10  O   UNL     1      -6.444   1.603 125.576  0.00  0.00    +0.000 OA
ATOM     11  N   UNL     1      -7.046   3.313 126.997  0.00  0.00    +0.000 N 
ATOM     12  C   UNL     1      -7.529   3.752 128.236  0.00  0.00    +0.000 A 
ATOM     13  O   UNL     1      -7.635   4.955 128.504  0.00  0.00    +0.000 OA
ATOM     14  C   UNL     1      -7.916   2.724 129.272  0.00  0.00    +0.000 A 
ATOM     15  C   UNL     1      -8.402   3.132 130.501  0.00  0.00    +0.000 A 
ENDROOT
BRANCH   8  16
ATOM     16  C   UNL     1      -7.075  -0.326 127.154  0.00  0.00    +0.000 A 
ATOM     17  C   UNL     1      -8.110  -0.937 126.399  0.00  0.00    +0.000 A 
ATOM     18  C   UNL     1      -7.859  -2.151 125.748  0.00  0.00    +0.000 A 
ATOM     19  C   UNL     1      -6.564  -2.639 125.837  0.00  0.00    +0.000 A 
ATOM     20  C   UNL     1      -5.586  -2.117 126.659  0.00  0.00    +0.000 A 
ATOM     21  C   UNL     1      -5.861  -0.984 127.378  0.00  0.00    +0.000 A 
BRANCH  18  22
ATOM     22  N   UNL     1      -8.871  -2.806 125.014  0.00  0.00    +0.000 N 
ATOM     23  C   UNL     1      -9.160  -2.859 123.676  0.00  0.00    +0.000 C 
ATOM     24  C   UNL     1      -8.439  -2.102 122.580  0.00  0.00    +0.000 C 
ATOM     25  O   UNL     1     -10.098  -3.591 123.330  0.00  0.00    +0.000 OA
ATOM     26  H   UNL     1      -9.485  -3.429 125.535  0.00  0.00    +0.000 HD
ENDBRANCH  18  22
ENDBRANCH   8  16
BRANCH  11  27
ATOM     27  C   UNL     1      -6.509   4.372 126.107  0.00  0.00    +0.000 C 
ATOM     28  C   UNL     1      -5.063   4.833 126.143  0.00  0.00    +0.000 C 
ATOM     29  C   UNL     1      -5.653   4.304 124.870  0.00  0.00    +0.000 C 
ENDBRANCH  11  27
BRANCH  15  30
ATOM     30  N   UNL     1      -8.522   4.502 130.840  0.00  0.00    +0.000 N 
ATOM     31  H   UNL     1      -7.704   4.911 131.305  0.00  0.00    +0.000 HD
BRANCH  30  32
ATOM     32  C   UNL     1      -9.572   5.414 130.585  0.00  0.00    +0.000 A 
ATOM     33  C   UNL     1      -9.290   6.781 130.444  0.00  0.00    +0.000 A 
ATOM     34  C   UNL     1     -10.250   7.660 129.915  0.00  0.00    +0.000 A 
ATOM     35  C   UNL     1     -11.496   7.177 129.510  0.00  0.00    +0.000 A 
ATOM     36  I   UNL     1     -12.883   8.462 128.647  0.00  0.00    +0.000 I 
ATOM     37  C   UNL     1     -11.813   5.836 129.691  0.00  0.00    +0.000 A 
ATOM     38  C   UNL     1     -10.884   4.991 130.302  0.00  0.00    +0.000 A 
ATOM     39  F   UNL     1     -11.205   3.693 130.432  0.00  0.00    +0.000 F 
ENDBRANCH  30  32
ENDBRANCH  15  30
TORSDOF 5
ENDMDL
MODEL 2
REMARK VINA RESULT:      -9.4      3.131      5.377
REMARK  Name = Trametinib
REMARK  8 active torsions:
REMARK  status: ('A' for Active; 'I' for Inactive)
REMARK    1  A    between atoms: C_1  and  N_2
REMARK    2  A    between atoms: C_5  and  C_6
REMARK    3  A    between atoms: N_8  and  C_28
REMARK    4  A    between atoms: N_11  and  C_12
REMARK    5  A    between atoms: C_18  and  N_19
REMARK    6  A    between atoms: N_19  and  C_20
REMARK    7  A    between atoms: C_30  and  N_31
REMARK    8  A    between atoms: C_32  and  C_33
REMARK                            x       y       z     vdW  Elec       q    Type
REMARK                         _______ _______ _______ _____ _____    ______ ____
ROOT
ATOM      1  C   UNL     1      -8.879   3.788 130.245  0.00  0.00    +0.000 C 
ATOM      2  N   UNL     1      -8.548   2.388 130.084  0.00  0.00    +0.000 N 
ATOM      3  C   UNL     1      -8.430   2.052 128.754  0.00  0.00    +0.000 A 
ATOM      4  O   UNL     1      -8.586   2.853 127.849  0.00  0.00    +0.000 OA
ATOM      5  C   UNL     1      -8.077   0.650 128.438  0.00  0.00    +0.000 A 
ATOM      6  C   UNL     1      -8.031   0.483 126.943  0.00  0.00    +0.000 C 
ATOM      7  C   UNL     1      -7.828  -0.237 129.437  0.00  0.00    +0.000 A 
ATOM      8  N   UNL     1      -7.444  -1.582 129.225  0.00  0.00    +0.000 N 
ATOM      9  C   UNL     1      -7.192  -2.516 130.239  0.00  0.00    +0.000 A 
ATOM     10  O   UNL     1      -6.820  -3.656 129.941  0.00  0.00    +0.000 OA
ATOM     11  N   UNL     1      -7.354  -2.106 131.558  0.00  0.00    +0.000 N 
ATOM     12  C   UNL     1      -7.767  -0.816 131.917  0.00  0.00    +0.000 A 
ATOM     13  O   UNL     1      -7.944  -0.496 133.099  0.00  0.00    +0.000 OA
ATOM     14  C   UNL     1      -8.012   0.200 130.829  0.00  0.00    +0.000 A 
ATOM     15  C   UNL     1      -8.415   1.481 131.158  0.00  0.00    +0.000 A 
ENDROOT
BRANCH   8  16
ATOM     16  C   UNL     1      -7.133  -2.096 127.922  0.00  0.00    +0.000 A 
ATOM     17  C   UNL     1      -8.145  -2.601 127.064  0.00  0.00    +0.000 A 
ATOM     18  C   UNL     1      -7.836  -2.879 125.727  0.00  0.00    +0.000 A 
ATOM     19  C   UNL     1      -6.548  -2.566 125.317  0.00  0.00    +0.000 A 
ATOM     20  C   UNL     1      -5.527  -2.187 126.165  0.00  0.00    +0.000 A 
ATOM     21  C   UNL     1      -5.804  -2.011 127.495  0.00  0.00    +0.000 A 
BRANCH  18  22
ATOM     22  N   UNL     1      -8.805  -3.411 124.851  0.00  0.00    +0.000 N 
ATOM     23  C   UNL     1      -9.376  -2.936 123.700  0.00  0.00    +0.000 C 
ATOM     24  C   UNL     1      -9.130  -1.575 123.082  0.00  0.00    +0.000 C 
ATOM     25  O   UNL     1     -10.169  -3.685 123.112  0.00  0.00    +0.000 OA
ATOM     26  H   UNL     1      -9.117  -4.363 125.035  0.00  0.00    +0.000 HD
ENDBRANCH  18  22
ENDBRANCH   8  16
BRANCH  11  27
ATOM     27  C   UNL     1      -7.317  -3.098 132.660  0.00  0.00    +0.000 C 
ATOM     28  C   UNL     1      -6.039  -3.767 133.134  0.00  0.00    +0.000 C 
ATOM     29  C   UNL     1      -6.883  -2.985 134.097  0.00  0.00    +0.000 C 
ENDBRANCH  11  27
BRANCH  15  30
ATOM     30  N   UNL     1      -8.638   1.872 132.502  0.00  0.00    +0.000 N 
ATOM     31  H   UNL     1      -9.337   1.317 133.008  0.00  0.00    +0.000 HD
BRANCH  30  32
ATOM     32  C   UNL     1      -8.005   2.872 133.275  0.00  0.00    +0.000 A 
ATOM     33  C   UNL     1      -8.778   3.860 133.905  0.00  0.00    +0.000 A 
ATOM     34  C   UNL     1      -8.219   4.683 134.896  0.00  0.00    +0.000 A 
ATOM     35  C   UNL     1      -6.886   4.517 135.276  0.00  0.00    +0.000 A 
ATOM     36  I   UNL     1      -6.084   5.677 136.804  0.00  0.00    +0.000 I 
ATOM     37  C   UNL     1      -6.090   3.581 134.628  0.00  0.00    +0.000 A 
ATOM     38  C   UNL     1      -6.632   2.832 133.581  0.00  0.00    +0.000 A 
ATOM     39  F   UNL     1      -5.849   1.910 132.996  0.00  0.00    +0.000 F 
ENDBRANCH  30  32
ENDBRANCH  15  30
TORSDOF 5
ENDMDL
MODEL 3
REMARK VINA RESULT:      -9.3      3.919      7.026
REMARK  Name = Trametinib
REMARK  8 active torsions:
REMARK  status: ('A' for Active; 'I' for Inactive)
REMARK    1  A    between atoms: C_1  and  N_2
REMARK    2  A    between atoms: C_5  and  C_6
REMARK    3  A    between atoms: N_8  and  C_28
REMARK    4  A    between atoms: N_11  and  C_12
REMARK    5  A    between atoms: C_18  and  N_19
REMARK    6  A    between atoms: N_19  and  C_20
REMARK    7  A    between atoms: C_30  and  N_31
REMARK    8  A    between atoms: C_32  and  C_33
REMARK                            x       y       z     vdW  Elec       q    Type
REMARK                         _______ _______ _______ _____ _____    ______ ____
ROOT
ATOM      1  C   UNL     1      -7.670   4.598 126.147  0.00  0.00    +0.000 C 
ATOM      2  N   UNL     1      -7.488   3.167 126.258  0.00  0.00    +0.000 N 
ATOM      3  C   UNL     1      -6.828   2.834 127.419  0.00  0.00    +0.000 A 
ATOM      4  O   UNL     1      -6.458   3.661 128.234  0.00  0.00    +0.000 OA
ATOM      5  C   UNL     1      -6.586   1.397 127.674  0.00  0.00    +0.000 A 
ATOM      6  C   UNL     1      -5.829   1.250 128.966  0.00  0.00    +0.000 C 
ATOM      7  C   UNL     1      -7.056   0.459 126.810  0.00  0.00    +0.000 A 
ATOM      8  N   UNL     1      -6.907  -0.936 126.998  0.00  0.00    +0.000 N 
ATOM      9  C   UNL     1      -7.374  -1.921 126.118  0.00  0.00    +0.000 A 
ATOM     10  O   UNL     1      -7.227  -3.115 126.401  0.00  0.00    +0.000 OA
ATOM     11  N   UNL     1      -8.013  -1.504 124.955  0.00  0.00    +0.000 N 
ATOM     12  C   UNL     1      -8.198  -0.157 124.618  0.00  0.00    +0.000 A 
ATOM     13  O   UNL     1      -8.730   0.180 123.554  0.00  0.00    +0.000 OA
ATOM     14  C   UNL     1      -7.720   0.906 125.578  0.00  0.00    +0.000 A 
ATOM     15  C   UNL     1      -7.896   2.242 125.271  0.00  0.00    +0.000 A 
ENDROOT
BRANCH   8  16
ATOM     16  C   UNL     1      -6.371  -1.496 128.206  0.00  0.00    +0.000 A 
ATOM     17  C   UNL     1      -7.178  -1.675 129.361  0.00  0.00    +0.000 A 
ATOM     18  C   UNL     1      -6.683  -2.428 130.433  0.00  0.00    +0.000 A 
ATOM     19  C   UNL     1      -5.439  -3.013 130.250  0.00  0.00    +0.000 A 
ATOM     20  C   UNL     1      -4.600  -2.752 129.185  0.00  0.00    +0.000 A 
ATOM     21  C   UNL     1      -5.043  -1.933 128.180  0.00  0.00    +0.000 A 
BRANCH  18  22
ATOM     22  N   UNL     1      -7.441  -2.603 131.610  0.00  0.00    +0.000 N 
ATOM     23  C   UNL     1      -7.646  -1.809 132.708  0.00  0.00    +0.000 C 
ATOM     24  C   UNL     1      -6.992  -0.469 132.970  0.00  0.00    +0.000 C 
ATOM     25  O   UNL     1      -8.436  -2.227 133.566  0.00  0.00    +0.000 OA
ATOM     26  H   UNL     1      -8.020  -3.438 131.663  0.00  0.00    +0.000 HD
ENDBRANCH  18  22
ENDBRANCH   8  16
BRANCH  11  27
ATOM     27  C   UNL     1      -8.332  -2.482 123.885  0.00  0.00    +0.000 C 
ATOM     28  C   UNL     1      -9.464  -3.488 123.990  0.00  0.00    +0.000 C 
ATOM     29  C   UNL     1      -9.424  -2.515 122.850  0.00  0.00    +0.000 C 
ENDBRANCH  11  27
BRANCH  15  30
ATOM     30  N   UNL     1      -8.491   2.658 124.054  0.00  0.00    +0.000 N 
ATOM     31  H   UNL     1      -9.510   2.778 124.085  0.00  0.00    +0.000 HD
BRANCH  30  32
ATOM     32  C   UNL     1      -7.894   2.991 122.817  0.00  0.00    +0.000 A 
ATOM     33  C   UNL     1      -8.702   3.222 121.693  0.00  0.00    +0.000 A 
ATOM     34  C   UNL     1      -8.171   3.825 120.541  0.00  0.00    +0.000 A 
ATOM     35  C   UNL     1      -6.830   4.214 120.507  0.00  0.00    +0.000 A 
ATOM     36  I   UNL     1      -6.066   5.184 118.835  0.00  0.00    +0.000 I 
ATOM     37  C   UNL     1      -6.001   3.945 121.589  0.00  0.00    +0.000 A 
ATOM     38  C   UNL     1      -6.519   3.263 122.693  0.00  0.00    +0.000 A 
ATOM     39  F   UNL     1      -5.703   3.048 123.738  0.00  0.00    +0.000 F 
ENDBRANCH  30  32
ENDBRANCH  15  30
TORSDOF 5
ENDMDL
MODEL 4
REMARK VINA RESULT:      -9.2      3.357      7.715
REMARK  Name = Trametinib
REMARK  8 active torsions:
REMARK  status: ('A' for Active; 'I' for Inactive)
REMARK    1  A    between atoms: C_1  and  N_2
REMARK    2  A    between atoms: C_5  and  C_6
REMARK    3  A    between atoms: N_8  and  C_28
REMARK    4  A    between atoms: N_11  and  C_12
REMARK    5  A    between atoms: C_18  and  N_19
REMARK    6  A    between atoms: N_19  and  C_20
REMARK    7  A    between atoms: C_30  and  N_31
REMARK    8  A    between atoms: C_32  and  C_33
REMARK                            x       y       z     vdW  Elec       q    Type
REMARK                         _______ _______ _______ _____ _____    ______ ____
ROOT
ATOM      1  C   UNL     1      -7.656  -2.088 130.968  0.00  0.00    +0.000 C 
ATOM      2  N   UNL     1      -7.597  -0.670 130.685  0.00  0.00    +0.000 N 
ATOM      3  C   UNL     1      -8.302   0.057 131.618  0.00  0.00    +0.000 A 
ATOM      4  O   UNL     1      -8.889  -0.456 132.555  0.00  0.00    +0.000 OA
ATOM      5  C   UNL     1      -8.316   1.528 131.463  0.00  0.00    +0.000 A 
ATOM      6  C   UNL     1      -9.161   2.127 132.555  0.00  0.00    +0.000 C 
ATOM      7  C   UNL     1      -7.606   2.119 130.466  0.00  0.00    +0.000 A 
ATOM      8  N   UNL     1      -7.529   3.519 130.272  0.00  0.00    +0.000 N 
ATOM      9  C   UNL     1      -6.812   4.150 129.246  0.00  0.00    +0.000 A 
ATOM     10  O   UNL     1      -6.778   5.384 129.194  0.00  0.00    +0.000 OA
ATOM     11  N   UNL     1      -6.142   3.347 128.330  0.00  0.00    +0.000 N 
ATOM     12  C   UNL     1      -6.161   1.946 128.375  0.00  0.00    +0.000 A 
ATOM     13  O   UNL     1      -5.592   1.260 127.518  0.00  0.00    +0.000 OA
ATOM     14  C   UNL     1      -6.910   1.264 129.495  0.00  0.00    +0.000 A 
ATOM     15  C   UNL     1      -6.939  -0.116 129.564  0.00  0.00    +0.000 A 
ENDROOT
BRANCH   8  16
ATOM     16  C   UNL     1      -8.077   4.457 131.209  0.00  0.00    +0.000 A 
ATOM     17  C   UNL     1      -9.433   4.869 131.137  0.00  0.00    +0.000 A 
ATOM     18  C   UNL     1      -9.985   5.602 132.195  0.00  0.00    +0.000 A 
ATOM     19  C   UNL     1      -9.161   5.813 133.291  0.00  0.00    +0.000 A 
ATOM     20  C   UNL     1      -7.813   5.520 133.324  0.00  0.00    +0.000 A 
ATOM     21  C   UNL     1      -7.245   4.893 132.246  0.00  0.00    +0.000 A 
BRANCH  18  22
ATOM     22  N   UNL     1     -11.320   6.057 132.148  0.00  0.00    +0.000 N 
ATOM     23  C   UNL     1     -11.997   6.855 131.265  0.00  0.00    +0.000 C 
ATOM     24  C   UNL     1     -11.399   7.558 130.063  0.00  0.00    +0.000 C 
ATOM     25  O   UNL     1     -13.208   7.022 131.468  0.00  0.00    +0.000 OA
ATOM     26  H   UNL     1     -11.956   5.685 132.850  0.00  0.00    +0.000 HD
ENDBRANCH  18  22
ENDBRANCH   8  16
BRANCH  11  27
ATOM     27  C   UNL     1      -5.554   3.940 127.104  0.00  0.00    +0.000 C 
ATOM     28  C   UNL     1      -4.275   4.759 127.109  0.00  0.00    +0.000 C 
ATOM     29  C   UNL     1      -4.379   3.531 126.256  0.00  0.00    +0.000 C 
ENDBRANCH  11  27
BRANCH  15  30
ATOM     30  N   UNL     1      -6.306  -0.927 128.590  0.00  0.00    +0.000 N 
ATOM     31  H   UNL     1      -5.296  -1.053 128.715  0.00  0.00    +0.000 HD
BRANCH  30  32
ATOM     32  C   UNL     1      -6.860  -1.642 127.503  0.00  0.00    +0.000 A 
ATOM     33  C   UNL     1      -8.179  -2.116 127.578  0.00  0.00    +0.000 A 
ATOM     34  C   UNL     1      -8.843  -2.570 126.427  0.00  0.00    +0.000 A 
ATOM     35  C   UNL     1      -8.199  -2.542 125.188  0.00  0.00    +0.000 A 
ATOM     36  I   UNL     1      -9.213  -3.132 123.472  0.00  0.00    +0.000 I 
ATOM     37  C   UNL     1      -6.877  -2.126 125.102  0.00  0.00    +0.000 A 
ATOM     38  C   UNL     1      -6.197  -1.764 126.268  0.00  0.00    +0.000 A 
ATOM     39  F   UNL     1      -4.930  -1.334 126.148  0.00  0.00    +0.000 F 
ENDBRANCH  30  32
ENDBRANCH  15  30
TORSDOF 5
ENDMDL
MODEL 5
REMARK VINA RESULT:      -9.2      6.100      8.604
REMARK  Name = Trametinib
REMARK  8 active torsions:
REMARK  status: ('A' for Active; 'I' for Inactive)
REMARK    1  A    between atoms: C_1  and  N_2
REMARK    2  A    between atoms: C_5  and  C_6
REMARK    3  A    between atoms: N_8  and  C_28
REMARK    4  A    between atoms: N_11  and  C_12
REMARK    5  A    between atoms: C_18  and  N_19
REMARK    6  A    between atoms: N_19  and  C_20
REMARK    7  A    between atoms: C_30  and  N_31
REMARK    8  A    between atoms: C_32  and  C_33
REMARK                            x       y       z     vdW  Elec       q    Type
REMARK                         _______ _______ _______ _____ _____    ______ ____
ROOT
ATOM      1  C   UNL     1      -3.656   6.913 135.706  0.00  0.00    +0.000 C 
ATOM      2  N   UNL     1      -4.294   6.492 134.478  0.00  0.00    +0.000 N 
ATOM      3  C   UNL     1      -5.603   6.123 134.695  0.00  0.00    +0.000 A 
ATOM      4  O   UNL     1      -6.132   6.161 135.792  0.00  0.00    +0.000 OA
ATOM      5  C   UNL     1      -6.387   5.684 133.520  0.00  0.00    +0.000 A 
ATOM      6  C   UNL     1      -7.769   5.296 133.971  0.00  0.00    +0.000 C 
ATOM      7  C   UNL     1      -5.834   5.706 132.278  0.00  0.00    +0.000 A 
ATOM      8  N   UNL     1      -6.524   5.343 131.097  0.00  0.00    +0.000 N 
ATOM      9  C   UNL     1      -5.972   5.349 129.809  0.00  0.00    +0.000 A 
ATOM     10  O   UNL     1      -6.679   5.054 128.840  0.00  0.00    +0.000 OA
ATOM     11  N   UNL     1      -4.637   5.713 129.675  0.00  0.00    +0.000 N 
ATOM     12  C   UNL     1      -3.820   6.059 130.759  0.00  0.00    +0.000 A 
ATOM     13  O   UNL     1      -2.623   6.334 130.611  0.00  0.00    +0.000 OA
ATOM     14  C   UNL     1      -4.419   6.080 132.145  0.00  0.00    +0.000 A 
ATOM     15  C   UNL     1      -3.635   6.423 133.230  0.00  0.00    +0.000 A 
ENDROOT
BRANCH   8  16
ATOM     16  C   UNL     1      -7.931   5.061 131.085  0.00  0.00    +0.000 A 
ATOM     17  C   UNL     1      -8.894   6.097 130.963  0.00  0.00    +0.000 A 
ATOM     18  C   UNL     1     -10.233   5.765 130.727  0.00  0.00    +0.000 A 
ATOM     19  C   UNL     1     -10.511   4.416 130.556  0.00  0.00    +0.000 A 
ATOM     20  C   UNL     1      -9.609   3.397 130.787  0.00  0.00    +0.000 A 
ATOM     21  C   UNL     1      -8.319   3.717 131.118  0.00  0.00    +0.000 A 
BRANCH  18  22
ATOM     22  N   UNL     1     -11.225   6.764 130.631  0.00  0.00    +0.000 N 
ATOM     23  C   UNL     1     -11.444   7.770 129.728  0.00  0.00    +0.000 C 
ATOM     24  C   UNL     1     -10.552   8.122 128.556  0.00  0.00    +0.000 C 
ATOM     25  O   UNL     1     -12.462   8.458 129.886  0.00  0.00    +0.000 OA
ATOM     26  H   UNL     1     -11.986   6.720 131.306  0.00  0.00    +0.000 HD
ENDBRANCH  18  22
ENDBRANCH   8  16
BRANCH  11  27
ATOM     27  C   UNL     1      -3.938   5.528 128.379  0.00  0.00    +0.000 C 
ATOM     28  C   UNL     1      -3.248   4.235 127.984  0.00  0.00    +0.000 C 
ATOM     29  C   UNL     1      -4.334   4.803 127.121  0.00  0.00    +0.000 C 
ENDBRANCH  11  27
BRANCH  15  30
ATOM     30  N   UNL     1      -2.260   6.731 133.091  0.00  0.00    +0.000 N 
ATOM     31  H   UNL     1      -1.637   5.921 132.998  0.00  0.00    +0.000 HD
BRANCH  30  32
ATOM     32  C   UNL     1      -1.612   7.985 133.002  0.00  0.00    +0.000 A 
ATOM     33  C   UNL     1      -2.367   9.144 132.757  0.00  0.00    +0.000 A 
ATOM     34  C   UNL     1      -1.804  10.417 132.944  0.00  0.00    +0.000 A 
ATOM     35  C   UNL     1      -0.487  10.544 133.391  0.00  0.00    +0.000 A 
ATOM     36  I   UNL     1       0.316  12.427 133.751  0.00  0.00    +0.000 I 
ATOM     37  C   UNL     1       0.292   9.410 133.588  0.00  0.00    +0.000 A 
ATOM     38  C   UNL     1      -0.250   8.153 133.309  0.00  0.00    +0.000 A 
ATOM     39  F   UNL     1       0.516   7.073 133.542  0.00  0.00    +0.000 F 
ENDBRANCH  30  32
ENDBRANCH  15  30
TORSDOF 5
ENDMDL
MODEL 6
REMARK VINA RESULT:      -9.2      3.571      6.751
REMARK  Name = Trametinib
REMARK  8 active torsions:
REMARK  status: ('A' for Active; 'I' for Inactive)
REMARK    1  A    between atoms: C_1  and  N_2
REMARK    2  A    between atoms: C_5  and  C_6
REMARK    3  A    between atoms: N_8  and  C_28
REMARK    4  A    between atoms: N_11  and  C_12
REMARK    5  A    between atoms: C_18  and  N_19
REMARK    6  A    between atoms: N_19  and  C_20
REMARK    7  A    between atoms: C_30  and  N_31
REMARK    8  A    between atoms: C_32  and  C_33
REMARK                            x       y       z     vdW  Elec       q    Type
REMARK                         _______ _______ _______ _____ _____    ______ ____
ROOT
ATOM      1  C   UNL     1      -7.595   4.078 128.032  0.00  0.00    +0.000 C 
ATOM      2  N   UNL     1      -7.537   2.632 128.049  0.00  0.00    +0.000 N 
ATOM      3  C   UNL     1      -6.876   2.170 129.164  0.00  0.00    +0.000 A 
ATOM      4  O   UNL     1      -6.410   2.909 130.015  0.00  0.00    +0.000 OA
ATOM      5  C   UNL     1      -6.754   0.704 129.322  0.00  0.00    +0.000 A 
ATOM      6  C   UNL     1      -5.975   0.410 130.576  0.00  0.00    +0.000 C 
ATOM      7  C   UNL     1      -7.330  -0.133 128.420  0.00  0.00    +0.000 A 
ATOM      8  N   UNL     1      -7.300  -1.545 128.517  0.00  0.00    +0.000 N 
ATOM      9  C   UNL     1      -7.878  -2.427 127.595  0.00  0.00    +0.000 A 
ATOM     10  O   UNL     1      -7.828  -3.645 127.799  0.00  0.00    +0.000 OA
ATOM     11  N   UNL     1      -8.511  -1.884 126.482  0.00  0.00    +0.000 N 
ATOM     12  C   UNL     1      -8.586  -0.506 126.235  0.00  0.00    +0.000 A 
ATOM     13  O   UNL     1      -9.117  -0.057 125.213  0.00  0.00    +0.000 OA
ATOM     14  C   UNL     1      -7.988   0.448 127.241  0.00  0.00    +0.000 A 
ATOM     15  C   UNL     1      -8.054   1.811 127.022  0.00  0.00    +0.000 A 
ENDROOT
BRANCH   8  16
ATOM     16  C   UNL     1      -6.781  -2.225 129.669  0.00  0.00    +0.000 A 
ATOM     17  C   UNL     1      -7.524  -2.312 130.875  0.00  0.00    +0.000 A 
ATOM     18  C   UNL     1      -7.086  -3.171 131.890  0.00  0.00    +0.000 A 
ATOM     19  C   UNL     1      -5.969  -3.942 131.603  0.00  0.00    +0.000 A 
ATOM     20  C   UNL     1      -5.174  -3.782 130.486  0.00  0.00    +0.000 A 
ATOM     21  C   UNL     1      -5.545  -2.868 129.536  0.00  0.00    +0.000 A 
BRANCH  18  22
ATOM     22  N   UNL     1      -7.780  -3.263 133.116  0.00  0.00    +0.000 N 
ATOM     23  C   UNL     1      -7.550  -2.723 134.354  0.00  0.00    +0.000 C 
ATOM     24  C   UNL     1      -6.353  -1.885 134.751  0.00  0.00    +0.000 C 
ATOM     25  O   UNL     1      -8.398  -2.943 135.231  0.00  0.00    +0.000 OA
ATOM     26  H   UNL     1      -8.668  -3.760 133.104  0.00  0.00    +0.000 HD
ENDBRANCH  18  22
ENDBRANCH   8  16
BRANCH  11  27
ATOM     27  C   UNL     1      -8.946  -2.760 125.367  0.00  0.00    +0.000 C 
ATOM     28  C   UNL     1      -8.257  -2.787 124.014  0.00  0.00    +0.000 C 
ATOM     29  C   UNL     1      -8.381  -4.044 124.822  0.00  0.00    +0.000 C 
ENDBRANCH  11  27
BRANCH  15  30
ATOM     30  N   UNL     1      -8.645   2.353 125.855  0.00  0.00    +0.000 N 
ATOM     31  H   UNL     1      -9.671   2.355 125.845  0.00  0.00    +0.000 HD
BRANCH  30  32
ATOM     32  C   UNL     1      -8.043   2.948 124.722  0.00  0.00    +0.000 A 
ATOM     33  C   UNL     1      -6.772   3.532 124.834  0.00  0.00    +0.000 A 
ATOM     34  C   UNL     1      -6.036   3.870 123.686  0.00  0.00    +0.000 A 
ATOM     35  C   UNL     1      -6.559   3.615 122.417  0.00  0.00    +0.000 A 
ATOM     36  I   UNL     1      -5.433   4.036 120.721  0.00  0.00    +0.000 I 
ATOM     37  C   UNL     1      -7.837   3.087 122.285  0.00  0.00    +0.000 A 
ATOM     38  C   UNL     1      -8.595   2.841 123.432  0.00  0.00    +0.000 A 
ATOM     39  F   UNL     1      -9.815   2.298 123.275  0.00  0.00    +0.000 F 
ENDBRANCH  30  32
ENDBRANCH  15  30
TORSDOF 5
ENDMDL
MODEL 7
REMARK VINA RESULT:      -9.0      4.090      5.837
REMARK  Name = Trametinib
REMARK  8 active torsions:
REMARK  status: ('A' for Active; 'I' for Inactive)
REMARK    1  A    between atoms: C_1  and  N_2
REMARK    2  A    between atoms: C_5  and  C_6
REMARK    3  A    between atoms: N_8  and  C_28
REMARK    4  A    between atoms: N_11  and  C_12
REMARK    5  A    between atoms: C_18  and  N_19
REMARK    6  A    between atoms: N_19  and  C_20
REMARK    7  A    between atoms: C_30  and  N_31
REMARK    8  A    between atoms: C_32  and  C_33
REMARK                            x       y       z     vdW  Elec       q    Type
REMARK                         _______ _______ _______ _____ _____    ______ ____
ROOT
ATOM      1  C   UNL     1      -2.294   4.506 127.487  0.00  0.00    +0.000 C 
ATOM      2  N   UNL     1      -3.651   4.068 127.734  0.00  0.00    +0.000 N 
ATOM      3  C   UNL     1      -3.930   2.898 127.063  0.00  0.00    +0.000 A 
ATOM      4  O   UNL     1      -3.116   2.325 126.360  0.00  0.00    +0.000 OA
ATOM      5  C   UNL     1      -5.281   2.322 127.236  0.00  0.00    +0.000 A 
ATOM      6  C   UNL     1      -5.393   1.076 126.401  0.00  0.00    +0.000 C 
ATOM      7  C   UNL     1      -6.175   2.911 128.074  0.00  0.00    +0.000 A 
ATOM      8  N   UNL     1      -7.472   2.404 128.331  0.00  0.00    +0.000 N 
ATOM      9  C   UNL     1      -8.413   2.998 129.183  0.00  0.00    +0.000 A 
ATOM     10  O   UNL     1      -9.503   2.447 129.368  0.00  0.00    +0.000 OA
ATOM     11  N   UNL     1      -8.064   4.191 129.808  0.00  0.00    +0.000 N 
ATOM     12  C   UNL     1      -6.831   4.828 129.618  0.00  0.00    +0.000 A 
ATOM     13  O   UNL     1      -6.569   5.911 130.155  0.00  0.00    +0.000 OA
ATOM     14  C   UNL     1      -5.805   4.176 128.723  0.00  0.00    +0.000 A 
ATOM     15  C   UNL     1      -4.578   4.782 128.524  0.00  0.00    +0.000 A 
ENDROOT
BRANCH   8  16
ATOM     16  C   UNL     1      -7.911   1.129 127.841  0.00  0.00    +0.000 A 
ATOM     17  C   UNL     1      -8.541   0.999 126.575  0.00  0.00    +0.000 A 
ATOM     18  C   UNL     1      -8.745  -0.278 126.039  0.00  0.00    +0.000 A 
ATOM     19  C   UNL     1      -8.240  -1.341 126.773  0.00  0.00    +0.000 A 
ATOM     20  C   UNL     1      -7.733  -1.237 128.053  0.00  0.00    +0.000 A 
ATOM     21  C   UNL     1      -7.624   0.005 128.622  0.00  0.00    +0.000 A 
BRANCH  18  22
ATOM     22  N   UNL     1      -9.396  -0.451 124.799  0.00  0.00    +0.000 N 
ATOM     23  C   UNL     1      -8.942  -0.796 123.553  0.00  0.00    +0.000 C 
ATOM     24  C   UNL     1      -7.496  -1.025 123.166  0.00  0.00    +0.000 C 
ATOM     25  O   UNL     1      -9.791  -0.931 122.661  0.00  0.00    +0.000 OA
ATOM     26  H   UNL     1     -10.412  -0.383 124.801  0.00  0.00    +0.000 HD
ENDBRANCH  18  22
ENDBRANCH   8  16
BRANCH  11  27
ATOM     27  C   UNL     1      -9.086   4.978 130.541  0.00  0.00    +0.000 C 
ATOM     28  C   UNL     1      -9.488   4.686 131.976  0.00  0.00    +0.000 C 
ATOM     29  C   UNL     1      -8.964   6.040 131.601  0.00  0.00    +0.000 C 
ENDBRANCH  11  27
BRANCH  15  30
ATOM     30  N   UNL     1      -4.256   6.028 129.116  0.00  0.00    +0.000 N 
ATOM     31  H   UNL     1      -4.627   6.852 128.629  0.00  0.00    +0.000 HD
BRANCH  30  32
ATOM     32  C   UNL     1      -3.551   6.315 130.307  0.00  0.00    +0.000 A 
ATOM     33  C   UNL     1      -2.679   5.358 130.849  0.00  0.00    +0.000 A 
ATOM     34  C   UNL     1      -1.763   5.711 131.853  0.00  0.00    +0.000 A 
ATOM     35  C   UNL     1      -1.701   7.027 132.316  0.00  0.00    +0.000 A 
ATOM     36  I   UNL     1      -0.286   7.568 133.739  0.00  0.00    +0.000 I 
ATOM     37  C   UNL     1      -2.592   7.976 131.830  0.00  0.00    +0.000 A 
ATOM     38  C   UNL     1      -3.559   7.591 130.899  0.00  0.00    +0.000 A 
ATOM     39  F   UNL     1      -4.384   8.539 130.422  0.00  0.00    +0.000 F 
ENDBRANCH  30  32
ENDBRANCH  15  30
TORSDOF 5
ENDMDL
MODEL 8
REMARK VINA RESULT:      -8.9      1.856      2.233
REMARK  Name = Trametinib
REMARK  8 active torsions:
REMARK  status: ('A' for Active; 'I' for Inactive)
REMARK    1  A    between atoms: C_1  and  N_2
REMARK    2  A    between atoms: C_5  and  C_6
REMARK    3  A    between atoms: N_8  and  C_28
REMARK    4  A    between atoms: N_11  and  C_12
REMARK    5  A    between atoms: C_18  and  N_19
REMARK    6  A    between atoms: N_19  and  C_20
REMARK    7  A    between atoms: C_30  and  N_31
REMARK    8  A    between atoms: C_32  and  C_33
REMARK                            x       y       z     vdW  Elec       q    Type
REMARK                         _______ _______ _______ _____ _____    ______ ____
ROOT
ATOM      1  C   UNL     1      -8.061   1.239 132.029  0.00  0.00    +0.000 C 
ATOM      2  N   UNL     1      -7.957   1.100 130.593  0.00  0.00    +0.000 N 
ATOM      3  C   UNL     1      -7.931  -0.224 130.218  0.00  0.00    +0.000 A 
ATOM      4  O   UNL     1      -7.993  -1.143 131.017  0.00  0.00    +0.000 OA
ATOM      5  C   UNL     1      -7.843  -0.518 128.771  0.00  0.00    +0.000 A 
ATOM      6  C   UNL     1      -7.794  -2.010 128.577  0.00  0.00    +0.000 C 
ATOM      7  C   UNL     1      -7.848   0.494 127.864  0.00  0.00    +0.000 A 
ATOM      8  N   UNL     1      -7.809   0.302 126.462  0.00  0.00    +0.000 N 
ATOM      9  C   UNL     1      -7.803   1.329 125.509  0.00  0.00    +0.000 A 
ATOM     10  O   UNL     1      -7.811   1.047 124.306  0.00  0.00    +0.000 OA
ATOM     11  N   UNL     1      -7.809   2.642 125.967  0.00  0.00    +0.000 N 
ATOM     12  C   UNL     1      -7.808   2.984 127.326  0.00  0.00    +0.000 A 
ATOM     13  O   UNL     1      -7.768   4.162 127.700  0.00  0.00    +0.000 OA
ATOM     14  C   UNL     1      -7.842   1.879 128.354  0.00  0.00    +0.000 A 
ATOM     15  C   UNL     1      -7.847   2.191 129.701  0.00  0.00    +0.000 A 
ENDROOT
BRANCH   8  16
ATOM     16  C   UNL     1      -7.916  -0.997 125.861  0.00  0.00    +0.000 A 
ATOM     17  C   UNL     1      -6.763  -1.734 125.482  0.00  0.00    +0.000 A 
ATOM     18  C   UNL     1      -6.899  -3.078 125.113  0.00  0.00    +0.000 A 
ATOM     19  C   UNL     1      -8.173  -3.618 125.217  0.00  0.00    +0.000 A 
ATOM     20  C   UNL     1      -9.314  -2.885 125.470  0.00  0.00    +0.000 A 
ATOM     21  C   UNL     1      -9.196  -1.546 125.733  0.00  0.00    +0.000 A 
BRANCH  18  22
ATOM     22  N   UNL     1      -5.782  -3.836 124.701  0.00  0.00    +0.000 N 
ATOM     23  C   UNL     1      -4.900  -3.698 123.662  0.00  0.00    +0.000 C 
ATOM     24  C   UNL     1      -4.964  -2.644 122.575  0.00  0.00    +0.000 C 
ATOM     25  O   UNL     1      -3.965  -4.509 123.604  0.00  0.00    +0.000 OA
ATOM     26  H   UNL     1      -5.501  -4.605 125.306  0.00  0.00    +0.000 HD
ENDBRANCH  18  22
ENDBRANCH   8  16
BRANCH  11  27
ATOM     27  C   UNL     1      -7.582   3.764 125.024  0.00  0.00    +0.000 C 
ATOM     28  C   UNL     1      -6.214   4.372 124.769  0.00  0.00    +0.000 C 
ATOM     29  C   UNL     1      -7.010   3.804 123.632  0.00  0.00    +0.000 C 
ENDBRANCH  11  27
BRANCH  15  30
ATOM     30  N   UNL     1      -7.790   3.530 130.159  0.00  0.00    +0.000 N 
ATOM     31  H   UNL     1      -6.847   3.930 130.224  0.00  0.00    +0.000 HD
BRANCH  30  32
ATOM     32  C   UNL     1      -8.834   4.426 130.485  0.00  0.00    +0.000 A 
ATOM     33  C   UNL     1      -8.554   5.791 130.655  0.00  0.00    +0.000 A 
ATOM     34  C   UNL     1      -9.593   6.735 130.695  0.00  0.00    +0.000 A 
ATOM     35  C   UNL     1     -10.920   6.325 130.552  0.00  0.00    +0.000 A 
ATOM     36  I   UNL     1     -12.450   7.732 130.525  0.00  0.00    +0.000 I 
ATOM     37  C   UNL     1     -11.221   4.973 130.437  0.00  0.00    +0.000 A 
ATOM     38  C   UNL     1     -10.186   4.037 130.491  0.00  0.00    +0.000 A 
ATOM     39  F   UNL     1     -10.503   2.740 130.342  0.00  0.00    +0.000 F 
ENDBRANCH  30  32
ENDBRANCH  15  30
TORSDOF 5
ENDMDL
MODEL 9
REMARK VINA RESULT:      -8.8      4.529      8.869
REMARK  Name = Trametinib
REMARK  8 active torsions:
REMARK  status: ('A' for Active; 'I' for Inactive)
REMARK    1  A    between atoms: C_1  and  N_2
REMARK    2  A    between atoms: C_5  and  C_6
REMARK    3  A    between atoms: N_8  and  C_28
REMARK    4  A    between atoms: N_11  and  C_12
REMARK    5  A    between atoms: C_18  and  N_19
REMARK    6  A    between atoms: N_19  and  C_20
REMARK    7  A    between atoms: C_30  and  N_31
REMARK    8  A    between atoms: C_32  and  C_33
REMARK                            x       y       z     vdW  Elec       q    Type
REMARK                         _______ _______ _______ _____ _____    ______ ____
ROOT
ATOM      1  C   UNL     1      -5.794   3.149 124.938  0.00  0.00    +0.000 C 
ATOM      2  N   UNL     1      -5.784   3.344 126.372  0.00  0.00    +0.000 N 
ATOM      3  C   UNL     1      -4.530   3.692 126.821  0.00  0.00    +0.000 A 
ATOM      4  O   UNL     1      -3.570   3.816 126.081  0.00  0.00    +0.000 OA
ATOM      5  C   UNL     1      -4.374   3.939 128.271  0.00  0.00    +0.000 A 
ATOM      6  C   UNL     1      -2.934   4.270 128.559  0.00  0.00    +0.000 C 
ATOM      7  C   UNL     1      -5.451   3.876 129.098  0.00  0.00    +0.000 A 
ATOM      8  N   UNL     1      -5.399   4.140 130.488  0.00  0.00    +0.000 N 
ATOM      9  C   UNL     1      -6.493   4.072 131.361  0.00  0.00    +0.000 A 
ATOM     10  O   UNL     1      -6.344   4.364 132.552  0.00  0.00    +0.000 OA
ATOM     11  N   UNL     1      -7.724   3.692 130.834  0.00  0.00    +0.000 N 
ATOM     12  C   UNL     1      -7.916   3.364 129.486  0.00  0.00    +0.000 A 
ATOM     13  O   UNL     1      -9.014   2.987 129.059  0.00  0.00    +0.000 OA
ATOM     14  C   UNL     1      -6.745   3.463 128.538  0.00  0.00    +0.000 A 
ATOM     15  C   UNL     1      -6.911   3.151 127.202  0.00  0.00    +0.000 A 
ENDROOT
BRANCH   8  16
ATOM     16  C   UNL     1      -4.221   4.650 131.130  0.00  0.00    +0.000 A 
ATOM     17  C   UNL     1      -3.962   6.043 131.203  0.00  0.00    +0.000 A 
ATOM     18  C   UNL     1      -2.931   6.507 132.029  0.00  0.00    +0.000 A 
ATOM     19  C   UNL     1      -2.271   5.548 132.784  0.00  0.00    +0.000 A 
ATOM     20  C   UNL     1      -2.435   4.186 132.636  0.00  0.00    +0.000 A 
ATOM     21  C   UNL     1      -3.375   3.725 131.752  0.00  0.00    +0.000 A 
BRANCH  18  22
ATOM     22  N   UNL     1      -2.621   7.881 132.105  0.00  0.00    +0.000 N 
ATOM     23  C   UNL     1      -2.450   8.737 133.161  0.00  0.00    +0.000 C 
ATOM     24  C   UNL     1      -2.640   8.393 134.623  0.00  0.00    +0.000 C 
ATOM     25  O   UNL     1      -2.112   9.899 132.896  0.00  0.00    +0.000 OA
ATOM     26  H   UNL     1      -2.405   8.352 131.228  0.00  0.00    +0.000 HD
ENDBRANCH  18  22
ENDBRANCH   8  16
BRANCH  11  27
ATOM     27  C   UNL     1      -8.862   3.389 131.736  0.00  0.00    +0.000 C 
ATOM     28  C   UNL     1      -9.174   1.991 132.240  0.00  0.00    +0.000 C 
ATOM     29  C   UNL     1      -8.922   3.104 133.214  0.00  0.00    +0.000 C 
ENDBRANCH  11  27
BRANCH  15  30
ATOM     30  N   UNL     1      -8.153   2.704 126.687  0.00  0.00    +0.000 N 
ATOM     31  H   UNL     1      -8.890   3.418 126.641  0.00  0.00    +0.000 HD
BRANCH  30  32
ATOM     32  C   UNL     1      -8.523   1.441 126.170  0.00  0.00    +0.000 A 
ATOM     33  C   UNL     1      -9.001   1.339 124.854  0.00  0.00    +0.000 A 
ATOM     34  C   UNL     1      -9.103   0.088 124.224  0.00  0.00    +0.000 A 
ATOM     35  C   UNL     1      -8.716  -1.071 124.900  0.00  0.00    +0.000 A 
ATOM     36  I   UNL     1      -8.786  -2.913 123.938  0.00  0.00    +0.000 I 
ATOM     37  C   UNL     1      -8.291  -0.997 126.221  0.00  0.00    +0.000 A 
ATOM     38  C   UNL     1      -8.281   0.243 126.865  0.00  0.00    +0.000 A 
ATOM     39  F   UNL     1      -7.832   0.289 128.131  0.00  0.00    +0.000 F 
ENDBRANCH  30  32
ENDBRANCH  15  30
TORSDOF 5
ENDMDL
