MODEL 1
REMARK VINA RESULT:      -6.3      0.000      0.000
REMARK  Name = Tramadol
REMARK  8 active torsions:
REMARK  status: ('A' for Active; 'I' for Inactive)
REMARK    1  A    between atoms: C_1  and  O_2
REMARK    2  A    between atoms: O_2  and  C_3
REMARK    3  A    between atoms: C_7  and  C_9
REMARK    4  A    between atoms: C_9  and  O_10
REMARK    5  A    between atoms: C_15  and  C_16
REMARK    6  A    between atoms: C_16  and  N_17
REMARK    7  A    between atoms: N_17  and  C_18
REMARK    8  A    between atoms: N_17  and  C_19
REMARK                            x       y       z     vdW  Elec       q    Type
REMARK                         _______ _______ _______ _____ _____    ______ ____
ROOT
ATOM      1  C   UNL     1      -8.268   2.609 123.743  0.00  0.00    +0.000 C 
ATOM      2  C   UNL     1      -9.568   1.837 124.048  0.00  0.00    +0.000 C 
ATOM      3  C   UNL     1      -9.661   0.502 123.322  0.00  0.00    +0.000 C 
ATOM      4  C   UNL     1      -8.413  -0.358 123.483  0.00  0.00    +0.000 C 
ATOM      5  C   UNL     1      -7.105   0.423 123.312  0.00  0.00    +0.000 C 
ATOM      6  C   UNL     1      -7.050   1.710 124.203  0.00  0.00    +0.000 C 
ENDROOT
BRANCH   1  11
ATOM      7  C   UNL     1      -6.423   4.071 120.753  0.00  0.00    +0.000 A 
ATOM      8  C   UNL     1      -7.459   4.179 119.839  0.00  0.00    +0.000 A 
ATOM      9  C   UNL     1      -8.763   3.800 120.161  0.00  0.00    +0.000 A 
ATOM     10  C   UNL     1      -9.036   3.273 121.419  0.00  0.00    +0.000 A 
ATOM     11  C   UNL     1      -8.009   3.089 122.327  0.00  0.00    +0.000 A 
ATOM     12  C   UNL     1      -6.699   3.525 122.003  0.00  0.00    +0.000 A 
BRANCH   7  14
ATOM     13  C   UNL     1      -5.267   5.646 119.424  0.00  0.00    +0.000 C 
ATOM     14  O   UNL     1      -5.223   4.620 120.411  0.00  0.00    +0.000 OA
ENDBRANCH   7  14
ENDBRANCH   1  11
BRANCH   1  15
ATOM     15  O   UNL     1      -8.402   3.915 124.293  0.00  0.00    +0.000 OA
ATOM     16  H   UNL     1      -8.384   3.888 125.260  0.00  0.00    +0.000 HD
ENDBRANCH   1  15
BRANCH   6  17
ATOM     17  C   UNL     1      -6.959   1.274 125.703  0.00  0.00    +0.000 C 
BRANCH  17  18
ATOM     18  N   UNL     1      -7.371   2.237 126.739  0.00  0.00    +0.000 NA
ATOM     19  C   UNL     1      -8.203   1.652 127.771  0.00  0.00    +0.000 C 
ATOM     20  C   UNL     1      -6.229   2.855 127.398  0.00  0.00    +0.000 C 
ENDBRANCH  17  18
ENDBRANCH   6  17
TORSDOF 5
ENDMDL
MODEL 2
REMARK VINA RESULT:      -6.0      6.957      8.819
REMARK  Name = Tramadol
REMARK  8 active torsions:
REMARK  status: ('A' for Active; 'I' for Inactive)
REMARK    1  A    between atoms: C_1  and  O_2
REMARK    2  A    between atoms: O_2  and  C_3
REMARK    3  A    between atoms: C_7  and  C_9
REMARK    4  A    between atoms: C_9  and  O_10
REMARK    5  A    between atoms: C_15  and  C_16
REMARK    6  A    between atoms: C_16  and  N_17
REMARK    7  A    between atoms: N_17  and  C_18
REMARK    8  A    between atoms: N_17  and  C_19
REMARK                            x       y       z     vdW  Elec       q    Type
REMARK                         _______ _______ _______ _____ _____    ______ ____
ROOT
ATOM      1  C   UNL     1      -9.062   6.225 130.815  0.00  0.00    +0.000 C 
ATOM      2  C   UNL     1      -8.696   6.088 132.307  0.00  0.00    +0.000 C 
ATOM      3  C   UNL     1      -9.408   4.934 132.998  0.00  0.00    +0.000 C 
ATOM      4  C   UNL     1      -9.294   3.617 132.241  0.00  0.00    +0.000 C 
ATOM      5  C   UNL     1      -9.527   3.757 130.732  0.00  0.00    +0.000 C 
ATOM      6  C   UNL     1      -8.648   4.881 130.088  0.00  0.00    +0.000 C 
ENDROOT
BRANCH   1  11
ATOM      7  C   UNL     1     -12.042   7.208 128.663  0.00  0.00    +0.000 A 
ATOM      8  C   UNL     1     -13.012   7.390 129.635  0.00  0.00    +0.000 A 
ATOM      9  C   UNL     1     -12.734   7.212 130.990  0.00  0.00    +0.000 A 
ATOM     10  C   UNL     1     -11.460   6.818 131.386  0.00  0.00    +0.000 A 
ATOM     11  C   UNL     1     -10.490   6.563 130.433  0.00  0.00    +0.000 A 
ATOM     12  C   UNL     1     -10.774   6.795 129.064  0.00  0.00    +0.000 A 
BRANCH   7  14
ATOM     13  C   UNL     1     -11.272   7.588 126.460  0.00  0.00    +0.000 C 
ATOM     14  O   UNL     1     -12.356   7.565 127.385  0.00  0.00    +0.000 OA
ENDBRANCH   7  14
ENDBRANCH   1  11
BRANCH   1  15
ATOM     15  O   UNL     1      -8.515   7.453 130.348  0.00  0.00    +0.000 OA
ATOM     16  H   UNL     1      -8.338   7.416 129.396  0.00  0.00    +0.000 HD
ENDBRANCH   1  15
BRANCH   6  17
ATOM     17  C   UNL     1      -7.150   4.431 130.132  0.00  0.00    +0.000 C 
BRANCH  17  18
ATOM     18  N   UNL     1      -6.128   5.338 129.581  0.00  0.00    +0.000 NA
ATOM     19  C   UNL     1      -5.300   5.956 130.597  0.00  0.00    +0.000 C 
ATOM     20  C   UNL     1      -5.241   4.661 128.647  0.00  0.00    +0.000 C 
ENDBRANCH  17  18
ENDBRANCH   6  17
TORSDOF 5
ENDMDL
MODEL 3
REMARK VINA RESULT:      -6.0      1.403      1.932
REMARK  Name = Tramadol
REMARK  8 active torsions:
REMARK  status: ('A' for Active; 'I' for Inactive)
REMARK    1  A    between atoms: C_1  and  O_2
REMARK    2  A    between atoms: O_2  and  C_3
REMARK    3  A    between atoms: C_7  and  C_9
REMARK    4  A    between atoms: C_9  and  O_10
REMARK    5  A    between atoms: C_15  and  C_16
REMARK    6  A    between atoms: C_16  and  N_17
REMARK    7  A    between atoms: N_17  and  C_18
REMARK    8  A    between atoms: N_17  and  C_19
REMARK                            x       y       z     vdW  Elec       q    Type
REMARK                         _______ _______ _______ _____ _____    ______ ____
ROOT
ATOM      1  C   UNL     1      -8.885   2.127 124.020  0.00  0.00    +0.000 C 
ATOM      2  C   UNL     1     -10.210   1.483 123.564  0.00  0.00    +0.000 C 
ATOM      3  C   UNL     1     -10.018   0.340 122.577  0.00  0.00    +0.000 C 
ATOM      4  C   UNL     1      -8.993  -0.688 123.041  0.00  0.00    +0.000 C 
ATOM      5  C   UNL     1      -7.718  -0.063 123.619  0.00  0.00    +0.000 C 
ATOM      6  C   UNL     1      -8.018   1.005 124.725  0.00  0.00    +0.000 C 
ENDROOT
BRANCH   1  11
ATOM      7  C   UNL     1      -7.865   3.816 120.766  0.00  0.00    +0.000 A 
ATOM      8  C   UNL     1      -6.502   3.959 120.967  0.00  0.00    +0.000 A 
ATOM      9  C   UNL     1      -5.882   3.513 122.135  0.00  0.00    +0.000 A 
ATOM     10  C   UNL     1      -6.647   2.932 123.141  0.00  0.00    +0.000 A 
ATOM     11  C   UNL     1      -8.019   2.837 122.997  0.00  0.00    +0.000 A 
ATOM     12  C   UNL     1      -8.628   3.251 121.785  0.00  0.00    +0.000 A 
BRANCH   7  14
ATOM     13  C   UNL     1      -7.396   4.556 118.571  0.00  0.00    +0.000 C 
ATOM     14  O   UNL     1      -8.356   4.125 119.532  0.00  0.00    +0.000 OA
ENDBRANCH   7  14
ENDBRANCH   1  11
BRANCH   1  15
ATOM     15  O   UNL     1      -9.206   3.305 124.750  0.00  0.00    +0.000 OA
ATOM     16  H   UNL     1      -8.417   3.844 124.906  0.00  0.00    +0.000 HD
ENDBRANCH   1  15
BRANCH   6  17
ATOM     17  C   UNL     1      -8.605   0.276 125.978  0.00  0.00    +0.000 C 
BRANCH  17  18
ATOM     18  N   UNL     1      -7.878   0.382 127.256  0.00  0.00    +0.000 NA
ATOM     19  C   UNL     1      -6.724  -0.490 127.336  0.00  0.00    +0.000 C 
ATOM     20  C   UNL     1      -7.418   1.739 127.512  0.00  0.00    +0.000 C 
ENDBRANCH  17  18
ENDBRANCH   6  17
TORSDOF 5
ENDMDL
MODEL 4
REMARK VINA RESULT:      -5.9      4.406      7.889
REMARK  Name = Tramadol
REMARK  8 active torsions:
REMARK  status: ('A' for Active; 'I' for Inactive)
REMARK    1  A    between atoms: C_1  and  O_2
REMARK    2  A    between atoms: O_2  and  C_3
REMARK    3  A    between atoms: C_7  and  C_9
REMARK    4  A    between atoms: C_9  and  O_10
REMARK    5  A    between atoms: C_15  and  C_16
REMARK    6  A    between atoms: C_16  and  N_17
REMARK    7  A    between atoms: N_17  and  C_18
REMARK    8  A    between atoms: N_17  and  C_19
REMARK                            x       y       z     vdW  Elec       q    Type
REMARK                         _______ _______ _______ _____ _____    ______ ____
ROOT
ATOM      1  C   UNL     1      -7.395  -1.179 125.840  0.00  0.00    +0.000 C 
ATOM      2  C   UNL     1      -5.990  -0.966 125.240  0.00  0.00    +0.000 C 
ATOM      3  C   UNL     1      -5.353  -2.249 124.726  0.00  0.00    +0.000 C 
ATOM      4  C   UNL     1      -6.269  -3.050 123.809  0.00  0.00    +0.000 C 
ATOM      5  C   UNL     1      -7.707  -3.162 124.327  0.00  0.00    +0.000 C 
ATOM      6  C   UNL     1      -8.323  -1.772 124.702  0.00  0.00    +0.000 C 
ENDROOT
BRANCH   1  11
ATOM      7  C   UNL     1      -6.493  -2.932 129.094  0.00  0.00    +0.000 A 
ATOM      8  C   UNL     1      -7.617  -3.720 129.282  0.00  0.00    +0.000 A 
ATOM      9  C   UNL     1      -8.675  -3.716 128.373  0.00  0.00    +0.000 A 
ATOM     10  C   UNL     1      -8.623  -2.883 127.260  0.00  0.00    +0.000 A 
ATOM     11  C   UNL     1      -7.545  -2.035 127.083  0.00  0.00    +0.000 A 
ATOM     12  C   UNL     1      -6.456  -2.087 127.989  0.00  0.00    +0.000 A 
BRANCH   7  14
ATOM     13  C   UNL     1      -5.373  -4.403 130.567  0.00  0.00    +0.000 C 
ATOM     14  O   UNL     1      -5.441  -3.126 129.939  0.00  0.00    +0.000 OA
ENDBRANCH   7  14
ENDBRANCH   1  11
BRANCH   1  15
ATOM     15  O   UNL     1      -7.781   0.033 126.477  0.00  0.00    +0.000 OA
ATOM     16  H   UNL     1      -7.029   0.636 126.562  0.00  0.00    +0.000 HD
ENDBRANCH   1  15
BRANCH   6  17
ATOM     17  C   UNL     1      -8.528  -0.946 123.389  0.00  0.00    +0.000 C 
BRANCH  17  18
ATOM     18  N   UNL     1      -9.066   0.422 123.498  0.00  0.00    +0.000 NA
ATOM     19  C   UNL     1      -8.081   1.451 123.233  0.00  0.00    +0.000 C 
ATOM     20  C   UNL     1     -10.183   0.644 122.592  0.00  0.00    +0.000 C 
ENDBRANCH  17  18
ENDBRANCH   6  17
TORSDOF 5
ENDMDL
MODEL 5
REMARK VINA RESULT:      -5.8      3.313      4.760
REMARK  Name = Tramadol
REMARK  8 active torsions:
REMARK  status: ('A' for Active; 'I' for Inactive)
REMARK    1  A    between atoms: C_1  and  O_2
REMARK    2  A    between atoms: O_2  and  C_3
REMARK    3  A    between atoms: C_7  and  C_9
REMARK    4  A    between atoms: C_9  and  O_10
REMARK    5  A    between atoms: C_15  and  C_16
REMARK    6  A    between atoms: C_16  and  N_17
REMARK    7  A    between atoms: N_17  and  C_18
REMARK    8  A    between atoms: N_17  and  C_19
REMARK                            x       y       z     vdW  Elec       q    Type
REMARK                         _______ _______ _______ _____ _____    ______ ____
ROOT
ATOM      1  C   UNL     1      -8.547  -1.502 125.193  0.00  0.00    +0.000 C 
ATOM      2  C   UNL     1      -8.182  -2.791 124.427  0.00  0.00    +0.000 C 
ATOM      3  C   UNL     1      -6.853  -2.699 123.692  0.00  0.00    +0.000 C 
ATOM      4  C   UNL     1      -5.714  -2.193 124.570  0.00  0.00    +0.000 C 
ATOM      5  C   UNL     1      -6.099  -0.989 125.438  0.00  0.00    +0.000 C 
ATOM      6  C   UNL     1      -7.410  -1.233 126.260  0.00  0.00    +0.000 C 
ENDROOT
BRANCH   1  11
ATOM      7  C   UNL     1      -8.994   2.207 124.471  0.00  0.00    +0.000 A 
ATOM      8  C   UNL     1      -9.418   2.163 123.153  0.00  0.00    +0.000 A 
ATOM      9  C   UNL     1      -9.580   0.955 122.475  0.00  0.00    +0.000 A 
ATOM     10  C   UNL     1      -9.284  -0.242 123.120  0.00  0.00    +0.000 A 
ATOM     11  C   UNL     1      -8.793  -0.225 124.413  0.00  0.00    +0.000 A 
ATOM     12  C   UNL     1      -8.681   1.007 125.105  0.00  0.00    +0.000 A 
BRANCH   7  14
ATOM     13  C   UNL     1      -7.782   4.101 125.198  0.00  0.00    +0.000 C 
ATOM     14  O   UNL     1      -9.027   3.414 125.103  0.00  0.00    +0.000 OA
ENDBRANCH   7  14
ENDBRANCH   1  11
BRANCH   1  15
ATOM     15  O   UNL     1      -9.891  -1.633 125.642  0.00  0.00    +0.000 OA
ATOM     16  H   UNL     1     -10.364  -0.791 125.575  0.00  0.00    +0.000 HD
ENDBRANCH   1  15
BRANCH   6  17
ATOM     17  C   UNL     1      -7.123  -2.321 127.346  0.00  0.00    +0.000 C 
BRANCH  17  18
ATOM     18  N   UNL     1      -8.217  -2.715 128.252  0.00  0.00    +0.000 NA
ATOM     19  C   UNL     1      -8.771  -4.020 127.951  0.00  0.00    +0.000 C 
ATOM     20  C   UNL     1      -7.796  -2.730 129.645  0.00  0.00    +0.000 C 
ENDBRANCH  17  18
ENDBRANCH   6  17
TORSDOF 5
ENDMDL
MODEL 6
REMARK VINA RESULT:      -5.6      3.042      6.252
REMARK  Name = Tramadol
REMARK  8 active torsions:
REMARK  status: ('A' for Active; 'I' for Inactive)
REMARK    1  A    between atoms: C_1  and  O_2
REMARK    2  A    between atoms: O_2  and  C_3
REMARK    3  A    between atoms: C_7  and  C_9
REMARK    4  A    between atoms: C_9  and  O_10
REMARK    5  A    between atoms: C_15  and  C_16
REMARK    6  A    between atoms: C_16  and  N_17
REMARK    7  A    between atoms: N_17  and  C_18
REMARK    8  A    between atoms: N_17  and  C_19
REMARK                            x       y       z     vdW  Elec       q    Type
REMARK                         _______ _______ _______ _____ _____    ______ ____
ROOT
ATOM      1  C   UNL     1      -9.008   0.656 124.633  0.00  0.00    +0.000 C 
ATOM      2  C   UNL     1      -8.878   1.313 126.022  0.00  0.00    +0.000 C 
ATOM      3  C   UNL     1      -7.584   0.958 126.740  0.00  0.00    +0.000 C 
ATOM      4  C   UNL     1      -6.344   1.157 125.876  0.00  0.00    +0.000 C 
ATOM      5  C   UNL     1      -6.502   0.624 124.447  0.00  0.00    +0.000 C 
ATOM      6  C   UNL     1      -7.797   1.155 123.745  0.00  0.00    +0.000 C 
ENDROOT
BRANCH   1  11
ATOM      7  C   UNL     1      -9.077  -2.990 125.721  0.00  0.00    +0.000 A 
ATOM      8  C   UNL     1      -9.028  -3.626 124.491  0.00  0.00    +0.000 A 
ATOM      9  C   UNL     1      -8.962  -2.908 123.297  0.00  0.00    +0.000 A 
ATOM     10  C   UNL     1      -8.972  -1.518 123.328  0.00  0.00    +0.000 A 
ATOM     11  C   UNL     1      -9.089  -0.856 124.537  0.00  0.00    +0.000 A 
ATOM     12  C   UNL     1      -9.106  -1.598 125.744  0.00  0.00    +0.000 A 
BRANCH   7  14
ATOM     13  C   UNL     1      -8.350  -3.154 127.964  0.00  0.00    +0.000 C 
ATOM     14  O   UNL     1      -8.970  -3.766 126.836  0.00  0.00    +0.000 OA
ENDBRANCH   7  14
ENDBRANCH   1  11
BRANCH   1  15
ATOM     15  O   UNL     1     -10.335   0.881 124.172  0.00  0.00    +0.000 OA
ATOM     16  H   UNL     1     -10.986   0.543 124.804  0.00  0.00    +0.000 HD
ENDBRANCH   1  15
BRANCH   6  17
ATOM     17  C   UNL     1      -7.632   2.690 123.490  0.00  0.00    +0.000 C 
BRANCH  17  18
ATOM     18  N   UNL     1      -6.403   3.164 122.829  0.00  0.00    +0.000 NA
ATOM     19  C   UNL     1      -6.622   3.634 121.476  0.00  0.00    +0.000 C 
ATOM     20  C   UNL     1      -5.765   4.243 123.568  0.00  0.00    +0.000 C 
ENDBRANCH  17  18
ENDBRANCH   6  17
TORSDOF 5
ENDMDL
MODEL 7
REMARK VINA RESULT:      -5.6      5.688      8.186
REMARK  Name = Tramadol
REMARK  8 active torsions:
REMARK  status: ('A' for Active; 'I' for Inactive)
REMARK    1  A    between atoms: C_1  and  O_2
REMARK    2  A    between atoms: O_2  and  C_3
REMARK    3  A    between atoms: C_7  and  C_9
REMARK    4  A    between atoms: C_9  and  O_10
REMARK    5  A    between atoms: C_15  and  C_16
REMARK    6  A    between atoms: C_16  and  N_17
REMARK    7  A    between atoms: N_17  and  C_18
REMARK    8  A    between atoms: N_17  and  C_19
REMARK                            x       y       z     vdW  Elec       q    Type
REMARK                         _______ _______ _______ _____ _____    ______ ____
ROOT
ATOM      1  C   UNL     1      -6.538  -2.064 129.843  0.00  0.00    +0.000 C 
ATOM      2  C   UNL     1      -6.303  -2.987 131.056  0.00  0.00    +0.000 C 
ATOM      3  C   UNL     1      -5.519  -4.246 130.713  0.00  0.00    +0.000 C 
ATOM      4  C   UNL     1      -4.242  -3.964 129.932  0.00  0.00    +0.000 C 
ATOM      5  C   UNL     1      -4.428  -2.947 128.801  0.00  0.00    +0.000 C 
ATOM      6  C   UNL     1      -5.122  -1.628 129.284  0.00  0.00    +0.000 C 
ENDROOT
BRANCH   1  11
ATOM      7  C   UNL     1      -8.231  -2.148 126.437  0.00  0.00    +0.000 A 
ATOM      8  C   UNL     1      -9.045  -3.259 126.582  0.00  0.00    +0.000 A 
ATOM      9  C   UNL     1      -9.077  -3.995 127.767  0.00  0.00    +0.000 A 
ATOM     10  C   UNL     1      -8.256  -3.627 128.827  0.00  0.00    +0.000 A 
ATOM     11  C   UNL     1      -7.383  -2.564 128.687  0.00  0.00    +0.000 A 
ATOM     12  C   UNL     1      -7.397  -1.797 127.495  0.00  0.00    +0.000 A 
BRANCH   7  14
ATOM     13  C   UNL     1      -8.868  -2.087 124.161  0.00  0.00    +0.000 C 
ATOM     14  O   UNL     1      -8.388  -1.395 125.311  0.00  0.00    +0.000 OA
ENDBRANCH   7  14
ENDBRANCH   1  11
BRANCH   1  15
ATOM     15  O   UNL     1      -7.458  -1.054 130.241  0.00  0.00    +0.000 OA
ATOM     16  H   UNL     1      -8.265  -1.087 129.707  0.00  0.00    +0.000 HD
ENDBRANCH   1  15
BRANCH   6  17
ATOM     17  C   UNL     1      -4.140  -0.865 130.232  0.00  0.00    +0.000 C 
BRANCH  17  18
ATOM     18  N   UNL     1      -4.655   0.282 131.000  0.00  0.00    +0.000 NA
ATOM     19  C   UNL     1      -4.040   0.425 132.304  0.00  0.00    +0.000 C 
ATOM     20  C   UNL     1      -4.474   1.541 130.292  0.00  0.00    +0.000 C 
ENDBRANCH  17  18
ENDBRANCH   6  17
TORSDOF 5
ENDMDL
MODEL 8
REMARK VINA RESULT:      -5.5      3.047      5.830
REMARK  Name = Tramadol
REMARK  8 active torsions:
REMARK  status: ('A' for Active; 'I' for Inactive)
REMARK    1  A    between atoms: C_1  and  O_2
REMARK    2  A    between atoms: O_2  and  C_3
REMARK    3  A    between atoms: C_7  and  C_9
REMARK    4  A    between atoms: C_9  and  O_10
REMARK    5  A    between atoms: C_15  and  C_16
REMARK    6  A    between atoms: C_16  and  N_17
REMARK    7  A    between atoms: N_17  and  C_18
REMARK    8  A    between atoms: N_17  and  C_19
REMARK                            x       y       z     vdW  Elec       q    Type
REMARK                         _______ _______ _______ _____ _____    ______ ____
ROOT
ATOM      1  C   UNL     1      -8.779   0.254 124.570  0.00  0.00    +0.000 C 
ATOM      2  C   UNL     1      -9.580   0.737 125.796  0.00  0.00    +0.000 C 
ATOM      3  C   UNL     1      -8.732   0.881 127.052  0.00  0.00    +0.000 C 
ATOM      4  C   UNL     1      -7.457   1.685 126.828  0.00  0.00    +0.000 C 
ATOM      5  C   UNL     1      -6.714   1.307 125.541  0.00  0.00    +0.000 C 
ATOM      6  C   UNL     1      -7.644   1.319 124.281  0.00  0.00    +0.000 C 
ENDROOT
BRANCH   1  11
ATOM      7  C   UNL     1      -6.348  -2.575 123.815  0.00  0.00    +0.000 A 
ATOM      8  C   UNL     1      -7.013  -3.645 124.391  0.00  0.00    +0.000 A 
ATOM      9  C   UNL     1      -8.248  -3.488 125.020  0.00  0.00    +0.000 A 
ATOM     10  C   UNL     1      -8.825  -2.225 125.100  0.00  0.00    +0.000 A 
ATOM     11  C   UNL     1      -8.153  -1.127 124.594  0.00  0.00    +0.000 A 
ATOM     12  C   UNL     1      -6.922  -1.310 123.915  0.00  0.00    +0.000 A 
BRANCH   7  14
ATOM     13  C   UNL     1      -4.479  -3.983 123.491  0.00  0.00    +0.000 C 
ATOM     14  O   UNL     1      -5.234  -2.848 123.079  0.00  0.00    +0.000 OA
ENDBRANCH   7  14
ENDBRANCH   1  11
BRANCH   1  15
ATOM     15  O   UNL     1      -9.711  -0.051 123.538  0.00  0.00    +0.000 OA
ATOM     16  H   UNL     1     -10.284  -0.789 123.794  0.00  0.00    +0.000 HD
ENDBRANCH   1  15
BRANCH   6  17
ATOM     17  C   UNL     1      -8.058   2.798 123.980  0.00  0.00    +0.000 C 
BRANCH  17  18
ATOM     18  N   UNL     1      -7.724   3.365 122.661  0.00  0.00    +0.000 NA
ATOM     19  C   UNL     1      -6.477   2.863 122.118  0.00  0.00    +0.000 C 
ATOM     20  C   UNL     1      -8.763   3.108 121.676  0.00  0.00    +0.000 C 
ENDBRANCH  17  18
ENDBRANCH   6  17
TORSDOF 5
ENDMDL
MODEL 9
REMARK VINA RESULT:      -5.4      3.884      7.357
REMARK  Name = Tramadol
REMARK  8 active torsions:
REMARK  status: ('A' for Active; 'I' for Inactive)
REMARK    1  A    between atoms: C_1  and  O_2
REMARK    2  A    between atoms: O_2  and  C_3
REMARK    3  A    between atoms: C_7  and  C_9
REMARK    4  A    between atoms: C_9  and  O_10
REMARK    5  A    between atoms: C_15  and  C_16
REMARK    6  A    between atoms: C_16  and  N_17
REMARK    7  A    between atoms: N_17  and  C_18
REMARK    8  A    between atoms: N_17  and  C_19
REMARK                            x       y       z     vdW  Elec       q    Type
REMARK                         _______ _______ _______ _____ _____    ______ ____
ROOT
ATOM      1  C   UNL     1      -7.076  -2.040 125.115  0.00  0.00    +0.000 C 
ATOM      2  C   UNL     1      -7.281  -2.932 123.873  0.00  0.00    +0.000 C 
ATOM      3  C   UNL     1      -8.738  -3.044 123.446  0.00  0.00    +0.000 C 
ATOM      4  C   UNL     1      -9.434  -1.694 123.323  0.00  0.00    +0.000 C 
ATOM      5  C   UNL     1      -9.135  -0.743 124.487  0.00  0.00    +0.000 C 
ATOM      6  C   UNL     1      -7.601  -0.589 124.762  0.00  0.00    +0.000 C 
ENDROOT
BRANCH   1  11
ATOM      7  C   UNL     1      -7.709  -2.192 128.863  0.00  0.00    +0.000 A 
ATOM      8  C   UNL     1      -8.555  -3.286 128.937  0.00  0.00    +0.000 A 
ATOM      9  C   UNL     1      -8.931  -4.000 127.799  0.00  0.00    +0.000 A 
ATOM     10  C   UNL     1      -8.471  -3.596 126.550  0.00  0.00    +0.000 A 
ATOM     11  C   UNL     1      -7.681  -2.467 126.439  0.00  0.00    +0.000 A 
ATOM     12  C   UNL     1      -7.268  -1.781 127.609  0.00  0.00    +0.000 A 
BRANCH   7  14
ATOM     13  C   UNL     1      -8.054  -0.613 130.588  0.00  0.00    +0.000 C 
ATOM     14  O   UNL     1      -7.262  -1.661 130.037  0.00  0.00    +0.000 OA
ENDBRANCH   7  14
ENDBRANCH   1  11
BRANCH   1  15
ATOM     15  O   UNL     1      -5.726  -2.196 125.540  0.00  0.00    +0.000 OA
ATOM     16  H   UNL     1      -5.440  -3.117 125.458  0.00  0.00    +0.000 HD
ENDBRANCH   1  15
BRANCH   6  17
ATOM     17  C   UNL     1      -6.953   0.176 123.561  0.00  0.00    +0.000 C 
BRANCH  17  18
ATOM     18  N   UNL     1      -6.830   1.642 123.647  0.00  0.00    +0.000 NA
ATOM     19  C   UNL     1      -7.946   2.348 123.049  0.00  0.00    +0.000 C 
ATOM     20  C   UNL     1      -6.710   2.101 125.023  0.00  0.00    +0.000 C 
ENDBRANCH  17  18
ENDBRANCH   6  17
TORSDOF 5
ENDMDL
