MODEL 1
REMARK VINA RESULT:      -5.6      0.000      0.000
REMARK  Name = Tranylcypromine
REMARK  2 active torsions:
REMARK  status: ('A' for Active; 'I' for Inactive)
REMARK    1  A    between atoms: N_1  and  C_2
REMARK    2  A    between atoms: C_4  and  C_5
REMARK                            x       y       z     vdW  Elec       q    Type
REMARK                         _______ _______ _______ _____ _____    ______ ____
ROOT
ATOM      1  C   UNL     1     -10.547   6.460 131.561  0.00  0.00    +0.000 C 
ATOM      2  C   UNL     1     -10.965   5.276 130.736  0.00  0.00    +0.000 C 
ATOM      3  C   UNL     1     -11.990   6.311 131.140  0.00  0.00    +0.000 C 
ENDROOT
BRANCH   3   4
ATOM      4  C   UNL     1     -12.610   7.246 130.114  0.00  0.00    +0.000 A 
ATOM      5  C   UNL     1     -13.222   6.718 128.961  0.00  0.00    +0.000 A 
ATOM      6  C   UNL     1     -13.669   7.545 127.924  0.00  0.00    +0.000 A 
ATOM      7  C   UNL     1     -13.574   8.926 128.045  0.00  0.00    +0.000 A 
ATOM      8  C   UNL     1     -13.028   9.480 129.197  0.00  0.00    +0.000 A 
ATOM      9  C   UNL     1     -12.555   8.647 130.213  0.00  0.00    +0.000 A 
ENDBRANCH   3   4
BRANCH   1  10
ATOM     10  N   UNL     1     -10.161   6.232 132.955  0.00  0.00    +0.000 NA
ATOM     11  H   UNL     1      -9.191   6.507 133.105  0.00  0.00    +0.000 HD
ATOM     12  H   UNL     1     -10.203   5.241 133.190  0.00  0.00    +0.000 HD
ENDBRANCH   1  10
TORSDOF 2
ENDMDL
MODEL 2
REMARK VINA RESULT:      -5.3      2.635      4.606
REMARK  Name = Tranylcypromine
REMARK  2 active torsions:
REMARK  status: ('A' for Active; 'I' for Inactive)
REMARK    1  A    between atoms: N_1  and  C_2
REMARK    2  A    between atoms: C_4  and  C_5
REMARK                            x       y       z     vdW  Elec       q    Type
REMARK                         _______ _______ _______ _____ _____    ______ ____
ROOT
ATOM      1  C   UNL     1     -11.815   7.387 127.404  0.00  0.00    +0.000 C 
ATOM      2  C   UNL     1     -12.785   8.137 128.270  0.00  0.00    +0.000 C 
ATOM      3  C   UNL     1     -12.226   6.814 128.739  0.00  0.00    +0.000 C 
ENDROOT
BRANCH   3   4
ATOM      4  C   UNL     1     -11.245   6.742 129.898  0.00  0.00    +0.000 A 
ATOM      5  C   UNL     1      -9.897   7.099 129.702  0.00  0.00    +0.000 A 
ATOM      6  C   UNL     1      -8.935   6.906 130.700  0.00  0.00    +0.000 A 
ATOM      7  C   UNL     1      -9.309   6.409 131.942  0.00  0.00    +0.000 A 
ATOM      8  C   UNL     1     -10.643   6.100 132.186  0.00  0.00    +0.000 A 
ATOM      9  C   UNL     1     -11.592   6.267 131.175  0.00  0.00    +0.000 A 
ENDBRANCH   3   4
BRANCH   1  10
ATOM     10  N   UNL     1     -12.312   6.789 126.163  0.00  0.00    +0.000 NA
ATOM     11  H   UNL     1     -11.584   6.791 125.450  0.00  0.00    +0.000 HD
ATOM     12  H   UNL     1     -13.077   7.338 125.772  0.00  0.00    +0.000 HD
ENDBRANCH   1  10
TORSDOF 2
ENDMDL
MODEL 3
REMARK VINA RESULT:      -5.1     11.855     13.487
REMARK  Name = Tranylcypromine
REMARK  2 active torsions:
REMARK  status: ('A' for Active; 'I' for Inactive)
REMARK    1  A    between atoms: N_1  and  C_2
REMARK    2  A    between atoms: C_4  and  C_5
REMARK                            x       y       z     vdW  Elec       q    Type
REMARK                         _______ _______ _______ _____ _____    ______ ____
ROOT
ATOM      1  C   UNL     1      -4.559  -4.512 123.921  0.00  0.00    +0.000 C 
ATOM      2  C   UNL     1      -4.371  -3.080 123.510  0.00  0.00    +0.000 C 
ATOM      3  C   UNL     1      -5.761  -3.671 123.564  0.00  0.00    +0.000 C 
ENDROOT
BRANCH   3   4
ATOM      4  C   UNL     1      -6.759  -3.236 124.625  0.00  0.00    +0.000 A 
ATOM      5  C   UNL     1      -8.105  -3.639 124.532  0.00  0.00    +0.000 A 
ATOM      6  C   UNL     1      -9.081  -3.139 125.402  0.00  0.00    +0.000 A 
ATOM      7  C   UNL     1      -8.724  -2.274 126.428  0.00  0.00    +0.000 A 
ATOM      8  C   UNL     1      -7.392  -1.902 126.582  0.00  0.00    +0.000 A 
ATOM      9  C   UNL     1      -6.429  -2.381 125.690  0.00  0.00    +0.000 A 
ENDBRANCH   3   4
BRANCH   1  10
ATOM     10  N   UNL     1      -4.100  -5.562 123.009  0.00  0.00    +0.000 NA
ATOM     11  H   UNL     1      -4.490  -6.464 123.279  0.00  0.00    +0.000 HD
ATOM     12  H   UNL     1      -3.088  -5.677 123.062  0.00  0.00    +0.000 HD
ENDBRANCH   1  10
TORSDOF 2
ENDMDL
MODEL 4
REMARK VINA RESULT:      -5.1     10.664     11.306
REMARK  Name = Tranylcypromine
REMARK  2 active torsions:
REMARK  status: ('A' for Active; 'I' for Inactive)
REMARK    1  A    between atoms: N_1  and  C_2
REMARK    2  A    between atoms: C_4  and  C_5
REMARK                            x       y       z     vdW  Elec       q    Type
REMARK                         _______ _______ _______ _____ _____    ______ ____
ROOT
ATOM      1  C   UNL     1      -8.186   2.632 122.751  0.00  0.00    +0.000 C 
ATOM      2  C   UNL     1      -7.303   3.496 123.604  0.00  0.00    +0.000 C 
ATOM      3  C   UNL     1      -6.752   2.872 122.343  0.00  0.00    +0.000 C 
ENDROOT
BRANCH   3   4
ATOM      4  C   UNL     1      -6.413   3.723 121.129  0.00  0.00    +0.000 A 
ATOM      5  C   UNL     1      -5.200   4.437 121.087  0.00  0.00    +0.000 A 
ATOM      6  C   UNL     1      -4.919   5.345 120.059  0.00  0.00    +0.000 A 
ATOM      7  C   UNL     1      -5.817   5.513 119.013  0.00  0.00    +0.000 A 
ATOM      8  C   UNL     1      -6.998   4.779 118.996  0.00  0.00    +0.000 A 
ATOM      9  C   UNL     1      -7.285   3.898 120.041  0.00  0.00    +0.000 A 
ENDBRANCH   3   4
BRANCH   1  10
ATOM     10  N   UNL     1      -8.591   1.325 123.274  0.00  0.00    +0.000 NA
ATOM     11  H   UNL     1      -8.844   1.398 124.259  0.00  0.00    +0.000 HD
ATOM     12  H   UNL     1      -7.818   0.661 123.241  0.00  0.00    +0.000 HD
ENDBRANCH   1  10
TORSDOF 2
ENDMDL
MODEL 5
REMARK VINA RESULT:      -5.1      9.657     10.320
REMARK  Name = Tranylcypromine
REMARK  2 active torsions:
REMARK  status: ('A' for Active; 'I' for Inactive)
REMARK    1  A    between atoms: N_1  and  C_2
REMARK    2  A    between atoms: C_4  and  C_5
REMARK                            x       y       z     vdW  Elec       q    Type
REMARK                         _______ _______ _______ _____ _____    ______ ____
ROOT
ATOM      1  C   UNL     1      -8.164   2.608 124.158  0.00  0.00    +0.000 C 
ATOM      2  C   UNL     1      -8.410   1.386 123.321  0.00  0.00    +0.000 C 
ATOM      3  C   UNL     1      -8.830   2.745 122.809  0.00  0.00    +0.000 C 
ENDROOT
BRANCH   3   4
ATOM      4  C   UNL     1      -8.111   3.400 121.641  0.00  0.00    +0.000 A 
ATOM      5  C   UNL     1      -8.837   3.798 120.502  0.00  0.00    +0.000 A 
ATOM      6  C   UNL     1      -8.195   4.266 119.349  0.00  0.00    +0.000 A 
ATOM      7  C   UNL     1      -6.813   4.409 119.332  0.00  0.00    +0.000 A 
ATOM      8  C   UNL     1      -6.073   4.080 120.462  0.00  0.00    +0.000 A 
ATOM      9  C   UNL     1      -6.719   3.584 121.596  0.00  0.00    +0.000 A 
ENDBRANCH   3   4
BRANCH   1  10
ATOM     10  N   UNL     1      -8.947   2.779 125.384  0.00  0.00    +0.000 NA
ATOM     11  H   UNL     1      -8.781   3.701 125.787  0.00  0.00    +0.000 HD
ATOM     12  H   UNL     1      -8.657   2.113 126.100  0.00  0.00    +0.000 HD
ENDBRANCH   1  10
TORSDOF 2
ENDMDL
MODEL 6
REMARK VINA RESULT:      -5.1      2.321      4.792
REMARK  Name = Tranylcypromine
REMARK  2 active torsions:
REMARK  status: ('A' for Active; 'I' for Inactive)
REMARK    1  A    between atoms: N_1  and  C_2
REMARK    2  A    between atoms: C_4  and  C_5
REMARK                            x       y       z     vdW  Elec       q    Type
REMARK                         _______ _______ _______ _____ _____    ______ ____
ROOT
ATOM      1  C   UNL     1     -12.435   7.419 129.845  0.00  0.00    +0.000 C 
ATOM      2  C   UNL     1     -12.914   7.528 131.264  0.00  0.00    +0.000 C 
ATOM      3  C   UNL     1     -11.949   6.430 130.878  0.00  0.00    +0.000 C 
ENDROOT
BRANCH   3   4
ATOM      4  C   UNL     1     -10.509   6.443 131.362  0.00  0.00    +0.000 A 
ATOM      5  C   UNL     1      -9.492   6.954 130.533  0.00  0.00    +0.000 A 
ATOM      6  C   UNL     1      -8.140   6.848 130.880  0.00  0.00    +0.000 A 
ATOM      7  C   UNL     1      -7.775   6.286 132.097  0.00  0.00    +0.000 A 
ATOM      8  C   UNL     1      -8.759   5.824 132.964  0.00  0.00    +0.000 A 
ATOM      9  C   UNL     1     -10.104   5.905 132.596  0.00  0.00    +0.000 A 
ENDBRANCH   3   4
BRANCH   1  10
ATOM     10  N   UNL     1     -13.392   7.000 128.819  0.00  0.00    +0.000 NA
ATOM     11  H   UNL     1     -12.951   6.998 127.900  0.00  0.00    +0.000 HD
ATOM     12  H   UNL     1     -14.166   7.661 128.748  0.00  0.00    +0.000 HD
ENDBRANCH   1  10
TORSDOF 2
ENDMDL
MODEL 7
REMARK VINA RESULT:      -4.9      2.052      2.451
REMARK  Name = Tranylcypromine
REMARK  2 active torsions:
REMARK  status: ('A' for Active; 'I' for Inactive)
REMARK    1  A    between atoms: N_1  and  C_2
REMARK    2  A    between atoms: C_4  and  C_5
REMARK                            x       y       z     vdW  Elec       q    Type
REMARK                         _______ _______ _______ _____ _____    ______ ____
ROOT
ATOM      1  C   UNL     1      -8.811   6.550 130.297  0.00  0.00    +0.000 C 
ATOM      2  C   UNL     1      -9.919   6.332 131.287  0.00  0.00    +0.000 C 
ATOM      3  C   UNL     1     -10.069   7.382 130.209  0.00  0.00    +0.000 C 
ENDROOT
BRANCH   3   4
ATOM      4  C   UNL     1     -11.054   7.199 129.066  0.00  0.00    +0.000 A 
ATOM      5  C   UNL     1     -10.613   7.311 127.733  0.00  0.00    +0.000 A 
ATOM      6  C   UNL     1     -11.512   7.297 126.660  0.00  0.00    +0.000 A 
ATOM      7  C   UNL     1     -12.869   7.107 126.890  0.00  0.00    +0.000 A 
ATOM      8  C   UNL     1     -13.329   6.936 128.191  0.00  0.00    +0.000 A 
ATOM      9  C   UNL     1     -12.429   6.982 129.258  0.00  0.00    +0.000 A 
ENDBRANCH   3   4
BRANCH   1  10
ATOM     10  N   UNL     1      -7.564   7.153 130.772  0.00  0.00    +0.000 NA
ATOM     11  H   UNL     1      -7.473   7.033 131.781  0.00  0.00    +0.000 HD
ATOM     12  H   UNL     1      -7.562   8.161 130.617  0.00  0.00    +0.000 HD
ENDBRANCH   1  10
TORSDOF 2
ENDMDL
MODEL 8
REMARK VINA RESULT:      -4.9      9.398     10.961
REMARK  Name = Tranylcypromine
REMARK  2 active torsions:
REMARK  status: ('A' for Active; 'I' for Inactive)
REMARK    1  A    between atoms: N_1  and  C_2
REMARK    2  A    between atoms: C_4  and  C_5
REMARK                            x       y       z     vdW  Elec       q    Type
REMARK                         _______ _______ _______ _____ _____    ______ ____
ROOT
ATOM      1  C   UNL     1      -9.652   1.792 124.402  0.00  0.00    +0.000 C 
ATOM      2  C   UNL     1      -9.834   1.461 122.949  0.00  0.00    +0.000 C 
ATOM      3  C   UNL     1      -8.753   0.770 123.747  0.00  0.00    +0.000 C 
ENDROOT
BRANCH   3   4
ATOM      4  C   UNL     1      -8.856  -0.706 124.097  0.00  0.00    +0.000 A 
ATOM      5  C   UNL     1      -8.890  -1.671 123.072  0.00  0.00    +0.000 A 
ATOM      6  C   UNL     1      -9.135  -3.022 123.344  0.00  0.00    +0.000 A 
ATOM      7  C   UNL     1      -9.287  -3.452 124.657  0.00  0.00    +0.000 A 
ATOM      8  C   UNL     1      -9.201  -2.532 125.696  0.00  0.00    +0.000 A 
ATOM      9  C   UNL     1      -8.988  -1.181 125.413  0.00  0.00    +0.000 A 
ENDBRANCH   3   4
BRANCH   1  10
ATOM     10  N   UNL     1      -9.128   3.113 124.753  0.00  0.00    +0.000 NA
ATOM     11  H   UNL     1      -8.621   3.073 125.636  0.00  0.00    +0.000 HD
ATOM     12  H   UNL     1      -9.885   3.780 124.904  0.00  0.00    +0.000 HD
ENDBRANCH   1  10
TORSDOF 2
ENDMDL
MODEL 9
REMARK VINA RESULT:      -4.8      9.427     11.117
REMARK  Name = Tranylcypromine
REMARK  2 active torsions:
REMARK  status: ('A' for Active; 'I' for Inactive)
REMARK    1  A    between atoms: N_1  and  C_2
REMARK    2  A    between atoms: C_4  and  C_5
REMARK                            x       y       z     vdW  Elec       q    Type
REMARK                         _______ _______ _______ _____ _____    ______ ____
ROOT
ATOM      1  C   UNL     1      -9.740   1.673 124.333  0.00  0.00    +0.000 C 
ATOM      2  C   UNL     1      -9.931   1.277 122.897  0.00  0.00    +0.000 C 
ATOM      3  C   UNL     1      -8.844   0.623 123.720  0.00  0.00    +0.000 C 
ENDROOT
BRANCH   3   4
ATOM      4  C   UNL     1      -8.944  -0.836 124.136  0.00  0.00    +0.000 A 
ATOM      5  C   UNL     1      -9.013  -1.175 125.501  0.00  0.00    +0.000 A 
ATOM      6  C   UNL     1      -8.955  -2.506 125.929  0.00  0.00    +0.000 A 
ATOM      7  C   UNL     1      -8.891  -3.536 124.999  0.00  0.00    +0.000 A 
ATOM      8  C   UNL     1      -8.880  -3.236 123.641  0.00  0.00    +0.000 A 
ATOM      9  C   UNL     1      -8.906  -1.904 123.223  0.00  0.00    +0.000 A 
ENDBRANCH   3   4
BRANCH   1  10
ATOM     10  N   UNL     1      -9.216   3.009 124.621  0.00  0.00    +0.000 NA
ATOM     11  H   UNL     1      -9.585   3.354 125.507  0.00  0.00    +0.000 HD
ATOM     12  H   UNL     1      -9.523   3.682 123.919  0.00  0.00    +0.000 HD
ENDBRANCH   1  10
TORSDOF 2
ENDMDL
