MODEL 1
REMARK VINA RESULT:      -5.8      0.000      0.000
REMARK  Name = Tranexamic acid
REMARK  4 active torsions:
REMARK  status: ('A' for Active; 'I' for Inactive)
REMARK    1  A    between atoms: N_1  and  C_2
REMARK    2  A    between atoms: C_2  and  C_3
REMARK    3  A    between atoms: C_6  and  C_9
REMARK    4  A    between atoms: C_9  and  O_10
REMARK                            x       y       z     vdW  Elec       q    Type
REMARK                         _______ _______ _______ _____ _____    ______ ____
ROOT
ATOM      1  C   UNL     1     -12.422   6.460 129.600  0.00  0.00    +0.000 C 
ATOM      2  C   UNL     1     -13.038   7.247 128.417  0.00  0.00    +0.000 C 
ATOM      3  C   UNL     1     -12.284   8.548 128.049  0.00  0.00    +0.000 C 
ATOM      4  C   UNL     1     -10.774   8.302 127.882  0.00  0.00    +0.000 C 
ATOM      5  C   UNL     1     -10.188   7.558 129.097  0.00  0.00    +0.000 C 
ATOM      6  C   UNL     1     -10.920   6.245 129.356  0.00  0.00    +0.000 C 
ENDROOT
BRANCH   4   7
ATOM      7  C   UNL     1     -10.590   7.597 126.544  0.00  0.00    +0.000 C 
ATOM      8  O   UNL     1     -11.052   8.027 125.487  0.00  0.00    +0.000 OA
BRANCH   7   9
ATOM      9  O   UNL     1      -9.860   6.470 126.555  0.00  0.00    +0.000 OA
ATOM     10  H   UNL     1      -9.538   6.175 127.423  0.00  0.00    +0.000 HD
ENDBRANCH   7   9
ENDBRANCH   4   7
BRANCH   1  11
ATOM     11  C   UNL     1     -12.696   7.120 130.973  0.00  0.00    +0.000 C 
BRANCH  11  12
ATOM     12  N   UNL     1     -12.106   6.348 132.051  0.00  0.00    +0.000 NA
ATOM     13  H   UNL     1     -12.595   6.403 132.933  0.00  0.00    +0.000 HD
ATOM     14  H   UNL     1     -11.168   6.719 132.213  0.00  0.00    +0.000 HD
ENDBRANCH  11  12
ENDBRANCH   1  11
TORSDOF 4
ENDMDL
MODEL 2
REMARK VINA RESULT:      -5.5      3.241      4.144
REMARK  Name = Tranexamic acid
REMARK  4 active torsions:
REMARK  status: ('A' for Active; 'I' for Inactive)
REMARK    1  A    between atoms: N_1  and  C_2
REMARK    2  A    between atoms: C_2  and  C_3
REMARK    3  A    between atoms: C_6  and  C_9
REMARK    4  A    between atoms: C_9  and  O_10
REMARK                            x       y       z     vdW  Elec       q    Type
REMARK                         _______ _______ _______ _____ _____    ______ ____
ROOT
ATOM      1  C   UNL     1     -11.243   8.250 128.023  0.00  0.00    +0.000 C 
ATOM      2  C   UNL     1     -12.664   7.887 128.517  0.00  0.00    +0.000 C 
ATOM      3  C   UNL     1     -12.822   6.428 129.007  0.00  0.00    +0.000 C 
ATOM      4  C   UNL     1     -11.723   6.044 130.014  0.00  0.00    +0.000 C 
ATOM      5  C   UNL     1     -10.321   6.377 129.470  0.00  0.00    +0.000 C 
ATOM      6  C   UNL     1     -10.205   7.848 129.083  0.00  0.00    +0.000 C 
ENDROOT
BRANCH   4   7
ATOM      7  C   UNL     1     -12.080   6.720 131.331  0.00  0.00    +0.000 C 
ATOM      8  O   UNL     1     -13.195   7.189 131.568  0.00  0.00    +0.000 OA
BRANCH   7   9
ATOM      9  O   UNL     1     -11.116   6.764 132.265  0.00  0.00    +0.000 OA
ATOM     10  H   UNL     1     -10.253   7.103 131.975  0.00  0.00    +0.000 HD
ENDBRANCH   7   9
ENDBRANCH   4   7
BRANCH   1  11
ATOM     11  C   UNL     1     -10.913   7.648 126.635  0.00  0.00    +0.000 C 
BRANCH  11  12
ATOM     12  N   UNL     1     -12.039   6.897 126.110  0.00  0.00    +0.000 NA
ATOM     13  H   UNL     1     -12.707   6.589 126.803  0.00  0.00    +0.000 HD
ATOM     14  H   UNL     1     -11.664   6.055 125.670  0.00  0.00    +0.000 HD
ENDBRANCH  11  12
ENDBRANCH   1  11
TORSDOF 4
ENDMDL
MODEL 3
REMARK VINA RESULT:      -5.3      2.330      3.174
REMARK  Name = Tranexamic acid
REMARK  4 active torsions:
REMARK  status: ('A' for Active; 'I' for Inactive)
REMARK    1  A    between atoms: N_1  and  C_2
REMARK    2  A    between atoms: C_2  and  C_3
REMARK    3  A    between atoms: C_6  and  C_9
REMARK    4  A    between atoms: C_9  and  O_10
REMARK                            x       y       z     vdW  Elec       q    Type
REMARK                         _______ _______ _______ _____ _____    ______ ____
ROOT
ATOM      1  C   UNL     1     -12.839   8.405 128.791  0.00  0.00    +0.000 C 
ATOM      2  C   UNL     1     -11.550   8.360 127.936  0.00  0.00    +0.000 C 
ATOM      3  C   UNL     1     -10.236   8.343 128.753  0.00  0.00    +0.000 C 
ATOM      4  C   UNL     1     -10.264   7.264 129.850  0.00  0.00    +0.000 C 
ATOM      5  C   UNL     1     -11.538   7.368 130.710  0.00  0.00    +0.000 C 
ATOM      6  C   UNL     1     -12.799   7.295 129.854  0.00  0.00    +0.000 C 
ENDROOT
BRANCH   4   7
ATOM      7  C   UNL     1     -10.065   5.924 129.153  0.00  0.00    +0.000 C 
ATOM      8  O   UNL     1     -10.509   4.863 129.593  0.00  0.00    +0.000 OA
BRANCH   7   9
ATOM      9  O   UNL     1      -9.392   5.946 127.991  0.00  0.00    +0.000 OA
ATOM     10  H   UNL     1      -8.429   6.064 128.055  0.00  0.00    +0.000 HD
ENDBRANCH   7   9
ENDBRANCH   4   7
BRANCH   1  11
ATOM     11  C   UNL     1     -13.100   9.796 129.419  0.00  0.00    +0.000 C 
BRANCH  11  12
ATOM     12  N   UNL     1     -13.887  10.631 128.530  0.00  0.00    +0.000 NA
ATOM     13  H   UNL     1     -14.800  10.886 128.881  0.00  0.00    +0.000 HD
ATOM     14  H   UNL     1     -14.042  10.100 127.672  0.00  0.00    +0.000 HD
ENDBRANCH  11  12
ENDBRANCH   1  11
TORSDOF 4
ENDMDL
MODEL 4
REMARK VINA RESULT:      -5.1      2.941      3.813
REMARK  Name = Tranexamic acid
REMARK  4 active torsions:
REMARK  status: ('A' for Active; 'I' for Inactive)
REMARK    1  A    between atoms: N_1  and  C_2
REMARK    2  A    between atoms: C_2  and  C_3
REMARK    3  A    between atoms: C_6  and  C_9
REMARK    4  A    between atoms: C_9  and  O_10
REMARK                            x       y       z     vdW  Elec       q    Type
REMARK                         _______ _______ _______ _____ _____    ______ ____
ROOT
ATOM      1  C   UNL     1     -10.216   7.457 129.500  0.00  0.00    +0.000 C 
ATOM      2  C   UNL     1     -10.584   8.477 128.395  0.00  0.00    +0.000 C 
ATOM      3  C   UNL     1     -12.023   8.337 127.845  0.00  0.00    +0.000 C 
ATOM      4  C   UNL     1     -13.062   8.283 128.979  0.00  0.00    +0.000 C 
ATOM      5  C   UNL     1     -12.688   7.226 130.035  0.00  0.00    +0.000 C 
ATOM      6  C   UNL     1     -11.291   7.469 130.599  0.00  0.00    +0.000 C 
ENDROOT
BRANCH   4   7
ATOM      7  C   UNL     1     -13.206   9.703 129.510  0.00  0.00    +0.000 C 
ATOM      8  O   UNL     1     -13.144   9.984 130.707  0.00  0.00    +0.000 OA
BRANCH   7   9
ATOM      9  O   UNL     1     -13.379  10.672 128.596  0.00  0.00    +0.000 OA
ATOM     10  H   UNL     1     -12.676  10.765 127.931  0.00  0.00    +0.000 HD
ENDBRANCH   7   9
ENDBRANCH   4   7
BRANCH   1  11
ATOM     11  C   UNL     1      -9.968   6.032 128.950  0.00  0.00    +0.000 C 
BRANCH  11  12
ATOM     12  N   UNL     1      -9.418   6.078 127.607  0.00  0.00    +0.000 NA
ATOM     13  H   UNL     1      -9.713   6.869 127.052  0.00  0.00    +0.000 HD
ATOM     14  H   UNL     1      -9.739   5.241 127.118  0.00  0.00    +0.000 HD
ENDBRANCH  11  12
ENDBRANCH   1  11
TORSDOF 4
ENDMDL
MODEL 5
REMARK VINA RESULT:      -4.7     11.129     12.100
REMARK  Name = Tranexamic acid
REMARK  4 active torsions:
REMARK  status: ('A' for Active; 'I' for Inactive)
REMARK    1  A    between atoms: N_1  and  C_2
REMARK    2  A    between atoms: C_2  and  C_3
REMARK    3  A    between atoms: C_6  and  C_9
REMARK    4  A    between atoms: C_9  and  O_10
REMARK                            x       y       z     vdW  Elec       q    Type
REMARK                         _______ _______ _______ _____ _____    ______ ____
ROOT
ATOM      1  C   UNL     1      -5.612  -2.303 123.981  0.00  0.00    +0.000 C 
ATOM      2  C   UNL     1      -6.497  -1.391 123.097  0.00  0.00    +0.000 C 
ATOM      3  C   UNL     1      -7.756  -2.082 122.521  0.00  0.00    +0.000 C 
ATOM      4  C   UNL     1      -8.555  -2.810 123.617  0.00  0.00    +0.000 C 
ATOM      5  C   UNL     1      -7.652  -3.742 124.447  0.00  0.00    +0.000 C 
ATOM      6  C   UNL     1      -6.475  -2.984 125.055  0.00  0.00    +0.000 C 
ENDROOT
BRANCH   4   7
ATOM      7  C   UNL     1      -9.282  -1.737 124.416  0.00  0.00    +0.000 C 
ATOM      8  O   UNL     1      -9.512  -0.609 123.978  0.00  0.00    +0.000 OA
BRANCH   7   9
ATOM      9  O   UNL     1      -9.701  -2.083 125.644  0.00  0.00    +0.000 OA
ATOM     10  H   UNL     1     -10.656  -2.234 125.745  0.00  0.00    +0.000 HD
ENDBRANCH   7   9
ENDBRANCH   4   7
BRANCH   1  11
ATOM     11  C   UNL     1      -4.791  -3.329 123.162  0.00  0.00    +0.000 C 
BRANCH  11  12
ATOM     12  N   UNL     1      -4.257  -4.372 124.017  0.00  0.00    +0.000 NA
ATOM     13  H   UNL     1      -4.946  -4.998 124.409  0.00  0.00    +0.000 HD
ATOM     14  H   UNL     1      -3.797  -3.913 124.805  0.00  0.00    +0.000 HD
ENDBRANCH  11  12
ENDBRANCH   1  11
TORSDOF 4
ENDMDL
MODEL 6
REMARK VINA RESULT:      -4.7     10.426     11.349
REMARK  Name = Tranexamic acid
REMARK  4 active torsions:
REMARK  status: ('A' for Active; 'I' for Inactive)
REMARK    1  A    between atoms: N_1  and  C_2
REMARK    2  A    between atoms: C_2  and  C_3
REMARK    3  A    between atoms: C_6  and  C_9
REMARK    4  A    between atoms: C_9  and  O_10
REMARK                            x       y       z     vdW  Elec       q    Type
REMARK                         _______ _______ _______ _____ _____    ______ ____
ROOT
ATOM      1  C   UNL     1      -7.180  -1.506 126.410  0.00  0.00    +0.000 C 
ATOM      2  C   UNL     1      -6.565  -1.621 124.994  0.00  0.00    +0.000 C 
ATOM      3  C   UNL     1      -6.581  -3.050 124.400  0.00  0.00    +0.000 C 
ATOM      4  C   UNL     1      -7.977  -3.691 124.500  0.00  0.00    +0.000 C 
ATOM      5  C   UNL     1      -8.537  -3.600 125.932  0.00  0.00    +0.000 C 
ATOM      6  C   UNL     1      -8.573  -2.157 126.428  0.00  0.00    +0.000 C 
ENDROOT
BRANCH   4   7
ATOM      7  C   UNL     1      -8.837  -3.036 123.427  0.00  0.00    +0.000 C 
ATOM      8  O   UNL     1      -8.381  -2.297 122.554  0.00  0.00    +0.000 OA
BRANCH   7   9
ATOM      9  O   UNL     1     -10.149  -3.325 123.451  0.00  0.00    +0.000 OA
ATOM     10  H   UNL     1     -10.593  -3.234 124.311  0.00  0.00    +0.000 HD
ENDBRANCH   7   9
ENDBRANCH   4   7
BRANCH   1  11
ATOM     11  C   UNL     1      -6.261  -2.079 127.517  0.00  0.00    +0.000 C 
BRANCH  11  12
ATOM     12  N   UNL     1      -5.075  -1.260 127.687  0.00  0.00    +0.000 NA
ATOM     13  H   UNL     1      -4.314  -1.476 127.059  0.00  0.00    +0.000 HD
ATOM     14  H   UNL     1      -4.728  -1.421 128.634  0.00  0.00    +0.000 HD
ENDBRANCH  11  12
ENDBRANCH   1  11
TORSDOF 4
ENDMDL
MODEL 7
REMARK VINA RESULT:      -4.5      3.297      4.197
REMARK  Name = Tranexamic acid
REMARK  4 active torsions:
REMARK  status: ('A' for Active; 'I' for Inactive)
REMARK    1  A    between atoms: N_1  and  C_2
REMARK    2  A    between atoms: C_2  and  C_3
REMARK    3  A    between atoms: C_6  and  C_9
REMARK    4  A    between atoms: C_9  and  O_10
REMARK                            x       y       z     vdW  Elec       q    Type
REMARK                         _______ _______ _______ _____ _____    ______ ____
ROOT
ATOM      1  C   UNL     1      -9.034   6.684 130.936  0.00  0.00    +0.000 C 
ATOM      2  C   UNL     1      -9.623   7.559 129.803  0.00  0.00    +0.000 C 
ATOM      3  C   UNL     1     -10.756   6.884 128.993  0.00  0.00    +0.000 C 
ATOM      4  C   UNL     1     -11.837   6.291 129.914  0.00  0.00    +0.000 C 
ATOM      5  C   UNL     1     -11.219   5.390 130.999  0.00  0.00    +0.000 C 
ATOM      6  C   UNL     1     -10.169   6.137 131.817  0.00  0.00    +0.000 C 
ENDROOT
BRANCH   4   7
ATOM      7  C   UNL     1     -12.657   7.462 130.439  0.00  0.00    +0.000 C 
ATOM      8  O   UNL     1     -12.743   8.542 129.852  0.00  0.00    +0.000 OA
BRANCH   7   9
ATOM      9  O   UNL     1     -13.328   7.260 131.585  0.00  0.00    +0.000 OA
ATOM     10  H   UNL     1     -14.282   7.442 131.561  0.00  0.00    +0.000 HD
ENDBRANCH   7   9
ENDBRANCH   4   7
BRANCH   1  11
ATOM     11  C   UNL     1      -8.115   5.553 130.411  0.00  0.00    +0.000 C 
BRANCH  11  12
ATOM     12  N   UNL     1      -6.774   6.046 130.156  0.00  0.00    +0.000 NA
ATOM     13  H   UNL     1      -6.548   6.181 129.180  0.00  0.00    +0.000 HD
ATOM     14  H   UNL     1      -6.120   5.348 130.514  0.00  0.00    +0.000 HD
ENDBRANCH  11  12
ENDBRANCH   1  11
TORSDOF 4
ENDMDL
MODEL 8
REMARK VINA RESULT:      -4.5      8.441      9.439
REMARK  Name = Tranexamic acid
REMARK  4 active torsions:
REMARK  status: ('A' for Active; 'I' for Inactive)
REMARK    1  A    between atoms: N_1  and  C_2
REMARK    2  A    between atoms: C_2  and  C_3
REMARK    3  A    between atoms: C_6  and  C_9
REMARK    4  A    between atoms: C_9  and  O_10
REMARK                            x       y       z     vdW  Elec       q    Type
REMARK                         _______ _______ _______ _____ _____    ______ ____
ROOT
ATOM      1  C   UNL     1      -9.589   1.278 124.374  0.00  0.00    +0.000 C 
ATOM      2  C   UNL     1      -9.372   0.338 123.163  0.00  0.00    +0.000 C 
ATOM      3  C   UNL     1      -8.218  -0.678 123.338  0.00  0.00    +0.000 C 
ATOM      4  C   UNL     1      -8.327  -1.437 124.672  0.00  0.00    +0.000 C 
ATOM      5  C   UNL     1      -8.496  -0.469 125.858  0.00  0.00    +0.000 C 
ATOM      6  C   UNL     1      -9.699   0.450 125.664  0.00  0.00    +0.000 C 
ENDROOT
BRANCH   4   7
ATOM      7  C   UNL     1      -9.447  -2.456 124.507  0.00  0.00    +0.000 C 
ATOM      8  O   UNL     1      -9.787  -2.913 123.415  0.00  0.00    +0.000 OA
BRANCH   7   9
ATOM      9  O   UNL     1     -10.052  -2.872 125.632  0.00  0.00    +0.000 OA
ATOM     10  H   UNL     1      -9.612  -3.592 126.115  0.00  0.00    +0.000 HD
ENDBRANCH   7   9
ENDBRANCH   4   7
BRANCH   1  11
ATOM     11  C   UNL     1      -8.507   2.381 124.486  0.00  0.00    +0.000 C 
BRANCH  11  12
ATOM     12  N   UNL     1      -9.045   3.579 125.104  0.00  0.00    +0.000 NA
ATOM     13  H   UNL     1      -8.711   3.763 126.040  0.00  0.00    +0.000 HD
ATOM     14  H   UNL     1     -10.056   3.458 125.173  0.00  0.00    +0.000 HD
ENDBRANCH  11  12
ENDBRANCH   1  11
TORSDOF 4
ENDMDL
MODEL 9
REMARK VINA RESULT:      -4.5      9.855     10.891
REMARK  Name = Tranexamic acid
REMARK  4 active torsions:
REMARK  status: ('A' for Active; 'I' for Inactive)
REMARK    1  A    between atoms: N_1  and  C_2
REMARK    2  A    between atoms: C_2  and  C_3
REMARK    3  A    between atoms: C_6  and  C_9
REMARK    4  A    between atoms: C_9  and  O_10
REMARK                            x       y       z     vdW  Elec       q    Type
REMARK                         _______ _______ _______ _____ _____    ______ ____
ROOT
ATOM      1  C   UNL     1      -7.575   0.293 124.172  0.00  0.00    +0.000 C 
ATOM      2  C   UNL     1      -9.051  -0.141 124.003  0.00  0.00    +0.000 C 
ATOM      3  C   UNL     1      -9.333  -0.981 122.734  0.00  0.00    +0.000 C 
ATOM      4  C   UNL     1      -8.346  -2.154 122.600  0.00  0.00    +0.000 C 
ATOM      5  C   UNL     1      -6.886  -1.679 122.727  0.00  0.00    +0.000 C 
ATOM      6  C   UNL     1      -6.654  -0.929 124.036  0.00  0.00    +0.000 C 
ENDROOT
BRANCH   4   7
ATOM      7  C   UNL     1      -8.772  -3.205 123.616  0.00  0.00    +0.000 C 
ATOM      8  O   UNL     1      -7.975  -3.817 124.328  0.00  0.00    +0.000 OA
BRANCH   7   9
ATOM      9  O   UNL     1     -10.092  -3.428 123.732  0.00  0.00    +0.000 OA
ATOM     10  H   UNL     1     -10.658  -3.013 123.060  0.00  0.00    +0.000 HD
ENDBRANCH   7   9
ENDBRANCH   4   7
BRANCH   1  11
ATOM     11  C   UNL     1      -7.166   1.435 123.209  0.00  0.00    +0.000 C 
BRANCH  11  12
ATOM     12  N   UNL     1      -8.178   2.474 123.172  0.00  0.00    +0.000 NA
ATOM     13  H   UNL     1      -9.095   2.189 123.485  0.00  0.00    +0.000 HD
ATOM     14  H   UNL     1      -8.279   2.765 122.198  0.00  0.00    +0.000 HD
ENDBRANCH  11  12
ENDBRANCH   1  11
TORSDOF 4
ENDMDL
