MODEL 1
REMARK VINA RESULT:      -7.9      0.000      0.000
REMARK  Name = Trandolapril
REMARK  13 active torsions:
REMARK  status: ('A' for Active; 'I' for Inactive)
REMARK    1  A    between atoms: CA_4  and  C_31
REMARK    2  A    between atoms: C_6  and  CA_8
REMARK    3  A    between atoms: CA_8  and  CB_9
REMARK    4  A    between atoms: CA_8  and  N_10
REMARK    5  A    between atoms: N_10  and  C_11
REMARK    6  A    between atoms: C_11  and  C_12
REMARK    7  A    between atoms: C_11  and  C_20
REMARK    8  A    between atoms: C_12  and  C_13
REMARK    9  A    between atoms: C_13  and  C_14
REMARK   10  A    between atoms: C_20  and  O_22
REMARK   11  A    between atoms: O_22  and  C_23
REMARK   12  A    between atoms: C_23  and  C_24
REMARK   13  A    between atoms: C_31  and  O_32
REMARK                            x       y       z     vdW  Elec       q    Type
REMARK                         _______ _______ _______ _____ _____    ______ ____
ROOT
ATOM      1  CA  ALA A   1      -6.688   5.436 130.992  0.00  0.00    +0.000 C 
ATOM      2  CB  ALA A   1      -6.220   6.865 131.117  0.00  0.00    +0.000 C 
ENDROOT
BRANCH   1   7
ATOM      3  C   ALA A   1     -11.457   6.437 131.032  0.00  0.00    +0.000 C 
ATOM      4  C   ALA A   1     -10.897   6.377 132.445  0.00  0.00    +0.000 C 
ATOM      5  CA  ALA A   1      -9.505   5.800 132.210  0.00  0.00    +0.000 C 
ATOM      6  N   ALA A   1      -9.193   6.042 130.797  0.00  0.00    +0.000 N 
ATOM      7  C   ALA A   1      -8.040   5.604 130.160  0.00  0.00    +0.000 C 
ATOM      8  O   ALA A   1      -8.069   5.301 128.963  0.00  0.00    +0.000 OA
ATOM      9  C   ALA A   1     -10.243   6.870 130.223  0.00  0.00    +0.000 C 
ATOM     10  C   ALA A   1     -10.591   6.805 128.751  0.00  0.00    +0.000 C 
ATOM     11  C   ALA A   1     -11.744   7.778 128.479  0.00  0.00    +0.000 C 
ATOM     12  C   ALA A   1     -12.957   7.607 129.389  0.00  0.00    +0.000 C 
ATOM     13  C   ALA A   1     -12.608   7.396 130.863  0.00  0.00    +0.000 C 
BRANCH   5  14
ATOM     14  C   ALA A   1      -9.675   4.294 132.483  0.00  0.00    +0.000 C 
ATOM     15  OXT ALA A   1      -9.723   3.466 131.616  0.00  0.00    +0.000 OA
BRANCH  14  16
ATOM     16  O   ALA A   1      -9.831   3.982 133.810  0.00  0.00    +0.000 OA
ATOM     17  H   ALA A   1      -9.558   3.067 134.041  0.00  0.00    +0.000 HD
ENDBRANCH  14  16
ENDBRANCH   5  14
ENDBRANCH   1   7
BRANCH   1  18
ATOM     18  N   ALA A   1      -5.691   4.609 130.264  0.00  0.00    +0.000 NA
ATOM     19  H   ALA A   1      -6.159   3.996 129.592  0.00  0.00    +0.000 HD
BRANCH  18  20
ATOM     20  C   UNK A   0      -4.561   5.298 129.570  0.00  0.00    +0.000 C 
BRANCH  20  21
ATOM     21  C   UNK A   0      -4.540   4.880 128.076  0.00  0.00    +0.000 C 
ATOM     22  O   UNK A   0      -4.853   5.594 127.130  0.00  0.00    +0.000 OA
BRANCH  21  23
ATOM     23  O   UNK A   0      -4.110   3.586 127.962  0.00  0.00    +0.000 OA
BRANCH  23  24
ATOM     24  C   UNK A   0      -3.478   3.261 126.720  0.00  0.00    +0.000 C 
ATOM     25  C   UNK A   0      -1.976   3.214 126.935  0.00  0.00    +0.000 C 
ENDBRANCH  23  24
ENDBRANCH  21  23
ENDBRANCH  20  21
BRANCH  20  26
ATOM     26  C   UNK A   0      -3.159   4.956 130.096  0.00  0.00    +0.000 C 
BRANCH  26  27
ATOM     27  C   UNK A   0      -2.206   6.120 129.996  0.00  0.00    +0.000 C 
BRANCH  27  28
ATOM     28  C   UNK A   0      -1.827   6.857 131.228  0.00  0.00    +0.000 A 
ATOM     29  C   UNK A   0      -2.734   7.755 131.795  0.00  0.00    +0.000 A 
ATOM     30  C   UNK A   0      -2.342   8.508 132.893  0.00  0.00    +0.000 A 
ATOM     31  C   UNK A   0      -1.129   8.238 133.527  0.00  0.00    +0.000 A 
ATOM     32  C   UNK A   0      -0.312   7.215 133.071  0.00  0.00    +0.000 A 
ATOM     33  C   UNK A   0      -0.670   6.517 131.933  0.00  0.00    +0.000 A 
ENDBRANCH  27  28
ENDBRANCH  26  27
ENDBRANCH  20  26
ENDBRANCH  18  20
ENDBRANCH   1  18
TORSDOF 11
ENDMDL
MODEL 2
REMARK VINA RESULT:      -7.8      3.425      6.779
REMARK  Name = Trandolapril
REMARK  13 active torsions:
REMARK  status: ('A' for Active; 'I' for Inactive)
REMARK    1  A    between atoms: CA_4  and  C_31
REMARK    2  A    between atoms: C_6  and  CA_8
REMARK    3  A    between atoms: CA_8  and  CB_9
REMARK    4  A    between atoms: CA_8  and  N_10
REMARK    5  A    between atoms: N_10  and  C_11
REMARK    6  A    between atoms: C_11  and  C_12
REMARK    7  A    between atoms: C_11  and  C_20
REMARK    8  A    between atoms: C_12  and  C_13
REMARK    9  A    between atoms: C_13  and  C_14
REMARK   10  A    between atoms: C_20  and  O_22
REMARK   11  A    between atoms: O_22  and  C_23
REMARK   12  A    between atoms: C_23  and  C_24
REMARK   13  A    between atoms: C_31  and  O_32
REMARK                            x       y       z     vdW  Elec       q    Type
REMARK                         _______ _______ _______ _____ _____    ______ ____
ROOT
ATOM      1  CA  ALA A   1      -7.288   3.942 128.907  0.00  0.00    +0.000 C 
ATOM      2  CB  ALA A   1      -7.218   3.184 130.210  0.00  0.00    +0.000 C 
ENDROOT
BRANCH   1   7
ATOM      3  C   ALA A   1      -7.530   1.719 124.577  0.00  0.00    +0.000 C 
ATOM      4  C   ALA A   1      -6.428   2.768 124.594  0.00  0.00    +0.000 C 
ATOM      5  CA  ALA A   1      -6.708   3.499 125.903  0.00  0.00    +0.000 C 
ATOM      6  N   ALA A   1      -7.520   2.588 126.718  0.00  0.00    +0.000 N 
ATOM      7  C   ALA A   1      -8.048   2.904 127.962  0.00  0.00    +0.000 C 
ATOM      8  O   ALA A   1      -9.126   2.420 128.319  0.00  0.00    +0.000 OA
ATOM      9  C   ALA A   1      -7.602   1.303 126.039  0.00  0.00    +0.000 C 
ATOM     10  C   ALA A   1      -8.786   0.380 126.225  0.00  0.00    +0.000 C 
ATOM     11  C   ALA A   1      -8.572  -0.869 125.361  0.00  0.00    +0.000 C 
ATOM     12  C   ALA A   1      -8.255  -0.589 123.895  0.00  0.00    +0.000 C 
ATOM     13  C   ALA A   1      -7.249   0.542 123.678  0.00  0.00    +0.000 C 
BRANCH   5  14
ATOM     14  C   ALA A   1      -7.528   4.730 125.475  0.00  0.00    +0.000 C 
ATOM     15  OXT ALA A   1      -8.726   4.768 125.502  0.00  0.00    +0.000 OA
BRANCH  14  16
ATOM     16  O   ALA A   1      -6.768   5.768 124.998  0.00  0.00    +0.000 OA
ATOM     17  H   ALA A   1      -7.148   6.657 125.172  0.00  0.00    +0.000 HD
ENDBRANCH  14  16
ENDBRANCH   5  14
ENDBRANCH   1   7
BRANCH   1  18
ATOM     18  N   ALA A   1      -8.051   5.207 129.065  0.00  0.00    +0.000 NA
ATOM     19  H   ALA A   1      -8.713   5.323 128.293  0.00  0.00    +0.000 HD
BRANCH  18  20
ATOM     20  C   UNK A   0      -8.775   5.449 130.349  0.00  0.00    +0.000 C 
BRANCH  20  21
ATOM     21  C   UNK A   0     -10.256   5.799 130.050  0.00  0.00    +0.000 C 
ATOM     22  O   UNK A   0     -11.112   5.010 129.664  0.00  0.00    +0.000 OA
BRANCH  21  23
ATOM     23  O   UNK A   0     -10.477   7.128 130.288  0.00  0.00    +0.000 OA
BRANCH  23  24
ATOM     24  C   UNK A   0     -11.345   7.778 129.354  0.00  0.00    +0.000 C 
ATOM     25  C   UNK A   0     -10.500   8.401 128.257  0.00  0.00    +0.000 C 
ENDBRANCH  23  24
ENDBRANCH  21  23
ENDBRANCH  20  21
BRANCH  20  26
ATOM     26  C   UNK A   0      -8.253   6.626 131.187  0.00  0.00    +0.000 C 
BRANCH  26  27
ATOM     27  C   UNK A   0      -7.123   6.226 132.101  0.00  0.00    +0.000 C 
BRANCH  27  28
ATOM     28  C   UNK A   0      -5.732   6.608 131.749  0.00  0.00    +0.000 A 
ATOM     29  C   UNK A   0      -5.506   7.414 130.631  0.00  0.00    +0.000 A 
ATOM     30  C   UNK A   0      -4.200   7.694 130.253  0.00  0.00    +0.000 A 
ATOM     31  C   UNK A   0      -3.140   7.327 131.082  0.00  0.00    +0.000 A 
ATOM     32  C   UNK A   0      -3.382   6.688 132.288  0.00  0.00    +0.000 A 
ATOM     33  C   UNK A   0      -4.677   6.345 132.626  0.00  0.00    +0.000 A 
ENDBRANCH  27  28
ENDBRANCH  26  27
ENDBRANCH  20  26
ENDBRANCH  18  20
ENDBRANCH   1  18
TORSDOF 11
ENDMDL
MODEL 3
REMARK VINA RESULT:      -7.7      5.613      9.751
REMARK  Name = Trandolapril
REMARK  13 active torsions:
REMARK  status: ('A' for Active; 'I' for Inactive)
REMARK    1  A    between atoms: CA_4  and  C_31
REMARK    2  A    between atoms: C_6  and  CA_8
REMARK    3  A    between atoms: CA_8  and  CB_9
REMARK    4  A    between atoms: CA_8  and  N_10
REMARK    5  A    between atoms: N_10  and  C_11
REMARK    6  A    between atoms: C_11  and  C_12
REMARK    7  A    between atoms: C_11  and  C_20
REMARK    8  A    between atoms: C_12  and  C_13
REMARK    9  A    between atoms: C_13  and  C_14
REMARK   10  A    between atoms: C_20  and  O_22
REMARK   11  A    between atoms: O_22  and  C_23
REMARK   12  A    between atoms: C_23  and  C_24
REMARK   13  A    between atoms: C_31  and  O_32
REMARK                            x       y       z     vdW  Elec       q    Type
REMARK                         _______ _______ _______ _____ _____    ______ ____
ROOT
ATOM      1  CA  ALA A   1      -8.416   1.218 124.945  0.00  0.00    +0.000 C 
ATOM      2  CB  ALA A   1      -9.475   0.299 124.388  0.00  0.00    +0.000 C 
ENDROOT
BRANCH   1   7
ATOM      3  C   ALA A   1      -5.522   4.493 122.790  0.00  0.00    +0.000 C 
ATOM      4  C   ALA A   1      -4.941   4.039 124.120  0.00  0.00    +0.000 C 
ATOM      5  CA  ALA A   1      -6.103   3.256 124.722  0.00  0.00    +0.000 C 
ATOM      6  N   ALA A   1      -6.981   2.897 123.603  0.00  0.00    +0.000 N 
ATOM      7  C   ALA A   1      -8.194   2.235 123.736  0.00  0.00    +0.000 C 
ATOM      8  O   ALA A   1      -9.116   2.468 122.948  0.00  0.00    +0.000 OA
ATOM      9  C   ALA A   1      -6.329   3.278 122.359  0.00  0.00    +0.000 C 
ATOM     10  C   ALA A   1      -7.124   3.635 121.122  0.00  0.00    +0.000 C 
ATOM     11  C   ALA A   1      -6.145   4.006 120.002  0.00  0.00    +0.000 C 
ATOM     12  C   ALA A   1      -5.112   5.066 120.377  0.00  0.00    +0.000 C 
ATOM     13  C   ALA A   1      -4.488   4.868 121.759  0.00  0.00    +0.000 C 
BRANCH   5  14
ATOM     14  C   ALA A   1      -6.791   4.268 125.656  0.00  0.00    +0.000 C 
ATOM     15  OXT ALA A   1      -7.888   4.711 125.458  0.00  0.00    +0.000 OA
BRANCH  14  16
ATOM     16  O   ALA A   1      -6.012   4.674 126.711  0.00  0.00    +0.000 OA
ATOM     17  H   ALA A   1      -6.033   4.066 127.482  0.00  0.00    +0.000 HD
ENDBRANCH  14  16
ENDBRANCH   5  14
ENDBRANCH   1   7
BRANCH   1  18
ATOM     18  N   ALA A   1      -8.897   1.909 126.168  0.00  0.00    +0.000 NA
ATOM     19  H   ALA A   1      -9.905   2.080 126.108  0.00  0.00    +0.000 HD
BRANCH  18  20
ATOM     20  C   UNK A   0      -8.599   1.299 127.499  0.00  0.00    +0.000 C 
BRANCH  20  21
ATOM     21  C   UNK A   0      -8.306   2.421 128.529  0.00  0.00    +0.000 C 
ATOM     22  O   UNK A   0      -7.202   2.898 128.770  0.00  0.00    +0.000 OA
BRANCH  21  23
ATOM     23  O   UNK A   0      -9.469   2.814 129.132  0.00  0.00    +0.000 OA
BRANCH  23  24
ATOM     24  C   UNK A   0      -9.316   3.391 130.433  0.00  0.00    +0.000 C 
ATOM     25  C   UNK A   0      -9.909   2.441 131.459  0.00  0.00    +0.000 C 
ENDBRANCH  23  24
ENDBRANCH  21  23
ENDBRANCH  20  21
BRANCH  20  26
ATOM     26  C   UNK A   0      -7.363   0.389 127.544  0.00  0.00    +0.000 C 
BRANCH  26  27
ATOM     27  C   UNK A   0      -7.722  -1.063 127.733  0.00  0.00    +0.000 C 
BRANCH  27  28
ATOM     28  C   UNK A   0      -7.627  -1.992 126.579  0.00  0.00    +0.000 A 
ATOM     29  C   UNK A   0      -8.724  -2.791 126.250  0.00  0.00    +0.000 A 
ATOM     30  C   UNK A   0      -8.600  -3.722 125.228  0.00  0.00    +0.000 A 
ATOM     31  C   UNK A   0      -7.459  -3.729 124.426  0.00  0.00    +0.000 A 
ATOM     32  C   UNK A   0      -6.446  -2.806 124.638  0.00  0.00    +0.000 A 
ATOM     33  C   UNK A   0      -6.540  -1.930 125.703  0.00  0.00    +0.000 A 
ENDBRANCH  27  28
ENDBRANCH  26  27
ENDBRANCH  20  26
ENDBRANCH  18  20
ENDBRANCH   1  18
TORSDOF 11
ENDMDL
MODEL 4
REMARK VINA RESULT:      -7.6      1.829      2.542
REMARK  Name = Trandolapril
REMARK  13 active torsions:
REMARK  status: ('A' for Active; 'I' for Inactive)
REMARK    1  A    between atoms: CA_4  and  C_31
REMARK    2  A    between atoms: C_6  and  CA_8
REMARK    3  A    between atoms: CA_8  and  CB_9
REMARK    4  A    between atoms: CA_8  and  N_10
REMARK    5  A    between atoms: N_10  and  C_11
REMARK    6  A    between atoms: C_11  and  C_12
REMARK    7  A    between atoms: C_11  and  C_20
REMARK    8  A    between atoms: C_12  and  C_13
REMARK    9  A    between atoms: C_13  and  C_14
REMARK   10  A    between atoms: C_20  and  O_22
REMARK   11  A    between atoms: O_22  and  C_23
REMARK   12  A    between atoms: C_23  and  C_24
REMARK   13  A    between atoms: C_31  and  O_32
REMARK                            x       y       z     vdW  Elec       q    Type
REMARK                         _______ _______ _______ _____ _____    ______ ____
ROOT
ATOM      1  CA  ALA A   1      -7.344   4.235 129.537  0.00  0.00    +0.000 C 
ATOM      2  CB  ALA A   1      -6.593   5.335 130.246  0.00  0.00    +0.000 C 
ENDROOT
BRANCH   1   7
ATOM      3  C   ALA A   1     -11.529   6.630 130.241  0.00  0.00    +0.000 C 
ATOM      4  C   ALA A   1     -11.019   6.024 131.539  0.00  0.00    +0.000 C 
ATOM      5  CA  ALA A   1      -9.889   5.124 131.047  0.00  0.00    +0.000 C 
ATOM      6  N   ALA A   1      -9.516   5.623 129.718  0.00  0.00    +0.000 N 
ATOM      7  C   ALA A   1      -8.568   5.033 128.894  0.00  0.00    +0.000 C 
ATOM      8  O   ALA A   1      -8.695   5.083 127.667  0.00  0.00    +0.000 OA
ATOM      9  C   ALA A   1     -10.241   6.859 129.464  0.00  0.00    +0.000 C 
ATOM     10  C   ALA A   1     -10.591   7.300 128.059  0.00  0.00    +0.000 C 
ATOM     11  C   ALA A   1     -11.366   8.621 128.142  0.00  0.00    +0.000 C 
ATOM     12  C   ALA A   1     -12.569   8.603 129.082  0.00  0.00    +0.000 C 
ATOM     13  C   ALA A   1     -12.306   7.910 130.419  0.00  0.00    +0.000 C 
BRANCH   5  14
ATOM     14  C   ALA A   1     -10.539   3.732 130.946  0.00  0.00    +0.000 C 
ATOM     15  OXT ALA A   1     -11.347   3.439 130.110  0.00  0.00    +0.000 OA
BRANCH  14  16
ATOM     16  O   ALA A   1     -10.160   2.866 131.941  0.00  0.00    +0.000 OA
ATOM     17  H   ALA A   1     -10.556   1.971 131.865  0.00  0.00    +0.000 HD
ENDBRANCH  14  16
ENDBRANCH   5  14
ENDBRANCH   1   7
BRANCH   1  18
ATOM     18  N   ALA A   1      -6.496   3.594 128.498  0.00  0.00    +0.000 NA
ATOM     19  H   ALA A   1      -7.079   3.206 127.752  0.00  0.00    +0.000 HD
BRANCH  18  20
ATOM     20  C   UNK A   0      -5.401   4.396 127.874  0.00  0.00    +0.000 C 
BRANCH  20  21
ATOM     21  C   UNK A   0      -5.668   4.541 126.353  0.00  0.00    +0.000 C 
ATOM     22  O   UNK A   0      -5.745   5.600 125.739  0.00  0.00    +0.000 OA
BRANCH  21  23
ATOM     23  O   UNK A   0      -5.799   3.304 125.785  0.00  0.00    +0.000 OA
BRANCH  23  24
ATOM     24  C   UNK A   0      -6.573   3.265 124.581  0.00  0.00    +0.000 C 
ATOM     25  C   UNK A   0      -8.004   2.899 124.935  0.00  0.00    +0.000 C 
ENDBRANCH  23  24
ENDBRANCH  21  23
ENDBRANCH  20  21
BRANCH  20  26
ATOM     26  C   UNK A   0      -3.997   3.782 127.972  0.00  0.00    +0.000 C 
BRANCH  26  27
ATOM     27  C   UNK A   0      -2.920   4.825 128.132  0.00  0.00    +0.000 C 
BRANCH  27  28
ATOM     28  C   UNK A   0      -3.118   5.932 129.101  0.00  0.00    +0.000 A 
ATOM     29  C   UNK A   0      -2.646   5.790 130.408  0.00  0.00    +0.000 A 
ATOM     30  C   UNK A   0      -2.912   6.788 131.334  0.00  0.00    +0.000 A 
ATOM     31  C   UNK A   0      -3.481   7.992 130.919  0.00  0.00    +0.000 A 
ATOM     32  C   UNK A   0      -3.778   8.202 129.581  0.00  0.00    +0.000 A 
ATOM     33  C   UNK A   0      -3.581   7.178 128.674  0.00  0.00    +0.000 A 
ENDBRANCH  27  28
ENDBRANCH  26  27
ENDBRANCH  20  26
ENDBRANCH  18  20
ENDBRANCH   1  18
TORSDOF 11
ENDMDL
MODEL 5
REMARK VINA RESULT:      -7.4      4.428      7.186
REMARK  Name = Trandolapril
REMARK  13 active torsions:
REMARK  status: ('A' for Active; 'I' for Inactive)
REMARK    1  A    between atoms: CA_4  and  C_31
REMARK    2  A    between atoms: C_6  and  CA_8
REMARK    3  A    between atoms: CA_8  and  CB_9
REMARK    4  A    between atoms: CA_8  and  N_10
REMARK    5  A    between atoms: N_10  and  C_11
REMARK    6  A    between atoms: C_11  and  C_12
REMARK    7  A    between atoms: C_11  and  C_20
REMARK    8  A    between atoms: C_12  and  C_13
REMARK    9  A    between atoms: C_13  and  C_14
REMARK   10  A    between atoms: C_20  and  O_22
REMARK   11  A    between atoms: O_22  and  C_23
REMARK   12  A    between atoms: C_23  and  C_24
REMARK   13  A    between atoms: C_31  and  O_32
REMARK                            x       y       z     vdW  Elec       q    Type
REMARK                         _______ _______ _______ _____ _____    ______ ____
ROOT
ATOM      1  CA  ALA A   1      -7.425   3.905 129.651  0.00  0.00    +0.000 C 
ATOM      2  CB  ALA A   1      -6.365   4.930 129.972  0.00  0.00    +0.000 C 
ENDROOT
BRANCH   1   7
ATOM      3  C   ALA A   1     -11.450   6.615 130.106  0.00  0.00    +0.000 C 
ATOM      4  C   ALA A   1     -11.073   5.967 131.429  0.00  0.00    +0.000 C 
ATOM      5  CA  ALA A   1      -9.987   4.984 131.002  0.00  0.00    +0.000 C 
ATOM      6  N   ALA A   1      -9.491   5.457 129.705  0.00  0.00    +0.000 N 
ATOM      7  C   ALA A   1      -8.540   4.798 128.939  0.00  0.00    +0.000 C 
ATOM      8  O   ALA A   1      -8.584   4.862 127.706  0.00  0.00    +0.000 OA
ATOM      9  C   ALA A   1     -10.101   6.746 129.416  0.00  0.00    +0.000 C 
ATOM     10  C   ALA A   1     -10.325   7.218 127.995  0.00  0.00    +0.000 C 
ATOM     11  C   ALA A   1     -10.999   8.595 128.039  0.00  0.00    +0.000 C 
ATOM     12  C   ALA A   1     -12.257   8.666 128.900  0.00  0.00    +0.000 C 
ATOM     13  C   ALA A   1     -12.136   7.950 130.245  0.00  0.00    +0.000 C 
BRANCH   5  14
ATOM     14  C   ALA A   1     -10.734   3.647 130.849  0.00  0.00    +0.000 C 
ATOM     15  OXT ALA A   1     -11.597   3.461 130.037  0.00  0.00    +0.000 OA
BRANCH  14  16
ATOM     16  O   ALA A   1     -10.371   2.695 131.769  0.00  0.00    +0.000 OA
ATOM     17  H   ALA A   1     -10.582   2.935 132.698  0.00  0.00    +0.000 HD
ENDBRANCH  14  16
ENDBRANCH   5  14
ENDBRANCH   1   7
BRANCH   1  18
ATOM     18  N   ALA A   1      -6.895   2.855 128.744  0.00  0.00    +0.000 NA
ATOM     19  H   ALA A   1      -5.987   2.521 129.078  0.00  0.00    +0.000 HD
BRANCH  18  20
ATOM     20  C   UNK A   0      -7.755   1.670 128.444  0.00  0.00    +0.000 C 
BRANCH  20  21
ATOM     21  C   UNK A   0      -7.827   0.753 129.693  0.00  0.00    +0.000 C 
ATOM     22  O   UNK A   0      -8.667   0.825 130.584  0.00  0.00    +0.000 OA
BRANCH  21  23
ATOM     23  O   UNK A   0      -6.813  -0.164 129.655  0.00  0.00    +0.000 OA
BRANCH  23  24
ATOM     24  C   UNK A   0      -7.087  -1.403 130.318  0.00  0.00    +0.000 C 
ATOM     25  C   UNK A   0      -7.806  -2.325 129.350  0.00  0.00    +0.000 C 
ENDBRANCH  23  24
ENDBRANCH  21  23
ENDBRANCH  20  21
BRANCH  20  26
ATOM     26  C   UNK A   0      -7.249   0.760 127.315  0.00  0.00    +0.000 C 
BRANCH  26  27
ATOM     27  C   UNK A   0      -8.375   0.136 126.529  0.00  0.00    +0.000 C 
BRANCH  27  28
ATOM     28  C   UNK A   0      -8.162  -1.177 125.869  0.00  0.00    +0.000 A 
ATOM     29  C   UNK A   0      -9.195  -2.116 125.864  0.00  0.00    +0.000 A 
ATOM     30  C   UNK A   0      -8.961  -3.374 125.326  0.00  0.00    +0.000 A 
ATOM     31  C   UNK A   0      -7.774  -3.630 124.640  0.00  0.00    +0.000 A 
ATOM     32  C   UNK A   0      -6.825  -2.632 124.485  0.00  0.00    +0.000 A 
ATOM     33  C   UNK A   0      -7.028  -1.404 125.086  0.00  0.00    +0.000 A 
ENDBRANCH  27  28
ENDBRANCH  26  27
ENDBRANCH  20  26
ENDBRANCH  18  20
ENDBRANCH   1  18
TORSDOF 11
ENDMDL
MODEL 6
REMARK VINA RESULT:      -7.4      4.188      6.347
REMARK  Name = Trandolapril
REMARK  13 active torsions:
REMARK  status: ('A' for Active; 'I' for Inactive)
REMARK    1  A    between atoms: CA_4  and  C_31
REMARK    2  A    between atoms: C_6  and  CA_8
REMARK    3  A    between atoms: CA_8  and  CB_9
REMARK    4  A    between atoms: CA_8  and  N_10
REMARK    5  A    between atoms: N_10  and  C_11
REMARK    6  A    between atoms: C_11  and  C_12
REMARK    7  A    between atoms: C_11  and  C_20
REMARK    8  A    between atoms: C_12  and  C_13
REMARK    9  A    between atoms: C_13  and  C_14
REMARK   10  A    between atoms: C_20  and  O_22
REMARK   11  A    between atoms: O_22  and  C_23
REMARK   12  A    between atoms: C_23  and  C_24
REMARK   13  A    between atoms: C_31  and  O_32
REMARK                            x       y       z     vdW  Elec       q    Type
REMARK                         _______ _______ _______ _____ _____    ______ ____
ROOT
ATOM      1  CA  ALA A   1      -7.493   4.329 129.503  0.00  0.00    +0.000 C 
ATOM      2  CB  ALA A   1      -6.746   5.389 130.274  0.00  0.00    +0.000 C 
ENDROOT
BRANCH   1   7
ATOM      3  C   ALA A   1     -11.700   6.642 130.336  0.00  0.00    +0.000 C 
ATOM      4  C   ALA A   1     -11.193   5.956 131.595  0.00  0.00    +0.000 C 
ATOM      5  CA  ALA A   1     -10.054   5.098 131.051  0.00  0.00    +0.000 C 
ATOM      6  N   ALA A   1      -9.677   5.687 129.761  0.00  0.00    +0.000 N 
ATOM      7  C   ALA A   1      -8.719   5.158 128.906  0.00  0.00    +0.000 C 
ATOM      8  O   ALA A   1      -8.839   5.290 127.684  0.00  0.00    +0.000 OA
ATOM      9  C   ALA A   1     -10.409   6.932 129.585  0.00  0.00    +0.000 C 
ATOM     10  C   ALA A   1     -10.754   7.462 128.210  0.00  0.00    +0.000 C 
ATOM     11  C   ALA A   1     -11.540   8.769 128.374  0.00  0.00    +0.000 C 
ATOM     12  C   ALA A   1     -12.747   8.680 129.303  0.00  0.00    +0.000 C 
ATOM     13  C   ALA A   1     -12.488   7.902 130.593  0.00  0.00    +0.000 C 
BRANCH   5  14
ATOM     14  C   ALA A   1     -10.693   3.711 130.855  0.00  0.00    +0.000 C 
ATOM     15  OXT ALA A   1     -11.538   3.483 130.035  0.00  0.00    +0.000 OA
BRANCH  14  16
ATOM     16  O   ALA A   1     -10.256   2.764 131.746  0.00  0.00    +0.000 OA
ATOM     17  H   ALA A   1     -10.617   2.870 132.653  0.00  0.00    +0.000 HD
ENDBRANCH  14  16
ENDBRANCH   5  14
ENDBRANCH   1   7
BRANCH   1  18
ATOM     18  N   ALA A   1      -6.643   3.751 128.430  0.00  0.00    +0.000 NA
ATOM     19  H   ALA A   1      -5.653   3.851 128.667  0.00  0.00    +0.000 HD
BRANCH  18  20
ATOM     20  C   UNK A   0      -6.889   2.340 128.005  0.00  0.00    +0.000 C 
BRANCH  20  21
ATOM     21  C   UNK A   0      -7.390   2.320 126.538  0.00  0.00    +0.000 C 
ATOM     22  O   UNK A   0      -6.709   2.564 125.547  0.00  0.00    +0.000 OA
BRANCH  21  23
ATOM     23  O   UNK A   0      -8.715   1.982 126.504  0.00  0.00    +0.000 OA
BRANCH  23  24
ATOM     24  C   UNK A   0      -9.072   1.014 125.512  0.00  0.00    +0.000 C 
ATOM     25  C   UNK A   0      -9.857   1.710 124.414  0.00  0.00    +0.000 C 
ENDBRANCH  23  24
ENDBRANCH  21  23
ENDBRANCH  20  21
BRANCH  20  26
ATOM     26  C   UNK A   0      -7.968   1.591 128.801  0.00  0.00    +0.000 C 
BRANCH  26  27
ATOM     27  C   UNK A   0      -7.401   0.451 129.610  0.00  0.00    +0.000 C 
BRANCH  27  28
ATOM     28  C   UNK A   0      -7.707  -0.945 129.212  0.00  0.00    +0.000 A 
ATOM     29  C   UNK A   0      -7.706  -1.287 127.857  0.00  0.00    +0.000 A 
ATOM     30  C   UNK A   0      -8.080  -2.571 127.485  0.00  0.00    +0.000 A 
ATOM     31  C   UNK A   0      -8.276  -3.551 128.457  0.00  0.00    +0.000 A 
ATOM     32  C   UNK A   0      -8.093  -3.254 129.799  0.00  0.00    +0.000 A 
ATOM     33  C   UNK A   0      -7.794  -1.957 130.171  0.00  0.00    +0.000 A 
ENDBRANCH  27  28
ENDBRANCH  26  27
ENDBRANCH  20  26
ENDBRANCH  18  20
ENDBRANCH   1  18
TORSDOF 11
ENDMDL
MODEL 7
REMARK VINA RESULT:      -7.4      3.842      6.150
REMARK  Name = Trandolapril
REMARK  13 active torsions:
REMARK  status: ('A' for Active; 'I' for Inactive)
REMARK    1  A    between atoms: CA_4  and  C_31
REMARK    2  A    between atoms: C_6  and  CA_8
REMARK    3  A    between atoms: CA_8  and  CB_9
REMARK    4  A    between atoms: CA_8  and  N_10
REMARK    5  A    between atoms: N_10  and  C_11
REMARK    6  A    between atoms: C_11  and  C_12
REMARK    7  A    between atoms: C_11  and  C_20
REMARK    8  A    between atoms: C_12  and  C_13
REMARK    9  A    between atoms: C_13  and  C_14
REMARK   10  A    between atoms: C_20  and  O_22
REMARK   11  A    between atoms: O_22  and  C_23
REMARK   12  A    between atoms: C_23  and  C_24
REMARK   13  A    between atoms: C_31  and  O_32
REMARK                            x       y       z     vdW  Elec       q    Type
REMARK                         _______ _______ _______ _____ _____    ______ ____
ROOT
ATOM      1  CA  ALA A   1      -7.370   3.844 129.553  0.00  0.00    +0.000 C 
ATOM      2  CB  ALA A   1      -6.127   4.670 129.329  0.00  0.00    +0.000 C 
ENDROOT
BRANCH   1   7
ATOM      3  C   ALA A   1     -11.356   6.595 130.098  0.00  0.00    +0.000 C 
ATOM      4  C   ALA A   1     -10.953   5.946 131.413  0.00  0.00    +0.000 C 
ATOM      5  CA  ALA A   1      -9.888   4.951 130.963  0.00  0.00    +0.000 C 
ATOM      6  N   ALA A   1      -9.419   5.417 129.653  0.00  0.00    +0.000 N 
ATOM      7  C   ALA A   1      -8.493   4.746 128.865  0.00  0.00    +0.000 C 
ATOM      8  O   ALA A   1      -8.566   4.808 127.634  0.00  0.00    +0.000 OA
ATOM      9  C   ALA A   1     -10.022   6.711 129.375  0.00  0.00    +0.000 C 
ATOM     10  C   ALA A   1     -10.276   7.182 127.959  0.00  0.00    +0.000 C 
ATOM     11  C   ALA A   1     -10.935   8.566 128.015  0.00  0.00    +0.000 C 
ATOM     12  C   ALA A   1     -12.171   8.652 128.906  0.00  0.00    +0.000 C 
ATOM     13  C   ALA A   1     -12.025   7.938 130.250  0.00  0.00    +0.000 C 
BRANCH   5  14
ATOM     14  C   ALA A   1     -10.652   3.621 130.830  0.00  0.00    +0.000 C 
ATOM     15  OXT ALA A   1     -11.528   3.439 130.032  0.00  0.00    +0.000 OA
BRANCH  14  16
ATOM     16  O   ALA A   1     -10.286   2.673 131.753  0.00  0.00    +0.000 OA
ATOM     17  H   ALA A   1      -9.418   2.843 132.179  0.00  0.00    +0.000 HD
ENDBRANCH  14  16
ENDBRANCH   5  14
ENDBRANCH   1   7
BRANCH   1  18
ATOM     18  N   ALA A   1      -7.252   2.515 128.900  0.00  0.00    +0.000 NA
ATOM     19  H   ALA A   1      -7.828   2.481 128.054  0.00  0.00    +0.000 HD
BRANCH  18  20
ATOM     20  C   UNK A   0      -5.890   2.000 128.566  0.00  0.00    +0.000 C 
BRANCH  20  21
ATOM     21  C   UNK A   0      -5.678   2.057 127.030  0.00  0.00    +0.000 C 
ATOM     22  O   UNK A   0      -6.568   2.116 126.188  0.00  0.00    +0.000 OA
BRANCH  21  23
ATOM     23  O   UNK A   0      -4.340   2.038 126.745  0.00  0.00    +0.000 OA
BRANCH  23  24
ATOM     24  C   UNK A   0      -3.702   3.319 126.733  0.00  0.00    +0.000 C 
ATOM     25  C   UNK A   0      -2.198   3.114 126.769  0.00  0.00    +0.000 C 
ENDBRANCH  23  24
ENDBRANCH  21  23
ENDBRANCH  20  21
BRANCH  20  26
ATOM     26  C   UNK A   0      -5.627   0.536 128.948  0.00  0.00    +0.000 C 
BRANCH  26  27
ATOM     27  C   UNK A   0      -6.841  -0.131 129.544  0.00  0.00    +0.000 C 
BRANCH  27  28
ATOM     28  C   UNK A   0      -7.466  -1.274 128.832  0.00  0.00    +0.000 A 
ATOM     29  C   UNK A   0      -7.954  -2.356 129.568  0.00  0.00    +0.000 A 
ATOM     30  C   UNK A   0      -8.455  -3.460 128.894  0.00  0.00    +0.000 A 
ATOM     31  C   UNK A   0      -8.636  -3.412 127.512  0.00  0.00    +0.000 A 
ATOM     32  C   UNK A   0      -8.324  -2.261 126.804  0.00  0.00    +0.000 A 
ATOM     33  C   UNK A   0      -7.755  -1.190 127.467  0.00  0.00    +0.000 A 
ENDBRANCH  27  28
ENDBRANCH  26  27
ENDBRANCH  20  26
ENDBRANCH  18  20
ENDBRANCH   1  18
TORSDOF 11
ENDMDL
MODEL 8
REMARK VINA RESULT:      -7.3      4.121      6.829
REMARK  Name = Trandolapril
REMARK  13 active torsions:
REMARK  status: ('A' for Active; 'I' for Inactive)
REMARK    1  A    between atoms: CA_4  and  C_31
REMARK    2  A    between atoms: C_6  and  CA_8
REMARK    3  A    between atoms: CA_8  and  CB_9
REMARK    4  A    between atoms: CA_8  and  N_10
REMARK    5  A    between atoms: N_10  and  C_11
REMARK    6  A    between atoms: C_11  and  C_12
REMARK    7  A    between atoms: C_11  and  C_20
REMARK    8  A    between atoms: C_12  and  C_13
REMARK    9  A    between atoms: C_13  and  C_14
REMARK   10  A    between atoms: C_20  and  O_22
REMARK   11  A    between atoms: O_22  and  C_23
REMARK   12  A    between atoms: C_23  and  C_24
REMARK   13  A    between atoms: C_31  and  O_32
REMARK                            x       y       z     vdW  Elec       q    Type
REMARK                         _______ _______ _______ _____ _____    ______ ____
ROOT
ATOM      1  CA  ALA A   1      -7.443   3.751 129.506  0.00  0.00    +0.000 C 
ATOM      2  CB  ALA A   1      -6.226   4.051 128.666  0.00  0.00    +0.000 C 
ENDROOT
BRANCH   1   7
ATOM      3  C   ALA A   1     -11.366   6.578 130.112  0.00  0.00    +0.000 C 
ATOM      4  C   ALA A   1     -10.980   5.890 131.412  0.00  0.00    +0.000 C 
ATOM      5  CA  ALA A   1      -9.936   4.882 130.940  0.00  0.00    +0.000 C 
ATOM      6  N   ALA A   1      -9.456   5.367 129.641  0.00  0.00    +0.000 N 
ATOM      7  C   ALA A   1      -8.544   4.694 128.839  0.00  0.00    +0.000 C 
ATOM      8  O   ALA A   1      -8.614   4.786 127.609  0.00  0.00    +0.000 OA
ATOM      9  C   ALA A   1     -10.029   6.681 129.393  0.00  0.00    +0.000 C 
ATOM     10  C   ALA A   1     -10.270   7.190 127.988  0.00  0.00    +0.000 C 
ATOM     11  C   ALA A   1     -10.898   8.586 128.076  0.00  0.00    +0.000 C 
ATOM     12  C   ALA A   1     -12.133   8.680 128.967  0.00  0.00    +0.000 C 
ATOM     13  C   ALA A   1     -12.004   7.932 130.294  0.00  0.00    +0.000 C 
BRANCH   5  14
ATOM     14  C   ALA A   1     -10.730   3.573 130.776  0.00  0.00    +0.000 C 
ATOM     15  OXT ALA A   1     -11.597   3.423 129.961  0.00  0.00    +0.000 OA
BRANCH  14  16
ATOM     16  O   ALA A   1     -10.404   2.604 131.692  0.00  0.00    +0.000 OA
ATOM     17  H   ALA A   1      -9.590   2.101 131.469  0.00  0.00    +0.000 HD
ENDBRANCH  14  16
ENDBRANCH   5  14
ENDBRANCH   1   7
BRANCH   1  18
ATOM     18  N   ALA A   1      -7.815   2.316 129.414  0.00  0.00    +0.000 NA
ATOM     19  H   ALA A   1      -7.481   1.917 128.532  0.00  0.00    +0.000 HD
BRANCH  18  20
ATOM     20  C   UNK A   0      -7.418   1.401 130.527  0.00  0.00    +0.000 C 
BRANCH  20  21
ATOM     21  C   UNK A   0      -6.747   2.224 131.658  0.00  0.00    +0.000 C 
ATOM     22  O   UNK A   0      -5.540   2.311 131.858  0.00  0.00    +0.000 OA
BRANCH  21  23
ATOM     23  O   UNK A   0      -7.705   2.852 132.407  0.00  0.00    +0.000 OA
BRANCH  23  24
ATOM     24  C   UNK A   0      -7.208   3.675 133.467  0.00  0.00    +0.000 C 
ATOM     25  C   UNK A   0      -8.357   4.016 134.398  0.00  0.00    +0.000 C 
ENDBRANCH  23  24
ENDBRANCH  21  23
ENDBRANCH  20  21
BRANCH  20  26
ATOM     26  C   UNK A   0      -6.389   0.323 130.159  0.00  0.00    +0.000 C 
BRANCH  26  27
ATOM     27  C   UNK A   0      -6.913  -1.074 130.375  0.00  0.00    +0.000 C 
BRANCH  27  28
ATOM     28  C   UNK A   0      -7.540  -1.798 129.241  0.00  0.00    +0.000 A 
ATOM     29  C   UNK A   0      -7.354  -1.327 127.939  0.00  0.00    +0.000 A 
ATOM     30  C   UNK A   0      -8.014  -1.954 126.893  0.00  0.00    +0.000 A 
ATOM     31  C   UNK A   0      -8.705  -3.144 127.117  0.00  0.00    +0.000 A 
ATOM     32  C   UNK A   0      -8.731  -3.712 128.381  0.00  0.00    +0.000 A 
ATOM     33  C   UNK A   0      -8.136  -3.047 129.436  0.00  0.00    +0.000 A 
ENDBRANCH  27  28
ENDBRANCH  26  27
ENDBRANCH  20  26
ENDBRANCH  18  20
ENDBRANCH   1  18
TORSDOF 11
ENDMDL
MODEL 9
REMARK VINA RESULT:      -7.2      5.047      7.754
REMARK  Name = Trandolapril
REMARK  13 active torsions:
REMARK  status: ('A' for Active; 'I' for Inactive)
REMARK    1  A    between atoms: CA_4  and  C_31
REMARK    2  A    between atoms: C_6  and  CA_8
REMARK    3  A    between atoms: CA_8  and  CB_9
REMARK    4  A    between atoms: CA_8  and  N_10
REMARK    5  A    between atoms: N_10  and  C_11
REMARK    6  A    between atoms: C_11  and  C_12
REMARK    7  A    between atoms: C_11  and  C_20
REMARK    8  A    between atoms: C_12  and  C_13
REMARK    9  A    between atoms: C_13  and  C_14
REMARK   10  A    between atoms: C_20  and  O_22
REMARK   11  A    between atoms: O_22  and  C_23
REMARK   12  A    between atoms: C_23  and  C_24
REMARK   13  A    between atoms: C_31  and  O_32
REMARK                            x       y       z     vdW  Elec       q    Type
REMARK                         _______ _______ _______ _____ _____    ______ ____
ROOT
ATOM      1  CA  ALA A   1      -8.156   1.742 128.575  0.00  0.00    +0.000 C 
ATOM      2  CB  ALA A   1      -6.768   2.276 128.321  0.00  0.00    +0.000 C 
ENDROOT
BRANCH   1   7
ATOM      3  C   ALA A   1      -8.130   3.022 133.277  0.00  0.00    +0.000 C 
ATOM      4  C   ALA A   1      -7.341   1.741 133.053  0.00  0.00    +0.000 C 
ATOM      5  CA  ALA A   1      -7.704   1.394 131.613  0.00  0.00    +0.000 C 
ATOM      6  N   ALA A   1      -8.189   2.636 131.000  0.00  0.00    +0.000 N 
ATOM      7  C   ALA A   1      -8.688   2.733 129.708  0.00  0.00    +0.000 C 
ATOM      8  O   ALA A   1      -9.573   3.552 129.445  0.00  0.00    +0.000 OA
ATOM      9  C   ALA A   1      -7.983   3.729 131.938  0.00  0.00    +0.000 C 
ATOM     10  C   ALA A   1      -8.869   4.956 131.935  0.00  0.00    +0.000 C 
ATOM     11  C   ALA A   1      -8.402   5.898 133.050  0.00  0.00    +0.000 C 
ATOM     12  C   ALA A   1      -8.277   5.252 134.428  0.00  0.00    +0.000 C 
ATOM     13  C   ALA A   1      -7.619   3.872 134.413  0.00  0.00    +0.000 C 
BRANCH   5  14
ATOM     14  C   ALA A   1      -8.845   0.370 131.752  0.00  0.00    +0.000 C 
ATOM     15  OXT ALA A   1      -9.988   0.676 131.949  0.00  0.00    +0.000 OA
BRANCH  14  16
ATOM     16  O   ALA A   1      -8.432  -0.938 131.694  0.00  0.00    +0.000 OA
ATOM     17  H   ALA A   1      -7.949  -1.170 130.871  0.00  0.00    +0.000 HD
ENDBRANCH  14  16
ENDBRANCH   5  14
ENDBRANCH   1   7
BRANCH   1  18
ATOM     18  N   ALA A   1      -8.988   1.812 127.346  0.00  0.00    +0.000 NA
ATOM     19  H   ALA A   1      -9.413   2.738 127.255  0.00  0.00    +0.000 HD
BRANCH  18  20
ATOM     20  C   UNK A   0      -8.364   1.446 126.039  0.00  0.00    +0.000 C 
BRANCH  20  21
ATOM     21  C   UNK A   0      -8.503   2.633 125.050  0.00  0.00    +0.000 C 
ATOM     22  O   UNK A   0      -8.977   3.733 125.316  0.00  0.00    +0.000 OA
BRANCH  21  23
ATOM     23  O   UNK A   0      -8.009   2.278 123.825  0.00  0.00    +0.000 OA
BRANCH  23  24
ATOM     24  C   UNK A   0      -6.662   2.689 123.568  0.00  0.00    +0.000 C 
ATOM     25  C   UNK A   0      -6.523   3.006 122.090  0.00  0.00    +0.000 C 
ENDBRANCH  23  24
ENDBRANCH  21  23
ENDBRANCH  20  21
BRANCH  20  26
ATOM     26  C   UNK A   0      -9.003   0.253 125.315  0.00  0.00    +0.000 C 
BRANCH  26  27
ATOM     27  C   UNK A   0      -8.136  -0.980 125.359  0.00  0.00    +0.000 C 
BRANCH  27  28
ATOM     28  C   UNK A   0      -8.226  -1.891 126.528  0.00  0.00    +0.000 A 
ATOM     29  C   UNK A   0      -8.987  -3.058 126.430  0.00  0.00    +0.000 A 
ATOM     30  C   UNK A   0      -9.142  -3.859 127.553  0.00  0.00    +0.000 A 
ATOM     31  C   UNK A   0      -8.399  -3.599 128.704  0.00  0.00    +0.000 A 
ATOM     32  C   UNK A   0      -7.499  -2.544 128.734  0.00  0.00    +0.000 A 
ATOM     33  C   UNK A   0      -7.403  -1.703 127.641  0.00  0.00    +0.000 A 
ENDBRANCH  27  28
ENDBRANCH  26  27
ENDBRANCH  20  26
ENDBRANCH  18  20
ENDBRANCH   1  18
TORSDOF 11
ENDMDL
