MODEL 1
REMARK VINA RESULT:      -7.6      0.000      0.000
REMARK  Name = Travoprost
REMARK  19 active torsions:
REMARK  status: ('A' for Active; 'I' for Inactive)
REMARK    1  A    between atoms: C_1  and  C_2
REMARK    2  A    between atoms: C_2  and  C_3
REMARK    3  A    between atoms: C_2  and  O_4
REMARK    4  A    between atoms: O_4  and  C_5
REMARK    5  A    between atoms: C_5  and  C_7
REMARK    6  A    between atoms: C_7  and  C_8
REMARK    7  A    between atoms: C_8  and  C_9
REMARK    8  A    between atoms: C_9  and  C_10
REMARK    9  A    between atoms: C_11  and  C_12
REMARK   10  A    between atoms: C_12  and  C_13
REMARK   11  A    between atoms: C_14  and  O_15
REMARK   12  A    between atoms: C_17  and  O_18
REMARK   13  A    between atoms: C_19  and  C_20
REMARK   14  A    between atoms: C_21  and  C_22
REMARK   15  A    between atoms: C_22  and  O_23
REMARK   16  A    between atoms: C_22  and  C_24
REMARK   17  A    between atoms: C_24  and  O_25
REMARK   18  A    between atoms: O_25  and  C_26
REMARK   19  A    between atoms: C_30  and  C_32
REMARK                            x       y       z     vdW  Elec       q    Type
REMARK                         _______ _______ _______ _____ _____    ______ ____
ROOT
ATOM      1  C   UNL     1      -6.604  -2.746 124.972  0.00  0.00    +0.000 C 
ATOM      2  C   UNL     1      -5.364  -3.160 124.154  0.00  0.00    +0.000 C 
ATOM      3  C   UNL     1      -5.415  -2.375 122.837  0.00  0.00    +0.000 C 
ATOM      4  C   UNL     1      -6.642  -1.466 122.918  0.00  0.00    +0.000 C 
ATOM      5  C   UNL     1      -6.959  -1.346 124.417  0.00  0.00    +0.000 C 
ENDROOT
BRANCH   2   6
ATOM      6  O   UNL     1      -5.260  -4.553 123.905  0.00  0.00    +0.000 OA
ATOM      7  H   UNL     1      -4.326  -4.820 123.935  0.00  0.00    +0.000 HD
ENDBRANCH   2   6
BRANCH   5   8
ATOM      8  C   UNL     1      -6.120  -0.269 125.074  0.00  0.00    +0.000 C 
ATOM      9  C   UNL     1      -6.274   0.100 126.356  0.00  0.00    +0.000 C 
BRANCH   9  10
ATOM     10  C   UNL     1      -5.440   1.160 127.019  0.00  0.00    +0.000 C 
BRANCH  10  11
ATOM     11  O   UNL     1      -4.220   1.273 126.289  0.00  0.00    +0.000 OA
ATOM     12  H   UNL     1      -4.430   1.107 125.356  0.00  0.00    +0.000 HD
ENDBRANCH  10  11
BRANCH  10  13
ATOM     13  C   UNL     1      -6.182   2.505 127.071  0.00  0.00    +0.000 C 
BRANCH  13  14
ATOM     14  O   UNL     1      -5.702   3.352 126.022  0.00  0.00    +0.000 OA
BRANCH  14  15
ATOM     15  C   UNL     1      -6.453   3.383 124.882  0.00  0.00    +0.000 A 
ATOM     16  C   UNL     1      -7.802   3.055 125.023  0.00  0.00    +0.000 A 
ATOM     17  C   UNL     1      -8.611   2.892 123.897  0.00  0.00    +0.000 A 
ATOM     18  C   UNL     1      -8.087   3.118 122.625  0.00  0.00    +0.000 A 
ATOM     19  C   UNL     1      -6.738   3.461 122.472  0.00  0.00    +0.000 A 
ATOM     20  C   UNL     1      -5.929   3.594 123.610  0.00  0.00    +0.000 A 
BRANCH  19  21
ATOM     21  C   UNL     1      -6.137   3.617 121.101  0.00  0.00    +0.000 C 
ATOM     22  F   UNL     1      -5.365   2.552 120.755  0.00  0.00    +0.000 F 
ATOM     23  F   UNL     1      -7.077   3.740 120.126  0.00  0.00    +0.000 F 
ATOM     24  F   UNL     1      -5.333   4.712 120.986  0.00  0.00    +0.000 F 
ENDBRANCH  19  21
ENDBRANCH  14  15
ENDBRANCH  13  14
ENDBRANCH  10  13
ENDBRANCH   9  10
ENDBRANCH   5   8
BRANCH   4  25
ATOM     25  O   UNL     1      -7.741  -2.005 122.188  0.00  0.00    +0.000 OA
ATOM     26  H   UNL     1      -7.957  -1.438 121.435  0.00  0.00    +0.000 HD
ENDBRANCH   4  25
BRANCH   1  27
ATOM     27  C   UNL     1      -7.763  -3.737 124.866  0.00  0.00    +0.000 C 
BRANCH  27  29
ATOM     28  C   UNL     1      -9.549  -3.306 126.535  0.00  0.00    +0.000 C 
ATOM     29  C   UNL     1      -9.069  -3.134 125.296  0.00  0.00    +0.000 C 
BRANCH  28  30
ATOM     30  C   UNL     1      -8.814  -4.117 127.565  0.00  0.00    +0.000 C 
BRANCH  30  31
ATOM     31  C   UNL     1      -8.573  -3.324 128.831  0.00  0.00    +0.000 C 
BRANCH  31  32
ATOM     32  C   UNL     1      -7.492  -2.256 128.641  0.00  0.00    +0.000 C 
BRANCH  32  33
ATOM     33  C   UNL     1      -6.247  -2.690 129.372  0.00  0.00    +0.000 C 
ATOM     34  O   UNL     1      -5.167  -2.111 129.265  0.00  0.00    +0.000 OA
BRANCH  33  35
ATOM     35  O   UNL     1      -6.462  -3.783 130.158  0.00  0.00    +0.000 OA
BRANCH  35  37
ATOM     36  C   UNL     1      -6.861  -3.266 132.496  0.00  0.00    +0.000 C 
ATOM     37  C   UNL     1      -5.835  -3.732 131.462  0.00  0.00    +0.000 C 
ATOM     38  C   UNL     1      -5.323  -5.111 131.880  0.00  0.00    +0.000 C 
ENDBRANCH  35  37
ENDBRANCH  33  35
ENDBRANCH  32  33
ENDBRANCH  31  32
ENDBRANCH  30  31
ENDBRANCH  28  30
ENDBRANCH  27  29
ENDBRANCH   1  27
TORSDOF 17
ENDMDL
MODEL 2
REMARK VINA RESULT:      -7.4      4.051      6.889
REMARK  Name = Travoprost
REMARK  19 active torsions:
REMARK  status: ('A' for Active; 'I' for Inactive)
REMARK    1  A    between atoms: C_1  and  C_2
REMARK    2  A    between atoms: C_2  and  C_3
REMARK    3  A    between atoms: C_2  and  O_4
REMARK    4  A    between atoms: O_4  and  C_5
REMARK    5  A    between atoms: C_5  and  C_7
REMARK    6  A    between atoms: C_7  and  C_8
REMARK    7  A    between atoms: C_8  and  C_9
REMARK    8  A    between atoms: C_9  and  C_10
REMARK    9  A    between atoms: C_11  and  C_12
REMARK   10  A    between atoms: C_12  and  C_13
REMARK   11  A    between atoms: C_14  and  O_15
REMARK   12  A    between atoms: C_17  and  O_18
REMARK   13  A    between atoms: C_19  and  C_20
REMARK   14  A    between atoms: C_21  and  C_22
REMARK   15  A    between atoms: C_22  and  O_23
REMARK   16  A    between atoms: C_22  and  C_24
REMARK   17  A    between atoms: C_24  and  O_25
REMARK   18  A    between atoms: O_25  and  C_26
REMARK   19  A    between atoms: C_30  and  C_32
REMARK                            x       y       z     vdW  Elec       q    Type
REMARK                         _______ _______ _______ _____ _____    ______ ____
ROOT
ATOM      1  C   UNL     1      -6.973   0.273 128.610  0.00  0.00    +0.000 C 
ATOM      2  C   UNL     1      -5.623  -0.183 128.020  0.00  0.00    +0.000 C 
ATOM      3  C   UNL     1      -5.863  -1.547 127.358  0.00  0.00    +0.000 C 
ATOM      4  C   UNL     1      -7.356  -1.848 127.509  0.00  0.00    +0.000 C 
ATOM      5  C   UNL     1      -8.020  -0.486 127.761  0.00  0.00    +0.000 C 
ENDROOT
BRANCH   2   6
ATOM      6  O   UNL     1      -4.564  -0.262 128.961  0.00  0.00    +0.000 OA
ATOM      7  H   UNL     1      -3.855   0.352 128.705  0.00  0.00    +0.000 HD
ENDBRANCH   2   6
BRANCH   5   8
ATOM      8  C   UNL     1      -8.300   0.240 126.462  0.00  0.00    +0.000 C 
ATOM      9  C   UNL     1      -9.541   0.474 126.005  0.00  0.00    +0.000 C 
BRANCH   9  10
ATOM     10  C   UNL     1      -9.829   1.203 124.722  0.00  0.00    +0.000 C 
BRANCH  10  11
ATOM     11  O   UNL     1      -9.536   2.582 124.931  0.00  0.00    +0.000 OA
ATOM     12  H   UNL     1      -9.731   2.778 125.862  0.00  0.00    +0.000 HD
ENDBRANCH  10  11
BRANCH  10  13
ATOM     13  C   UNL     1      -9.006   0.630 123.557  0.00  0.00    +0.000 C 
BRANCH  13  14
ATOM     14  O   UNL     1      -9.539  -0.642 123.181  0.00  0.00    +0.000 OA
BRANCH  14  15
ATOM     15  C   UNL     1      -8.790  -1.733 123.516  0.00  0.00    +0.000 A 
ATOM     16  C   UNL     1      -9.474  -2.790 124.119  0.00  0.00    +0.000 A 
ATOM     17  C   UNL     1      -8.773  -3.874 124.652  0.00  0.00    +0.000 A 
ATOM     18  C   UNL     1      -7.386  -3.933 124.528  0.00  0.00    +0.000 A 
ATOM     19  C   UNL     1      -6.690  -2.886 123.913  0.00  0.00    +0.000 A 
ATOM     20  C   UNL     1      -7.403  -1.789 123.408  0.00  0.00    +0.000 A 
BRANCH  19  21
ATOM     21  C   UNL     1      -5.186  -2.894 123.856  0.00  0.00    +0.000 C 
ATOM     22  F   UNL     1      -4.646  -1.761 124.383  0.00  0.00    +0.000 F 
ATOM     23  F   UNL     1      -4.639  -3.933 124.543  0.00  0.00    +0.000 F 
ATOM     24  F   UNL     1      -4.695  -2.984 122.588  0.00  0.00    +0.000 F 
ENDBRANCH  19  21
ENDBRANCH  14  15
ENDBRANCH  13  14
ENDBRANCH  10  13
ENDBRANCH   9  10
ENDBRANCH   5   8
BRANCH   4  25
ATOM     25  O   UNL     1      -7.599  -2.760 128.577  0.00  0.00    +0.000 OA
ATOM     26  H   UNL     1      -7.559  -3.672 128.258  0.00  0.00    +0.000 HD
ENDBRANCH   4  25
BRANCH   1  27
ATOM     27  C   UNL     1      -7.109  -0.005 130.107  0.00  0.00    +0.000 C 
BRANCH  27  29
ATOM     28  C   UNL     1      -9.058   0.447 131.575  0.00  0.00    +0.000 C 
ATOM     29  C   UNL     1      -8.538  -0.198 130.523  0.00  0.00    +0.000 C 
BRANCH  28  30
ATOM     30  C   UNL     1      -8.242   1.397 132.405  0.00  0.00    +0.000 C 
BRANCH  30  31
ATOM     31  C   UNL     1      -8.471   2.836 131.994  0.00  0.00    +0.000 C 
BRANCH  31  32
ATOM     32  C   UNL     1      -9.913   3.078 131.536  0.00  0.00    +0.000 C 
BRANCH  32  33
ATOM     33  C   UNL     1      -9.887   3.694 130.161  0.00  0.00    +0.000 C 
ATOM     34  O   UNL     1      -9.156   3.291 129.256  0.00  0.00    +0.000 OA
BRANCH  33  35
ATOM     35  O   UNL     1     -10.764   4.731 130.041  0.00  0.00    +0.000 OA
BRANCH  35  37
ATOM     36  C   UNL     1      -9.824   6.967 130.130  0.00  0.00    +0.000 C 
ATOM     37  C   UNL     1     -10.509   5.852 130.921  0.00  0.00    +0.000 C 
ATOM     38  C   UNL     1     -11.814   6.403 131.499  0.00  0.00    +0.000 C 
ENDBRANCH  35  37
ENDBRANCH  33  35
ENDBRANCH  32  33
ENDBRANCH  31  32
ENDBRANCH  30  31
ENDBRANCH  28  30
ENDBRANCH  27  29
ENDBRANCH   1  27
TORSDOF 17
ENDMDL
MODEL 3
REMARK VINA RESULT:      -7.3      2.867      5.342
REMARK  Name = Travoprost
REMARK  19 active torsions:
REMARK  status: ('A' for Active; 'I' for Inactive)
REMARK    1  A    between atoms: C_1  and  C_2
REMARK    2  A    between atoms: C_2  and  C_3
REMARK    3  A    between atoms: C_2  and  O_4
REMARK    4  A    between atoms: O_4  and  C_5
REMARK    5  A    between atoms: C_5  and  C_7
REMARK    6  A    between atoms: C_7  and  C_8
REMARK    7  A    between atoms: C_8  and  C_9
REMARK    8  A    between atoms: C_9  and  C_10
REMARK    9  A    between atoms: C_11  and  C_12
REMARK   10  A    between atoms: C_12  and  C_13
REMARK   11  A    between atoms: C_14  and  O_15
REMARK   12  A    between atoms: C_17  and  O_18
REMARK   13  A    between atoms: C_19  and  C_20
REMARK   14  A    between atoms: C_21  and  C_22
REMARK   15  A    between atoms: C_22  and  O_23
REMARK   16  A    between atoms: C_22  and  C_24
REMARK   17  A    between atoms: C_24  and  O_25
REMARK   18  A    between atoms: O_25  and  C_26
REMARK   19  A    between atoms: C_30  and  C_32
REMARK                            x       y       z     vdW  Elec       q    Type
REMARK                         _______ _______ _______ _____ _____    ______ ____
ROOT
ATOM      1  C   UNL     1      -6.565   0.795 127.487  0.00  0.00    +0.000 C 
ATOM      2  C   UNL     1      -6.723   2.249 127.973  0.00  0.00    +0.000 C 
ATOM      3  C   UNL     1      -5.803   3.114 127.101  0.00  0.00    +0.000 C 
ATOM      4  C   UNL     1      -5.165   2.176 126.076  0.00  0.00    +0.000 C 
ATOM      5  C   UNL     1      -6.086   0.947 126.023  0.00  0.00    +0.000 C 
ENDROOT
BRANCH   2   6
ATOM      6  O   UNL     1      -6.441   2.445 129.349  0.00  0.00    +0.000 OA
ATOM      7  H   UNL     1      -7.097   3.050 129.734  0.00  0.00    +0.000 HD
ENDBRANCH   2   6
BRANCH   5   8
ATOM      8  C   UNL     1      -7.254   1.172 125.086  0.00  0.00    +0.000 C 
ATOM      9  C   UNL     1      -8.475   0.654 125.299  0.00  0.00    +0.000 C 
BRANCH   9  10
ATOM     10  C   UNL     1      -9.643   0.881 124.380  0.00  0.00    +0.000 C 
BRANCH  10  11
ATOM     11  O   UNL     1      -9.979   2.265 124.437  0.00  0.00    +0.000 OA
ATOM     12  H   UNL     1      -9.348   2.736 123.868  0.00  0.00    +0.000 HD
ENDBRANCH  10  11
BRANCH  10  13
ATOM     13  C   UNL     1      -9.315   0.448 122.941  0.00  0.00    +0.000 C 
BRANCH  13  14
ATOM     14  O   UNL     1      -9.771  -0.892 122.734  0.00  0.00    +0.000 OA
BRANCH  14  15
ATOM     15  C   UNL     1      -8.974  -1.883 123.231  0.00  0.00    +0.000 A 
ATOM     16  C   UNL     1      -9.618  -2.886 123.956  0.00  0.00    +0.000 A 
ATOM     17  C   UNL     1      -8.876  -3.848 124.646  0.00  0.00    +0.000 A 
ATOM     18  C   UNL     1      -7.485  -3.844 124.562  0.00  0.00    +0.000 A 
ATOM     19  C   UNL     1      -6.828  -2.850 123.826  0.00  0.00    +0.000 A 
ATOM     20  C   UNL     1      -7.584  -1.874 123.161  0.00  0.00    +0.000 A 
BRANCH  19  21
ATOM     21  C   UNL     1      -5.325  -2.780 123.803  0.00  0.00    +0.000 C 
ATOM     22  F   UNL     1      -4.751  -3.861 124.399  0.00  0.00    +0.000 F 
ATOM     23  F   UNL     1      -4.821  -2.728 122.541  0.00  0.00    +0.000 F 
ATOM     24  F   UNL     1      -4.826  -1.690 124.450  0.00  0.00    +0.000 F 
ENDBRANCH  19  21
ENDBRANCH  14  15
ENDBRANCH  13  14
ENDBRANCH  10  13
ENDBRANCH   9  10
ENDBRANCH   5   8
BRANCH   4  25
ATOM     25  O   UNL     1      -3.835   1.823 126.448  0.00  0.00    +0.000 OA
ATOM     26  H   UNL     1      -3.340   2.610 126.714  0.00  0.00    +0.000 HD
ENDBRANCH   4  25
BRANCH   1  27
ATOM     27  C   UNL     1      -5.606  -0.034 128.342  0.00  0.00    +0.000 C 
BRANCH  27  29
ATOM     28  C   UNL     1      -6.221  -2.308 127.562  0.00  0.00    +0.000 C 
ATOM     29  C   UNL     1      -5.287  -1.360 127.717  0.00  0.00    +0.000 C 
BRANCH  28  30
ATOM     30  C   UNL     1      -7.640  -2.103 128.010  0.00  0.00    +0.000 C 
BRANCH  30  31
ATOM     31  C   UNL     1      -8.129  -3.255 128.862  0.00  0.00    +0.000 C 
BRANCH  31  32
ATOM     32  C   UNL     1      -7.029  -3.796 129.779  0.00  0.00    +0.000 C 
BRANCH  32  33
ATOM     33  C   UNL     1      -6.772  -2.791 130.873  0.00  0.00    +0.000 C 
ATOM     34  O   UNL     1      -7.672  -2.223 131.491  0.00  0.00    +0.000 OA
BRANCH  33  35
ATOM     35  O   UNL     1      -5.441  -2.595 131.095  0.00  0.00    +0.000 OA
BRANCH  35  37
ATOM     36  C   UNL     1      -3.450  -3.425 129.982  0.00  0.00    +0.000 C 
ATOM     37  C   UNL     1      -4.611  -3.768 130.916  0.00  0.00    +0.000 C 
ATOM     38  C   UNL     1      -4.032  -4.239 132.251  0.00  0.00    +0.000 C 
ENDBRANCH  35  37
ENDBRANCH  33  35
ENDBRANCH  32  33
ENDBRANCH  31  32
ENDBRANCH  30  31
ENDBRANCH  28  30
ENDBRANCH  27  29
ENDBRANCH   1  27
TORSDOF 17
ENDMDL
MODEL 4
REMARK VINA RESULT:      -7.3      2.459      4.280
REMARK  Name = Travoprost
REMARK  19 active torsions:
REMARK  status: ('A' for Active; 'I' for Inactive)
REMARK    1  A    between atoms: C_1  and  C_2
REMARK    2  A    between atoms: C_2  and  C_3
REMARK    3  A    between atoms: C_2  and  O_4
REMARK    4  A    between atoms: O_4  and  C_5
REMARK    5  A    between atoms: C_5  and  C_7
REMARK    6  A    between atoms: C_7  and  C_8
REMARK    7  A    between atoms: C_8  and  C_9
REMARK    8  A    between atoms: C_9  and  C_10
REMARK    9  A    between atoms: C_11  and  C_12
REMARK   10  A    between atoms: C_12  and  C_13
REMARK   11  A    between atoms: C_14  and  O_15
REMARK   12  A    between atoms: C_17  and  O_18
REMARK   13  A    between atoms: C_19  and  C_20
REMARK   14  A    between atoms: C_21  and  C_22
REMARK   15  A    between atoms: C_22  and  O_23
REMARK   16  A    between atoms: C_22  and  C_24
REMARK   17  A    between atoms: C_24  and  O_25
REMARK   18  A    between atoms: O_25  and  C_26
REMARK   19  A    between atoms: C_30  and  C_32
REMARK                            x       y       z     vdW  Elec       q    Type
REMARK                         _______ _______ _______ _____ _____    ______ ____
ROOT
ATOM      1  C   UNL     1      -7.626  -2.037 125.487  0.00  0.00    +0.000 C 
ATOM      2  C   UNL     1      -6.334  -1.224 125.708  0.00  0.00    +0.000 C 
ATOM      3  C   UNL     1      -5.370  -1.602 124.576  0.00  0.00    +0.000 C 
ATOM      4  C   UNL     1      -6.121  -2.578 123.670  0.00  0.00    +0.000 C 
ATOM      5  C   UNL     1      -7.610  -2.346 123.971  0.00  0.00    +0.000 C 
ENDROOT
BRANCH   2   6
ATOM      6  O   UNL     1      -5.724  -1.420 126.974  0.00  0.00    +0.000 OA
ATOM      7  H   UNL     1      -5.184  -0.643 127.199  0.00  0.00    +0.000 HD
ENDBRANCH   2   6
BRANCH   5   8
ATOM      8  C   UNL     1      -8.160  -1.185 123.171  0.00  0.00    +0.000 C 
ATOM      9  C   UNL     1      -9.360  -0.632 123.410  0.00  0.00    +0.000 C 
BRANCH   9  10
ATOM     10  C   UNL     1      -9.910   0.527 122.628  0.00  0.00    +0.000 C 
BRANCH  10  11
ATOM     11  O   UNL     1     -11.333   0.447 122.674  0.00  0.00    +0.000 OA
ATOM     12  H   UNL     1     -11.566  -0.019 123.493  0.00  0.00    +0.000 HD
ENDBRANCH  10  11
BRANCH  10  13
ATOM     13  C   UNL     1      -9.411   1.869 123.190  0.00  0.00    +0.000 C 
BRANCH  13  14
ATOM     14  O   UNL     1      -8.855   2.649 122.127  0.00  0.00    +0.000 OA
BRANCH  14  15
ATOM     15  C   UNL     1      -7.661   3.258 122.389  0.00  0.00    +0.000 A 
ATOM     16  C   UNL     1      -6.934   3.690 121.279  0.00  0.00    +0.000 A 
ATOM     17  C   UNL     1      -5.630   4.168 121.429  0.00  0.00    +0.000 A 
ATOM     18  C   UNL     1      -5.071   4.272 122.702  0.00  0.00    +0.000 A 
ATOM     19  C   UNL     1      -5.796   3.854 123.824  0.00  0.00    +0.000 A 
ATOM     20  C   UNL     1      -7.094   3.349 123.656  0.00  0.00    +0.000 A 
BRANCH  19  21
ATOM     21  C   UNL     1      -5.170   3.874 125.193  0.00  0.00    +0.000 C 
ATOM     22  F   UNL     1      -5.690   4.855 125.981  0.00  0.00    +0.000 F 
ATOM     23  F   UNL     1      -5.347   2.707 125.869  0.00  0.00    +0.000 F 
ATOM     24  F   UNL     1      -3.825   4.092 125.168  0.00  0.00    +0.000 F 
ENDBRANCH  19  21
ENDBRANCH  14  15
ENDBRANCH  13  14
ENDBRANCH  10  13
ENDBRANCH   9  10
ENDBRANCH   5   8
BRANCH   4  25
ATOM     25  O   UNL     1      -5.735  -3.927 123.923  0.00  0.00    +0.000 OA
ATOM     26  H   UNL     1      -6.417  -4.382 124.438  0.00  0.00    +0.000 HD
ENDBRANCH   4  25
BRANCH   1  27
ATOM     27  C   UNL     1      -7.708  -3.298 126.349  0.00  0.00    +0.000 C 
BRANCH  27  29
ATOM     28  C   UNL     1      -8.670  -3.388 128.635  0.00  0.00    +0.000 C 
ATOM     29  C   UNL     1      -8.856  -3.253 127.315  0.00  0.00    +0.000 C 
BRANCH  28  30
ATOM     30  C   UNL     1      -7.304  -3.597 129.226  0.00  0.00    +0.000 C 
BRANCH  30  31
ATOM     31  C   UNL     1      -6.924  -2.474 130.166  0.00  0.00    +0.000 C 
BRANCH  31  32
ATOM     32  C   UNL     1      -7.960  -1.346 130.158  0.00  0.00    +0.000 C 
BRANCH  32  33
ATOM     33  C   UNL     1      -7.314  -0.098 129.613  0.00  0.00    +0.000 C 
ATOM     34  O   UNL     1      -6.097   0.082 129.606  0.00  0.00    +0.000 OA
BRANCH  33  35
ATOM     35  O   UNL     1      -8.229   0.791 129.131  0.00  0.00    +0.000 OA
BRANCH  35  37
ATOM     36  C   UNL     1      -8.845   1.187 126.817  0.00  0.00    +0.000 C 
ATOM     37  C   UNL     1      -7.831   1.483 127.922  0.00  0.00    +0.000 C 
ATOM     38  C   UNL     1      -7.789   2.996 128.145  0.00  0.00    +0.000 C 
ENDBRANCH  35  37
ENDBRANCH  33  35
ENDBRANCH  32  33
ENDBRANCH  31  32
ENDBRANCH  30  31
ENDBRANCH  28  30
ENDBRANCH  27  29
ENDBRANCH   1  27
TORSDOF 17
ENDMDL
MODEL 5
REMARK VINA RESULT:      -7.2      5.164      7.374
REMARK  Name = Travoprost
REMARK  19 active torsions:
REMARK  status: ('A' for Active; 'I' for Inactive)
REMARK    1  A    between atoms: C_1  and  C_2
REMARK    2  A    between atoms: C_2  and  C_3
REMARK    3  A    between atoms: C_2  and  O_4
REMARK    4  A    between atoms: O_4  and  C_5
REMARK    5  A    between atoms: C_5  and  C_7
REMARK    6  A    between atoms: C_7  and  C_8
REMARK    7  A    between atoms: C_8  and  C_9
REMARK    8  A    between atoms: C_9  and  C_10
REMARK    9  A    between atoms: C_11  and  C_12
REMARK   10  A    between atoms: C_12  and  C_13
REMARK   11  A    between atoms: C_14  and  O_15
REMARK   12  A    between atoms: C_17  and  O_18
REMARK   13  A    between atoms: C_19  and  C_20
REMARK   14  A    between atoms: C_21  and  C_22
REMARK   15  A    between atoms: C_22  and  O_23
REMARK   16  A    between atoms: C_22  and  C_24
REMARK   17  A    between atoms: C_24  and  O_25
REMARK   18  A    between atoms: O_25  and  C_26
REMARK   19  A    between atoms: C_30  and  C_32
REMARK                            x       y       z     vdW  Elec       q    Type
REMARK                         _______ _______ _______ _____ _____    ______ ____
ROOT
ATOM      1  C   UNL     1      -7.577  -1.226 129.466  0.00  0.00    +0.000 C 
ATOM      2  C   UNL     1      -6.992  -1.034 130.880  0.00  0.00    +0.000 C 
ATOM      3  C   UNL     1      -5.810  -0.065 130.747  0.00  0.00    +0.000 C 
ATOM      4  C   UNL     1      -5.750   0.350 129.276  0.00  0.00    +0.000 C 
ATOM      5  C   UNL     1      -7.150   0.058 128.715  0.00  0.00    +0.000 C 
ENDROOT
BRANCH   2   6
ATOM      6  O   UNL     1      -6.588  -2.234 131.520  0.00  0.00    +0.000 OA
ATOM      7  H   UNL     1      -7.307  -2.558 132.089  0.00  0.00    +0.000 HD
ENDBRANCH   2   6
BRANCH   5   8
ATOM      8  C   UNL     1      -8.106   1.198 128.996  0.00  0.00    +0.000 C 
ATOM      9  C   UNL     1      -7.736   2.489 128.970  0.00  0.00    +0.000 C 
BRANCH   9  10
ATOM     10  C   UNL     1      -8.681   3.627 129.237  0.00  0.00    +0.000 C 
BRANCH  10  11
ATOM     11  O   UNL     1      -9.948   3.070 129.579  0.00  0.00    +0.000 OA
ATOM     12  H   UNL     1     -10.494   3.794 129.923  0.00  0.00    +0.000 HD
ENDBRANCH  10  11
BRANCH  10  13
ATOM     13  C   UNL     1      -8.155   4.539 130.358  0.00  0.00    +0.000 C 
BRANCH  13  14
ATOM     14  O   UNL     1      -8.316   5.907 129.970  0.00  0.00    +0.000 OA
BRANCH  14  15
ATOM     15  C   UNL     1      -9.516   6.482 130.274  0.00  0.00    +0.000 A 
ATOM     16  C   UNL     1     -10.085   6.115 131.494  0.00  0.00    +0.000 A 
ATOM     17  C   UNL     1     -11.383   6.513 131.818  0.00  0.00    +0.000 A 
ATOM     18  C   UNL     1     -12.096   7.334 130.946  0.00  0.00    +0.000 A 
ATOM     19  C   UNL     1     -11.531   7.720 129.725  0.00  0.00    +0.000 A 
ATOM     20  C   UNL     1     -10.237   7.290 129.399  0.00  0.00    +0.000 A 
BRANCH  19  21
ATOM     21  C   UNL     1     -12.325   8.529 128.734  0.00  0.00    +0.000 C 
ATOM     22  F   UNL     1     -12.616   9.773 129.203  0.00  0.00    +0.000 F 
ATOM     23  F   UNL     1     -11.669   8.709 127.556  0.00  0.00    +0.000 F 
ATOM     24  F   UNL     1     -13.522   7.964 128.413  0.00  0.00    +0.000 F 
ENDBRANCH  19  21
ENDBRANCH  14  15
ENDBRANCH  13  14
ENDBRANCH  10  13
ENDBRANCH   9  10
ENDBRANCH   5   8
BRANCH   4  25
ATOM     25  O   UNL     1      -4.739  -0.367 128.572  0.00  0.00    +0.000 OA
ATOM     26  H   UNL     1      -4.317   0.204 127.915  0.00  0.00    +0.000 HD
ENDBRANCH   4  25
BRANCH   1  27
ATOM     27  C   UNL     1      -7.097  -2.504 128.777  0.00  0.00    +0.000 C 
BRANCH  27  29
ATOM     28  C   UNL     1      -8.942  -3.778 127.711  0.00  0.00    +0.000 C 
ATOM     29  C   UNL     1      -8.148  -3.576 128.771  0.00  0.00    +0.000 C 
BRANCH  28  30
ATOM     30  C   UNL     1      -8.833  -2.940 126.469  0.00  0.00    +0.000 C 
BRANCH  30  31
ATOM     31  C   UNL     1      -8.431  -3.770 125.269  0.00  0.00    +0.000 C 
BRANCH  31  32
ATOM     32  C   UNL     1      -7.740  -2.926 124.194  0.00  0.00    +0.000 C 
BRANCH  32  33
ATOM     33  C   UNL     1      -8.710  -1.886 123.695  0.00  0.00    +0.000 C 
ATOM     34  O   UNL     1      -9.847  -2.157 123.309  0.00  0.00    +0.000 OA
BRANCH  33  35
ATOM     35  O   UNL     1      -8.185  -0.629 123.727  0.00  0.00    +0.000 OA
BRANCH  35  37
ATOM     36  C   UNL     1      -6.961   1.004 125.042  0.00  0.00    +0.000 C 
ATOM     37  C   UNL     1      -8.075  -0.044 125.047  0.00  0.00    +0.000 C 
ATOM     38  C   UNL     1      -9.379   0.641 125.454  0.00  0.00    +0.000 C 
ENDBRANCH  35  37
ENDBRANCH  33  35
ENDBRANCH  32  33
ENDBRANCH  31  32
ENDBRANCH  30  31
ENDBRANCH  28  30
ENDBRANCH  27  29
ENDBRANCH   1  27
TORSDOF 17
ENDMDL
MODEL 6
REMARK VINA RESULT:      -7.1      6.141      9.978
REMARK  Name = Travoprost
REMARK  19 active torsions:
REMARK  status: ('A' for Active; 'I' for Inactive)
REMARK    1  A    between atoms: C_1  and  C_2
REMARK    2  A    between atoms: C_2  and  C_3
REMARK    3  A    between atoms: C_2  and  O_4
REMARK    4  A    between atoms: O_4  and  C_5
REMARK    5  A    between atoms: C_5  and  C_7
REMARK    6  A    between atoms: C_7  and  C_8
REMARK    7  A    between atoms: C_8  and  C_9
REMARK    8  A    between atoms: C_9  and  C_10
REMARK    9  A    between atoms: C_11  and  C_12
REMARK   10  A    between atoms: C_12  and  C_13
REMARK   11  A    between atoms: C_14  and  O_15
REMARK   12  A    between atoms: C_17  and  O_18
REMARK   13  A    between atoms: C_19  and  C_20
REMARK   14  A    between atoms: C_21  and  C_22
REMARK   15  A    between atoms: C_22  and  O_23
REMARK   16  A    between atoms: C_22  and  C_24
REMARK   17  A    between atoms: C_24  and  O_25
REMARK   18  A    between atoms: O_25  and  C_26
REMARK   19  A    between atoms: C_30  and  C_32
REMARK                            x       y       z     vdW  Elec       q    Type
REMARK                         _______ _______ _______ _____ _____    ______ ____
ROOT
ATOM      1  C   UNL     1      -7.600   4.226 131.892  0.00  0.00    +0.000 C 
ATOM      2  C   UNL     1      -6.744   3.412 132.883  0.00  0.00    +0.000 C 
ATOM      3  C   UNL     1      -7.715   2.581 133.734  0.00  0.00    +0.000 C 
ATOM      4  C   UNL     1      -9.118   2.864 133.196  0.00  0.00    +0.000 C 
ATOM      5  C   UNL     1      -8.905   3.404 131.773  0.00  0.00    +0.000 C 
ENDROOT
BRANCH   2   6
ATOM      6  O   UNL     1      -5.895   4.193 133.709  0.00  0.00    +0.000 OA
ATOM      7  H   UNL     1      -5.236   3.619 134.135  0.00  0.00    +0.000 HD
ENDBRANCH   2   6
BRANCH   5   8
ATOM      8  C   UNL     1      -8.752   2.277 130.773  0.00  0.00    +0.000 C 
ATOM      9  C   UNL     1      -8.565   2.484 129.459  0.00  0.00    +0.000 C 
BRANCH   9  10
ATOM     10  C   UNL     1      -8.401   1.372 128.460  0.00  0.00    +0.000 C 
BRANCH  10  11
ATOM     11  O   UNL     1      -8.700   1.900 127.170  0.00  0.00    +0.000 OA
ATOM     12  H   UNL     1      -9.659   2.042 127.135  0.00  0.00    +0.000 HD
ENDBRANCH  10  11
BRANCH  10  13
ATOM     13  C   UNL     1      -6.982   0.783 128.505  0.00  0.00    +0.000 C 
BRANCH  13  14
ATOM     14  O   UNL     1      -7.060  -0.644 128.466  0.00  0.00    +0.000 OA
BRANCH  14  15
ATOM     15  C   UNL     1      -6.830  -1.228 127.253  0.00  0.00    +0.000 A 
ATOM     16  C   UNL     1      -5.705  -0.782 126.558  0.00  0.00    +0.000 A 
ATOM     17  C   UNL     1      -5.478  -1.190 125.242  0.00  0.00    +0.000 A 
ATOM     18  C   UNL     1      -6.346  -2.095 124.636  0.00  0.00    +0.000 A 
ATOM     19  C   UNL     1      -7.472  -2.561 125.328  0.00  0.00    +0.000 A 
ATOM     20  C   UNL     1      -7.703  -2.121 126.639  0.00  0.00    +0.000 A 
BRANCH  19  21
ATOM     21  C   UNL     1      -8.467  -3.466 124.654  0.00  0.00    +0.000 C 
ATOM     22  F   UNL     1      -8.135  -4.780 124.782  0.00  0.00    +0.000 F 
ATOM     23  F   UNL     1      -9.722  -3.338 125.161  0.00  0.00    +0.000 F 
ATOM     24  F   UNL     1      -8.580  -3.240 123.314  0.00  0.00    +0.000 F 
ENDBRANCH  19  21
ENDBRANCH  14  15
ENDBRANCH  13  14
ENDBRANCH  10  13
ENDBRANCH   9  10
ENDBRANCH   5   8
BRANCH   4  25
ATOM     25  O   UNL     1      -9.813   3.800 134.016  0.00  0.00    +0.000 OA
ATOM     26  H   UNL     1     -10.102   4.560 133.492  0.00  0.00    +0.000 HD
ENDBRANCH   4  25
BRANCH   1  27
ATOM     27  C   UNL     1      -7.846   5.668 132.339  0.00  0.00    +0.000 C 
BRANCH  27  29
ATOM     28  C   UNL     1      -9.432   6.922 130.900  0.00  0.00    +0.000 C 
ATOM     29  C   UNL     1      -8.170   6.573 131.187  0.00  0.00    +0.000 C 
BRANCH  28  30
ATOM     30  C   UNL     1     -10.596   6.423 131.709  0.00  0.00    +0.000 C 
BRANCH  30  31
ATOM     31  C   UNL     1     -11.881   6.441 130.909  0.00  0.00    +0.000 C 
BRANCH  31  32
ATOM     32  C   UNL     1     -12.693   7.715 131.159  0.00  0.00    +0.000 C 
BRANCH  32  33
ATOM     33  C   UNL     1     -12.605   8.594 129.938  0.00  0.00    +0.000 C 
ATOM     34  O   UNL     1     -13.089   9.725 129.886  0.00  0.00    +0.000 OA
BRANCH  33  35
ATOM     35  O   UNL     1     -11.929   7.996 128.916  0.00  0.00    +0.000 OA
BRANCH  35  37
ATOM     36  C   UNL     1     -11.730   7.362 126.582  0.00  0.00    +0.000 C 
ATOM     37  C   UNL     1     -12.653   7.922 127.664  0.00  0.00    +0.000 C 
ATOM     38  C   UNL     1     -13.867   7.001 127.786  0.00  0.00    +0.000 C 
ENDBRANCH  35  37
ENDBRANCH  33  35
ENDBRANCH  32  33
ENDBRANCH  31  32
ENDBRANCH  30  31
ENDBRANCH  28  30
ENDBRANCH  27  29
ENDBRANCH   1  27
TORSDOF 17
ENDMDL
MODEL 7
REMARK VINA RESULT:      -7.0      2.995      7.268
REMARK  Name = Travoprost
REMARK  19 active torsions:
REMARK  status: ('A' for Active; 'I' for Inactive)
REMARK    1  A    between atoms: C_1  and  C_2
REMARK    2  A    between atoms: C_2  and  C_3
REMARK    3  A    between atoms: C_2  and  O_4
REMARK    4  A    between atoms: O_4  and  C_5
REMARK    5  A    between atoms: C_5  and  C_7
REMARK    6  A    between atoms: C_7  and  C_8
REMARK    7  A    between atoms: C_8  and  C_9
REMARK    8  A    between atoms: C_9  and  C_10
REMARK    9  A    between atoms: C_11  and  C_12
REMARK   10  A    between atoms: C_12  and  C_13
REMARK   11  A    between atoms: C_14  and  O_15
REMARK   12  A    between atoms: C_17  and  O_18
REMARK   13  A    between atoms: C_19  and  C_20
REMARK   14  A    between atoms: C_21  and  C_22
REMARK   15  A    between atoms: C_22  and  O_23
REMARK   16  A    between atoms: C_22  and  C_24
REMARK   17  A    between atoms: C_24  and  O_25
REMARK   18  A    between atoms: O_25  and  C_26
REMARK   19  A    between atoms: C_30  and  C_32
REMARK                            x       y       z     vdW  Elec       q    Type
REMARK                         _______ _______ _______ _____ _____    ______ ____
ROOT
ATOM      1  C   UNL     1      -6.140  -1.304 129.862  0.00  0.00    +0.000 C 
ATOM      2  C   UNL     1      -4.786  -1.960 129.526  0.00  0.00    +0.000 C 
ATOM      3  C   UNL     1      -4.610  -3.140 130.491  0.00  0.00    +0.000 C 
ATOM      4  C   UNL     1      -5.882  -3.205 131.339  0.00  0.00    +0.000 C 
ATOM      5  C   UNL     1      -6.945  -2.444 130.531  0.00  0.00    +0.000 C 
ENDROOT
BRANCH   2   6
ATOM      6  O   UNL     1      -3.672  -1.084 129.595  0.00  0.00    +0.000 OA
ATOM      7  H   UNL     1      -3.932  -0.262 130.044  0.00  0.00    +0.000 HD
ENDBRANCH   2   6
BRANCH   5   8
ATOM      8  C   UNL     1      -7.593  -3.337 129.494  0.00  0.00    +0.000 C 
ATOM      9  C   UNL     1      -8.243  -2.860 128.419  0.00  0.00    +0.000 C 
BRANCH   9  10
ATOM     10  C   UNL     1      -8.881  -3.738 127.380  0.00  0.00    +0.000 C 
BRANCH  10  11
ATOM     11  O   UNL     1      -9.921  -4.478 128.014  0.00  0.00    +0.000 OA
ATOM     12  H   UNL     1     -10.649  -4.552 127.376  0.00  0.00    +0.000 HD
ENDBRANCH  10  11
BRANCH  10  13
ATOM     13  C   UNL     1      -9.426  -2.909 126.205  0.00  0.00    +0.000 C 
BRANCH  13  14
ATOM     14  O   UNL     1      -9.099  -3.562 124.974  0.00  0.00    +0.000 OA
BRANCH  14  15
ATOM     15  C   UNL     1      -7.986  -3.106 124.328  0.00  0.00    +0.000 A 
ATOM     16  C   UNL     1      -8.172  -2.026 123.465  0.00  0.00    +0.000 A 
ATOM     17  C   UNL     1      -7.136  -1.599 122.632  0.00  0.00    +0.000 A 
ATOM     18  C   UNL     1      -5.887  -2.213 122.706  0.00  0.00    +0.000 A 
ATOM     19  C   UNL     1      -5.684  -3.289 123.578  0.00  0.00    +0.000 A 
ATOM     20  C   UNL     1      -6.741  -3.727 124.388  0.00  0.00    +0.000 A 
BRANCH  19  21
ATOM     21  C   UNL     1      -4.369  -4.021 123.601  0.00  0.00    +0.000 C 
ATOM     22  F   UNL     1      -3.342  -3.245 123.159  0.00  0.00    +0.000 F 
ATOM     23  F   UNL     1      -4.021  -4.439 124.848  0.00  0.00    +0.000 F 
ATOM     24  F   UNL     1      -4.358  -5.134 122.815  0.00  0.00    +0.000 F 
ENDBRANCH  19  21
ENDBRANCH  14  15
ENDBRANCH  13  14
ENDBRANCH  10  13
ENDBRANCH   9  10
ENDBRANCH   5   8
BRANCH   4  25
ATOM     25  O   UNL     1      -5.682  -2.625 132.626  0.00  0.00    +0.000 OA
ATOM     26  H   UNL     1      -5.041  -3.143 133.133  0.00  0.00    +0.000 HD
ENDBRANCH   4  25
BRANCH   1  27
ATOM     27  C   UNL     1      -6.014  -0.066 130.751  0.00  0.00    +0.000 C 
BRANCH  27  29
ATOM     28  C   UNL     1      -8.026   1.360 130.469  0.00  0.00    +0.000 C 
ATOM     29  C   UNL     1      -7.350   0.456 131.192  0.00  0.00    +0.000 C 
BRANCH  28  30
ATOM     30  C   UNL     1      -7.485   1.907 129.179  0.00  0.00    +0.000 C 
BRANCH  30  31
ATOM     31  C   UNL     1      -8.414   1.623 128.018  0.00  0.00    +0.000 C 
BRANCH  31  32
ATOM     32  C   UNL     1      -7.977   0.389 127.223  0.00  0.00    +0.000 C 
BRANCH  32  33
ATOM     33  C   UNL     1      -7.337   0.844 125.936  0.00  0.00    +0.000 C 
ATOM     34  O   UNL     1      -6.348   0.298 125.447  0.00  0.00    +0.000 OA
BRANCH  33  35
ATOM     35  O   UNL     1      -7.979   1.913 125.387  0.00  0.00    +0.000 OA
BRANCH  35  37
ATOM     36  C   UNL     1     -10.088   1.416 124.292  0.00  0.00    +0.000 C 
ATOM     37  C   UNL     1      -8.592   1.664 124.098  0.00  0.00    +0.000 C 
ATOM     38  C   UNL     1      -8.419   2.864 123.167  0.00  0.00    +0.000 C 
ENDBRANCH  35  37
ENDBRANCH  33  35
ENDBRANCH  32  33
ENDBRANCH  31  32
ENDBRANCH  30  31
ENDBRANCH  28  30
ENDBRANCH  27  29
ENDBRANCH   1  27
TORSDOF 17
ENDMDL
MODEL 8
REMARK VINA RESULT:      -7.0      1.749      4.757
REMARK  Name = Travoprost
REMARK  19 active torsions:
REMARK  status: ('A' for Active; 'I' for Inactive)
REMARK    1  A    between atoms: C_1  and  C_2
REMARK    2  A    between atoms: C_2  and  C_3
REMARK    3  A    between atoms: C_2  and  O_4
REMARK    4  A    between atoms: O_4  and  C_5
REMARK    5  A    between atoms: C_5  and  C_7
REMARK    6  A    between atoms: C_7  and  C_8
REMARK    7  A    between atoms: C_8  and  C_9
REMARK    8  A    between atoms: C_9  and  C_10
REMARK    9  A    between atoms: C_11  and  C_12
REMARK   10  A    between atoms: C_12  and  C_13
REMARK   11  A    between atoms: C_14  and  O_15
REMARK   12  A    between atoms: C_17  and  O_18
REMARK   13  A    between atoms: C_19  and  C_20
REMARK   14  A    between atoms: C_21  and  C_22
REMARK   15  A    between atoms: C_22  and  O_23
REMARK   16  A    between atoms: C_22  and  C_24
REMARK   17  A    between atoms: C_24  and  O_25
REMARK   18  A    between atoms: O_25  and  C_26
REMARK   19  A    between atoms: C_30  and  C_32
REMARK                            x       y       z     vdW  Elec       q    Type
REMARK                         _______ _______ _______ _____ _____    ______ ____
ROOT
ATOM      1  C   UNL     1      -7.363  -1.405 129.487  0.00  0.00    +0.000 C 
ATOM      2  C   UNL     1      -6.721  -1.018 130.834  0.00  0.00    +0.000 C 
ATOM      3  C   UNL     1      -5.334  -0.442 130.519  0.00  0.00    +0.000 C 
ATOM      4  C   UNL     1      -5.200  -0.436 128.996  0.00  0.00    +0.000 C 
ATOM      5  C   UNL     1      -6.640  -0.499 128.462  0.00  0.00    +0.000 C 
ENDROOT
BRANCH   2   6
ATOM      6  O   UNL     1      -6.623  -2.082 131.768  0.00  0.00    +0.000 OA
ATOM      7  H   UNL     1      -5.697  -2.371 131.836  0.00  0.00    +0.000 HD
ENDBRANCH   2   6
BRANCH   5   8
ATOM      8  C   UNL     1      -7.269   0.877 128.409  0.00  0.00    +0.000 C 
ATOM      9  C   UNL     1      -6.557   2.013 128.497  0.00  0.00    +0.000 C 
BRANCH   9  10
ATOM     10  C   UNL     1      -7.172   3.383 128.436  0.00  0.00    +0.000 C 
BRANCH  10  11
ATOM     11  O   UNL     1      -6.157   4.330 128.760  0.00  0.00    +0.000 OA
ATOM     12  H   UNL     1      -6.538   4.947 129.405  0.00  0.00    +0.000 HD
ENDBRANCH  10  11
BRANCH  10  13
ATOM     13  C   UNL     1      -7.774   3.666 127.049  0.00  0.00    +0.000 C 
BRANCH  13  14
ATOM     14  O   UNL     1      -6.750   4.164 126.183  0.00  0.00    +0.000 OA
BRANCH  14  15
ATOM     15  C   UNL     1      -6.802   3.741 124.885  0.00  0.00    +0.000 A 
ATOM     16  C   UNL     1      -7.631   2.649 124.625  0.00  0.00    +0.000 A 
ATOM     17  C   UNL     1      -7.622   2.037 123.370  0.00  0.00    +0.000 A 
ATOM     18  C   UNL     1      -6.826   2.555 122.350  0.00  0.00    +0.000 A 
ATOM     19  C   UNL     1      -5.999   3.659 122.595  0.00  0.00    +0.000 A 
ATOM     20  C   UNL     1      -5.997   4.247 123.868  0.00  0.00    +0.000 A 
BRANCH  19  21
ATOM     21  C   UNL     1      -5.067   4.171 121.530  0.00  0.00    +0.000 C 
ATOM     22  F   UNL     1      -4.572   3.167 120.756  0.00  0.00    +0.000 F 
ATOM     23  F   UNL     1      -5.668   5.047 120.681  0.00  0.00    +0.000 F 
ATOM     24  F   UNL     1      -3.981   4.823 122.033  0.00  0.00    +0.000 F 
ENDBRANCH  19  21
ENDBRANCH  14  15
ENDBRANCH  13  14
ENDBRANCH  10  13
ENDBRANCH   9  10
ENDBRANCH   5   8
BRANCH   4  25
ATOM     25  O   UNL     1      -4.419  -1.537 128.536  0.00  0.00    +0.000 OA
ATOM     26  H   UNL     1      -4.672  -1.776 127.634  0.00  0.00    +0.000 HD
ENDBRANCH   4  25
BRANCH   1  27
ATOM     27  C   UNL     1      -7.239  -2.892 129.156  0.00  0.00    +0.000 C 
BRANCH  27  29
ATOM     28  C   UNL     1      -9.191  -3.966 128.063  0.00  0.00    +0.000 C 
ATOM     29  C   UNL     1      -8.564  -3.596 129.188  0.00  0.00    +0.000 C 
BRANCH  28  30
ATOM     30  C   UNL     1      -8.609  -3.695 126.705  0.00  0.00    +0.000 C 
BRANCH  30  31
ATOM     31  C   UNL     1      -9.532  -2.840 125.863  0.00  0.00    +0.000 C 
BRANCH  31  32
ATOM     32  C   UNL     1      -8.867  -1.529 125.434  0.00  0.00    +0.000 C 
BRANCH  32  33
ATOM     33  C   UNL     1      -8.676  -1.548 123.939  0.00  0.00    +0.000 C 
ATOM     34  O   UNL     1      -9.594  -1.757 123.146  0.00  0.00    +0.000 OA
BRANCH  33  35
ATOM     35  O   UNL     1      -7.385  -1.304 123.577  0.00  0.00    +0.000 OA
BRANCH  35  37
ATOM     36  C   UNL     1      -5.493  -2.825 123.582  0.00  0.00    +0.000 C 
ATOM     37  C   UNL     1      -6.385  -1.915 124.428  0.00  0.00    +0.000 C 
ATOM     38  C   UNL     1      -5.503  -0.855 125.088  0.00  0.00    +0.000 C 
ENDBRANCH  35  37
ENDBRANCH  33  35
ENDBRANCH  32  33
ENDBRANCH  31  32
ENDBRANCH  30  31
ENDBRANCH  28  30
ENDBRANCH  27  29
ENDBRANCH   1  27
TORSDOF 17
ENDMDL
MODEL 9
REMARK VINA RESULT:      -6.9      4.496      8.128
REMARK  Name = Travoprost
REMARK  19 active torsions:
REMARK  status: ('A' for Active; 'I' for Inactive)
REMARK    1  A    between atoms: C_1  and  C_2
REMARK    2  A    between atoms: C_2  and  C_3
REMARK    3  A    between atoms: C_2  and  O_4
REMARK    4  A    between atoms: O_4  and  C_5
REMARK    5  A    between atoms: C_5  and  C_7
REMARK    6  A    between atoms: C_7  and  C_8
REMARK    7  A    between atoms: C_8  and  C_9
REMARK    8  A    between atoms: C_9  and  C_10
REMARK    9  A    between atoms: C_11  and  C_12
REMARK   10  A    between atoms: C_12  and  C_13
REMARK   11  A    between atoms: C_14  and  O_15
REMARK   12  A    between atoms: C_17  and  O_18
REMARK   13  A    between atoms: C_19  and  C_20
REMARK   14  A    between atoms: C_21  and  C_22
REMARK   15  A    between atoms: C_22  and  O_23
REMARK   16  A    between atoms: C_22  and  C_24
REMARK   17  A    between atoms: C_24  and  O_25
REMARK   18  A    between atoms: O_25  and  C_26
REMARK   19  A    between atoms: C_30  and  C_32
REMARK                            x       y       z     vdW  Elec       q    Type
REMARK                         _______ _______ _______ _____ _____    ______ ____
ROOT
ATOM      1  C   UNL     1      -7.543   3.131 127.153  0.00  0.00    +0.000 C 
ATOM      2  C   UNL     1      -7.877   3.367 125.666  0.00  0.00    +0.000 C 
ATOM      3  C   UNL     1      -6.611   3.934 125.009  0.00  0.00    +0.000 C 
ATOM      4  C   UNL     1      -5.533   3.966 126.094  0.00  0.00    +0.000 C 
ATOM      5  C   UNL     1      -6.004   2.968 127.162  0.00  0.00    +0.000 C 
ENDROOT
BRANCH   2   6
ATOM      6  O   UNL     1      -8.986   4.222 125.439  0.00  0.00    +0.000 OA
ATOM      7  H   UNL     1      -9.790   3.688 125.324  0.00  0.00    +0.000 HD
ENDBRANCH   2   6
BRANCH   5   8
ATOM      8  C   UNL     1      -5.603   1.551 126.809  0.00  0.00    +0.000 C 
ATOM      9  C   UNL     1      -5.816   0.504 127.622  0.00  0.00    +0.000 C 
BRANCH   9  10
ATOM     10  C   UNL     1      -5.430  -0.907 127.275  0.00  0.00    +0.000 C 
BRANCH  10  11
ATOM     11  O   UNL     1      -4.604  -1.403 128.326  0.00  0.00    +0.000 OA
ATOM     12  H   UNL     1      -4.474  -0.674 128.954  0.00  0.00    +0.000 HD
ENDBRANCH  10  11
BRANCH  10  13
ATOM     13  C   UNL     1      -6.670  -1.794 127.078  0.00  0.00    +0.000 C 
BRANCH  13  14
ATOM     14  O   UNL     1      -6.605  -2.421 125.794  0.00  0.00    +0.000 OA
BRANCH  14  15
ATOM     15  C   UNL     1      -7.633  -2.148 124.937  0.00  0.00    +0.000 A 
ATOM     16  C   UNL     1      -8.197  -3.243 124.283  0.00  0.00    +0.000 A 
ATOM     17  C   UNL     1      -9.134  -3.053 123.264  0.00  0.00    +0.000 A 
ATOM     18  C   UNL     1      -9.555  -1.765 122.939  0.00  0.00    +0.000 A 
ATOM     19  C   UNL     1      -9.006  -0.658 123.599  0.00  0.00    +0.000 A 
ATOM     20  C   UNL     1      -8.045  -0.862 124.600  0.00  0.00    +0.000 A 
BRANCH  19  21
ATOM     21  C   UNL     1      -9.384   0.741 123.194  0.00  0.00    +0.000 C 
ATOM     22  F   UNL     1     -10.187   0.759 122.096  0.00  0.00    +0.000 F 
ATOM     23  F   UNL     1     -10.057   1.407 124.170  0.00  0.00    +0.000 F 
ATOM     24  F   UNL     1      -8.310   1.520 122.882  0.00  0.00    +0.000 F 
ENDBRANCH  19  21
ENDBRANCH  14  15
ENDBRANCH  13  14
ENDBRANCH  10  13
ENDBRANCH   9  10
ENDBRANCH   5   8
BRANCH   4  25
ATOM     25  O   UNL     1      -5.372   5.277 126.631  0.00  0.00    +0.000 OA
ATOM     26  H   UNL     1      -6.165   5.807 126.471  0.00  0.00    +0.000 HD
ENDBRANCH   4  25
BRANCH   1  27
ATOM     27  C   UNL     1      -8.026   4.253 128.073  0.00  0.00    +0.000 C 
BRANCH  27  29
ATOM     28  C   UNL     1      -8.940   4.525 130.364  0.00  0.00    +0.000 C 
ATOM     29  C   UNL     1      -8.670   3.727 129.322  0.00  0.00    +0.000 C 
BRANCH  28  30
ATOM     30  C   UNL     1      -8.610   5.991 130.346  0.00  0.00    +0.000 C 
BRANCH  30  31
ATOM     31  C   UNL     1      -9.728   6.823 130.936  0.00  0.00    +0.000 C 
BRANCH  31  32
ATOM     32  C   UNL     1     -11.075   6.097 130.875  0.00  0.00    +0.000 C 
BRANCH  32  33
ATOM     33  C   UNL     1     -12.177   7.124 130.822  0.00  0.00    +0.000 C 
ATOM     34  O   UNL     1     -13.134   7.125 131.597  0.00  0.00    +0.000 OA
BRANCH  33  35
ATOM     35  O   UNL     1     -11.986   8.041 129.832  0.00  0.00    +0.000 OA
BRANCH  35  37
ATOM     36  C   UNL     1     -13.518   7.867 127.957  0.00  0.00    +0.000 C 
ATOM     37  C   UNL     1     -12.124   7.526 128.486  0.00  0.00    +0.000 C 
ATOM     38  C   UNL     1     -11.088   8.149 127.550  0.00  0.00    +0.000 C 
ENDBRANCH  35  37
ENDBRANCH  33  35
ENDBRANCH  32  33
ENDBRANCH  31  32
ENDBRANCH  30  31
ENDBRANCH  28  30
ENDBRANCH  27  29
ENDBRANCH   1  27
TORSDOF 17
ENDMDL
