MODEL 1
REMARK VINA RESULT:      -8.4      0.000      0.000
REMARK  Name = Trazodone
REMARK  5 active torsions:
REMARK  status: ('A' for Active; 'I' for Inactive)
REMARK    1  A    between atoms: C_6  and  N_8
REMARK    2  A    between atoms: N_11  and  C_12
REMARK    3  A    between atoms: C_12  and  C_13
REMARK    4  A    between atoms: C_13  and  C_14
REMARK    5  A    between atoms: C_14  and  N_15
REMARK                            x       y       z     vdW  Elec       q    Type
REMARK                         _______ _______ _______ _____ _____    ______ ____
ROOT
ATOM      1  N   UNL     1      -7.130  -1.724 126.856  0.00  0.00    +0.000 N 
ATOM      2  C   UNL     1      -6.583  -0.498 126.258  0.00  0.00    +0.000 C 
ATOM      3  C   UNL     1      -6.653  -0.633 124.701  0.00  0.00    +0.000 C 
ATOM      4  N   UNL     1      -8.007  -0.980 124.176  0.00  0.00    +0.000 NA
ATOM      5  C   UNL     1      -8.449  -2.222 124.867  0.00  0.00    +0.000 C 
ATOM      6  C   UNL     1      -8.477  -2.085 126.402  0.00  0.00    +0.000 C 
ENDROOT
BRANCH   1  12
ATOM      7 CL   UNL     1      -2.989  -3.335 129.339  0.00  0.00    +0.000 Cl
ATOM      8  C   UNL     1      -4.698  -3.202 129.194  0.00  0.00    +0.000 A 
ATOM      9  C   UNL     1      -5.525  -3.790 130.141  0.00  0.00    +0.000 A 
ATOM     10  C   UNL     1      -6.909  -3.681 130.000  0.00  0.00    +0.000 A 
ATOM     11  C   UNL     1      -7.461  -2.972 128.923  0.00  0.00    +0.000 A 
ATOM     12  C   UNL     1      -6.642  -2.378 127.962  0.00  0.00    +0.000 A 
ATOM     13  C   UNL     1      -5.250  -2.507 128.120  0.00  0.00    +0.000 A 
ENDBRANCH   1  12
BRANCH   4  14
ATOM     14  C   UNL     1      -8.938   0.137 124.409  0.00  0.00    +0.000 C 
BRANCH  14  15
ATOM     15  C   UNL     1      -9.307   0.862 123.118  0.00  0.00    +0.000 C 
BRANCH  15  16
ATOM     16  C   UNL     1      -9.206   2.363 123.308  0.00  0.00    +0.000 C 
BRANCH  16  17
ATOM     17  N   UNL     1      -8.400   2.953 122.276  0.00  0.00    +0.000 N 
ATOM     18  N   UNL     1      -8.886   3.362 121.047  0.00  0.00    +0.000 NA
ATOM     19  C   UNL     1      -7.843   3.888 120.477  0.00  0.00    +0.000 A 
ATOM     20  C   UNL     1      -7.757   4.533 119.148  0.00  0.00    +0.000 A 
ATOM     21  C   UNL     1      -6.572   5.050 118.778  0.00  0.00    +0.000 A 
ATOM     22  C   UNL     1      -5.406   4.969 119.639  0.00  0.00    +0.000 A 
ATOM     23  C   UNL     1      -5.499   4.367 120.833  0.00  0.00    +0.000 A 
ATOM     24  N   UNL     1      -6.701   3.843 121.216  0.00  0.00    +0.000 N 
ATOM     25  C   UNL     1      -7.032   3.225 122.390  0.00  0.00    +0.000 A 
ATOM     26  O   UNL     1      -6.310   2.975 123.349  0.00  0.00    +0.000 OA
ENDBRANCH  16  17
ENDBRANCH  15  16
ENDBRANCH  14  15
ENDBRANCH   4  14
TORSDOF 5
ENDMDL
MODEL 2
REMARK VINA RESULT:      -8.0      8.705     10.906
REMARK  Name = Trazodone
REMARK  5 active torsions:
REMARK  status: ('A' for Active; 'I' for Inactive)
REMARK    1  A    between atoms: C_6  and  N_8
REMARK    2  A    between atoms: N_11  and  C_12
REMARK    3  A    between atoms: C_12  and  C_13
REMARK    4  A    between atoms: C_13  and  C_14
REMARK    5  A    between atoms: C_14  and  N_15
REMARK                            x       y       z     vdW  Elec       q    Type
REMARK                         _______ _______ _______ _____ _____    ______ ____
ROOT
ATOM      1  N   UNL     1     -10.943   6.694 130.078  0.00  0.00    +0.000 N 
ATOM      2  C   UNL     1      -9.551   6.430 129.687  0.00  0.00    +0.000 C 
ATOM      3  C   UNL     1      -8.639   6.631 130.942  0.00  0.00    +0.000 C 
ATOM      4  N   UNL     1      -9.064   5.849 132.141  0.00  0.00    +0.000 NA
ATOM      5  C   UNL     1     -10.485   6.195 132.419  0.00  0.00    +0.000 C 
ATOM      6  C   UNL     1     -11.420   5.918 131.226  0.00  0.00    +0.000 C 
ENDROOT
BRANCH   1  12
ATOM      7 CL   UNL     1     -13.619  10.980 129.459  0.00  0.00    +0.000 Cl
ATOM      8  C   UNL     1     -13.222   9.374 128.986  0.00  0.00    +0.000 A 
ATOM      9  C   UNL     1     -13.885   8.777 127.923  0.00  0.00    +0.000 A 
ATOM     10  C   UNL     1     -13.558   7.470 127.562  0.00  0.00    +0.000 A 
ATOM     11  C   UNL     1     -12.559   6.769 128.254  0.00  0.00    +0.000 A 
ATOM     12  C   UNL     1     -11.886   7.356 129.328  0.00  0.00    +0.000 A 
ATOM     13  C   UNL     1     -12.237   8.672 129.679  0.00  0.00    +0.000 A 
ENDBRANCH   1  12
BRANCH   4  14
ATOM     14  C   UNL     1      -8.890   4.408 131.889  0.00  0.00    +0.000 C 
BRANCH  14  15
ATOM     15  C   UNL     1      -7.441   3.962 132.058  0.00  0.00    +0.000 C 
BRANCH  15  16
ATOM     16  C   UNL     1      -6.892   3.437 130.745  0.00  0.00    +0.000 C 
BRANCH  16  17
ATOM     17  N   UNL     1      -5.782   4.234 130.304  0.00  0.00    +0.000 N 
ATOM     18  N   UNL     1      -4.676   4.525 131.081  0.00  0.00    +0.000 NA
ATOM     19  C   UNL     1      -3.913   5.196 130.270  0.00  0.00    +0.000 A 
ATOM     20  C   UNL     1      -2.564   5.747 130.531  0.00  0.00    +0.000 A 
ATOM     21  C   UNL     1      -1.937   6.374 129.521  0.00  0.00    +0.000 A 
ATOM     22  C   UNL     1      -2.560   6.525 128.218  0.00  0.00    +0.000 A 
ATOM     23  C   UNL     1      -3.788   6.033 128.005  0.00  0.00    +0.000 A 
ATOM     24  N   UNL     1      -4.428   5.391 129.026  0.00  0.00    +0.000 N 
ATOM     25  C   UNL     1      -5.656   4.786 129.024  0.00  0.00    +0.000 A 
ATOM     26  O   UNL     1      -6.467   4.715 128.108  0.00  0.00    +0.000 OA
ENDBRANCH  16  17
ENDBRANCH  15  16
ENDBRANCH  14  15
ENDBRANCH   4  14
TORSDOF 5
ENDMDL
MODEL 3
REMARK VINA RESULT:      -7.9      6.105      9.351
REMARK  Name = Trazodone
REMARK  5 active torsions:
REMARK  status: ('A' for Active; 'I' for Inactive)
REMARK    1  A    between atoms: C_6  and  N_8
REMARK    2  A    between atoms: N_11  and  C_12
REMARK    3  A    between atoms: C_12  and  C_13
REMARK    4  A    between atoms: C_13  and  C_14
REMARK    5  A    between atoms: C_14  and  N_15
REMARK                            x       y       z     vdW  Elec       q    Type
REMARK                         _______ _______ _______ _____ _____    ______ ____
ROOT
ATOM      1  N   UNL     1      -6.919   3.201 123.235  0.00  0.00    +0.000 N 
ATOM      2  C   UNL     1      -7.613   1.970 123.639  0.00  0.00    +0.000 C 
ATOM      3  C   UNL     1      -6.779   1.281 124.769  0.00  0.00    +0.000 C 
ATOM      4  N   UNL     1      -6.455   2.171 125.923  0.00  0.00    +0.000 NA
ATOM      5  C   UNL     1      -5.774   3.378 125.379  0.00  0.00    +0.000 C 
ATOM      6  C   UNL     1      -6.617   4.128 124.329  0.00  0.00    +0.000 C 
ENDROOT
BRANCH   1  12
ATOM      7 CL   UNL     1      -9.264   4.205 118.829  0.00  0.00    +0.000 Cl
ATOM      8  C   UNL     1      -7.844   4.159 119.801  0.00  0.00    +0.000 A 
ATOM      9  C   UNL     1      -6.622   4.539 119.265  0.00  0.00    +0.000 A 
ATOM     10  C   UNL     1      -5.479   4.483 120.064  0.00  0.00    +0.000 A 
ATOM     11  C   UNL     1      -5.566   4.064 121.400  0.00  0.00    +0.000 A 
ATOM     12  C   UNL     1      -6.789   3.676 121.951  0.00  0.00    +0.000 A 
ATOM     13  C   UNL     1      -7.926   3.733 121.125  0.00  0.00    +0.000 A 
ENDBRANCH   1  12
BRANCH   4  14
ATOM     14  C   UNL     1      -7.689   2.519 126.650  0.00  0.00    +0.000 C 
BRANCH  14  15
ATOM     15  C   UNL     1      -7.485   3.687 127.609  0.00  0.00    +0.000 C 
BRANCH  15  16
ATOM     16  C   UNL     1      -8.140   3.395 128.945  0.00  0.00    +0.000 C 
BRANCH  16  17
ATOM     17  N   UNL     1      -9.030   4.459 129.319  0.00  0.00    +0.000 N 
ATOM     18  N   UNL     1      -9.141   5.656 128.636  0.00  0.00    +0.000 NA
ATOM     19  C   UNL     1     -10.094   6.272 129.271  0.00  0.00    +0.000 A 
ATOM     20  C   UNL     1     -10.684   7.595 128.971  0.00  0.00    +0.000 A 
ATOM     21  C   UNL     1     -11.700   8.018 129.744  0.00  0.00    +0.000 A 
ATOM     22  C   UNL     1     -12.198   7.216 130.848  0.00  0.00    +0.000 A 
ATOM     23  C   UNL     1     -11.640   6.027 131.114  0.00  0.00    +0.000 A 
ATOM     24  N   UNL     1     -10.611   5.592 130.330  0.00  0.00    +0.000 N 
ATOM     25  C   UNL     1      -9.924   4.409 130.394  0.00  0.00    +0.000 A 
ATOM     26  O   UNL     1     -10.063   3.492 131.195  0.00  0.00    +0.000 OA
ENDBRANCH  16  17
ENDBRANCH  15  16
ENDBRANCH  14  15
ENDBRANCH   4  14
TORSDOF 5
ENDMDL
MODEL 4
REMARK VINA RESULT:      -7.8      4.638      8.065
REMARK  Name = Trazodone
REMARK  5 active torsions:
REMARK  status: ('A' for Active; 'I' for Inactive)
REMARK    1  A    between atoms: C_6  and  N_8
REMARK    2  A    between atoms: N_11  and  C_12
REMARK    3  A    between atoms: C_12  and  C_13
REMARK    4  A    between atoms: C_13  and  C_14
REMARK    5  A    between atoms: C_14  and  N_15
REMARK                            x       y       z     vdW  Elec       q    Type
REMARK                         _______ _______ _______ _____ _____    ______ ____
ROOT
ATOM      1  N   UNL     1      -7.412   2.717 123.067  0.00  0.00    +0.000 N 
ATOM      2  C   UNL     1      -8.866   2.524 123.153  0.00  0.00    +0.000 C 
ATOM      3  C   UNL     1      -9.146   1.031 123.530  0.00  0.00    +0.000 C 
ATOM      4  N   UNL     1      -8.425   0.561 124.750  0.00  0.00    +0.000 NA
ATOM      5  C   UNL     1      -6.974   0.825 124.541  0.00  0.00    +0.000 C 
ATOM      6  C   UNL     1      -6.663   2.308 124.259  0.00  0.00    +0.000 C 
ENDROOT
BRANCH   1  12
ATOM      7 CL   UNL     1      -7.409   4.545 118.316  0.00  0.00    +0.000 Cl
ATOM      8  C   UNL     1      -6.667   4.364 119.858  0.00  0.00    +0.000 A 
ATOM      9  C   UNL     1      -5.420   4.924 120.101  0.00  0.00    +0.000 A 
ATOM     10  C   UNL     1      -4.829   4.756 121.353  0.00  0.00    +0.000 A 
ATOM     11  C   UNL     1      -5.493   4.044 122.364  0.00  0.00    +0.000 A 
ATOM     12  C   UNL     1      -6.745   3.474 122.133  0.00  0.00    +0.000 A 
ATOM     13  C   UNL     1      -7.319   3.649 120.860  0.00  0.00    +0.000 A 
ENDBRANCH   1  12
BRANCH   4  14
ATOM     14  C   UNL     1      -8.943   1.259 125.940  0.00  0.00    +0.000 C 
BRANCH  14  15
ATOM     15  C   UNL     1      -8.073   1.027 127.171  0.00  0.00    +0.000 C 
BRANCH  15  16
ATOM     16  C   UNL     1      -8.008   2.284 128.017  0.00  0.00    +0.000 C 
BRANCH  16  17
ATOM     17  N   UNL     1      -6.679   2.831 128.013  0.00  0.00    +0.000 N 
ATOM     18  N   UNL     1      -5.552   2.133 127.620  0.00  0.00    +0.000 NA
ATOM     19  C   UNL     1      -4.608   3.022 127.710  0.00  0.00    +0.000 A 
ATOM     20  C   UNL     1      -3.174   2.867 127.379  0.00  0.00    +0.000 A 
ATOM     21  C   UNL     1      -2.381   3.945 127.509  0.00  0.00    +0.000 A 
ATOM     22  C   UNL     1      -2.902   5.219 127.972  0.00  0.00    +0.000 A 
ATOM     23  C   UNL     1      -4.201   5.336 128.282  0.00  0.00    +0.000 A 
ATOM     24  N   UNL     1      -5.011   4.246 128.148  0.00  0.00    +0.000 N 
ATOM     25  C   UNL     1      -6.358   4.146 128.369  0.00  0.00    +0.000 A 
ATOM     26  O   UNL     1      -7.130   5.010 128.767  0.00  0.00    +0.000 OA
ENDBRANCH  16  17
ENDBRANCH  15  16
ENDBRANCH  14  15
ENDBRANCH   4  14
TORSDOF 5
ENDMDL
MODEL 5
REMARK VINA RESULT:      -7.8      3.772      8.485
REMARK  Name = Trazodone
REMARK  5 active torsions:
REMARK  status: ('A' for Active; 'I' for Inactive)
REMARK    1  A    between atoms: C_6  and  N_8
REMARK    2  A    between atoms: N_11  and  C_12
REMARK    3  A    between atoms: C_12  and  C_13
REMARK    4  A    between atoms: C_13  and  C_14
REMARK    5  A    between atoms: C_14  and  N_15
REMARK                            x       y       z     vdW  Elec       q    Type
REMARK                         _______ _______ _______ _____ _____    ______ ____
ROOT
ATOM      1  N   UNL     1      -6.510   3.387 123.124  0.00  0.00    +0.000 N 
ATOM      2  C   UNL     1      -7.130   2.145 123.606  0.00  0.00    +0.000 C 
ATOM      3  C   UNL     1      -6.179   1.496 124.666  0.00  0.00    +0.000 C 
ATOM      4  N   UNL     1      -5.779   2.413 125.774  0.00  0.00    +0.000 NA
ATOM      5  C   UNL     1      -5.183   3.628 125.155  0.00  0.00    +0.000 C 
ATOM      6  C   UNL     1      -6.137   4.339 124.175  0.00  0.00    +0.000 C 
ENDROOT
BRANCH   1  12
ATOM      7 CL   UNL     1      -9.238   4.137 118.892  0.00  0.00    +0.000 Cl
ATOM      8  C   UNL     1      -7.751   4.210 119.756  0.00  0.00    +0.000 A 
ATOM      9  C   UNL     1      -6.601   4.665 119.125  0.00  0.00    +0.000 A 
ATOM     10  C   UNL     1      -5.402   4.706 119.838  0.00  0.00    +0.000 A 
ATOM     11  C   UNL     1      -5.361   4.308 121.183  0.00  0.00    +0.000 A 
ATOM     12  C   UNL     1      -6.508   3.846 121.828  0.00  0.00    +0.000 A 
ATOM     13  C   UNL     1      -7.704   3.806 121.088  0.00  0.00    +0.000 A 
ENDBRANCH   1  12
BRANCH   4  14
ATOM     14  C   UNL     1      -6.951   2.739 126.604  0.00  0.00    +0.000 C 
BRANCH  14  15
ATOM     15  C   UNL     1      -7.130   1.763 127.762  0.00  0.00    +0.000 C 
BRANCH  15  16
ATOM     16  C   UNL     1      -8.472   1.063 127.661  0.00  0.00    +0.000 C 
BRANCH  16  17
ATOM     17  N   UNL     1      -8.408  -0.028 126.729  0.00  0.00    +0.000 N 
ATOM     18  N   UNL     1      -7.523  -1.086 126.830  0.00  0.00    +0.000 NA
ATOM     19  C   UNL     1      -7.863  -1.852 125.836  0.00  0.00    +0.000 A 
ATOM     20  C   UNL     1      -7.289  -3.161 125.455  0.00  0.00    +0.000 A 
ATOM     21  C   UNL     1      -7.833  -3.802 124.406  0.00  0.00    +0.000 A 
ATOM     22  C   UNL     1      -8.936  -3.229 123.655  0.00  0.00    +0.000 A 
ATOM     23  C   UNL     1      -9.432  -2.035 124.006  0.00  0.00    +0.000 A 
ATOM     24  N   UNL     1      -8.886  -1.382 125.073  0.00  0.00    +0.000 N 
ATOM     25  C   UNL     1      -9.253  -0.184 125.625  0.00  0.00    +0.000 A 
ATOM     26  O   UNL     1     -10.136   0.584 125.259  0.00  0.00    +0.000 OA
ENDBRANCH  16  17
ENDBRANCH  15  16
ENDBRANCH  14  15
ENDBRANCH   4  14
TORSDOF 5
ENDMDL
MODEL 6
REMARK VINA RESULT:      -7.6      7.011      8.266
REMARK  Name = Trazodone
REMARK  5 active torsions:
REMARK  status: ('A' for Active; 'I' for Inactive)
REMARK    1  A    between atoms: C_6  and  N_8
REMARK    2  A    between atoms: N_11  and  C_12
REMARK    3  A    between atoms: C_12  and  C_13
REMARK    4  A    between atoms: C_13  and  C_14
REMARK    5  A    between atoms: C_14  and  N_15
REMARK                            x       y       z     vdW  Elec       q    Type
REMARK                         _______ _______ _______ _____ _____    ______ ____
ROOT
ATOM      1  N   UNL     1      -7.355   0.338 130.922  0.00  0.00    +0.000 N 
ATOM      2  C   UNL     1      -6.246   1.242 131.258  0.00  0.00    +0.000 C 
ATOM      3  C   UNL     1      -6.552   2.649 130.647  0.00  0.00    +0.000 C 
ATOM      4  N   UNL     1      -7.888   3.204 131.020  0.00  0.00    +0.000 NA
ATOM      5  C   UNL     1      -8.913   2.192 130.643  0.00  0.00    +0.000 C 
ATOM      6  C   UNL     1      -8.685   0.821 131.307  0.00  0.00    +0.000 C 
ENDROOT
BRANCH   1  12
ATOM      7 CL   UNL     1      -8.646  -3.245 127.544  0.00  0.00    +0.000 Cl
ATOM      8  C   UNL     1      -7.846  -2.758 128.988  0.00  0.00    +0.000 A 
ATOM      9  C   UNL     1      -7.173  -3.694 129.761  0.00  0.00    +0.000 A 
ATOM     10  C   UNL     1      -6.542  -3.282 130.935  0.00  0.00    +0.000 A 
ATOM     11  C   UNL     1      -6.570  -1.934 131.323  0.00  0.00    +0.000 A 
ATOM     12  C   UNL     1      -7.245  -0.983 130.556  0.00  0.00    +0.000 A 
ATOM     13  C   UNL     1      -7.881  -1.422 129.381  0.00  0.00    +0.000 A 
ENDBRANCH   1  12
BRANCH   4  14
ATOM     14  C   UNL     1      -7.920   3.505 132.462  0.00  0.00    +0.000 C 
BRANCH  14  15
ATOM     15  C   UNL     1      -9.236   4.148 132.889  0.00  0.00    +0.000 C 
BRANCH  15  16
ATOM     16  C   UNL     1      -9.100   5.658 132.923  0.00  0.00    +0.000 C 
BRANCH  16  17
ATOM     17  N   UNL     1      -9.862   6.262 131.866  0.00  0.00    +0.000 N 
ATOM     18  N   UNL     1     -11.240   6.372 131.866  0.00  0.00    +0.000 NA
ATOM     19  C   UNL     1     -11.484   7.032 130.773  0.00  0.00    +0.000 A 
ATOM     20  C   UNL     1     -12.794   7.485 130.252  0.00  0.00    +0.000 A 
ATOM     21  C   UNL     1     -12.802   8.197 129.112  0.00  0.00    +0.000 A 
ATOM     22  C   UNL     1     -11.575   8.504 128.400  0.00  0.00    +0.000 A 
ATOM     23  C   UNL     1     -10.400   8.073 128.878  0.00  0.00    +0.000 A 
ATOM     24  N   UNL     1     -10.385   7.352 130.038  0.00  0.00    +0.000 N 
ATOM     25  C   UNL     1      -9.311   6.848 130.721  0.00  0.00    +0.000 A 
ATOM     26  O   UNL     1      -8.124   6.906 130.422  0.00  0.00    +0.000 OA
ENDBRANCH  16  17
ENDBRANCH  15  16
ENDBRANCH  14  15
ENDBRANCH   4  14
TORSDOF 5
ENDMDL
MODEL 7
REMARK VINA RESULT:      -7.6      5.911      7.551
REMARK  Name = Trazodone
REMARK  5 active torsions:
REMARK  status: ('A' for Active; 'I' for Inactive)
REMARK    1  A    between atoms: C_6  and  N_8
REMARK    2  A    between atoms: N_11  and  C_12
REMARK    3  A    between atoms: C_12  and  C_13
REMARK    4  A    between atoms: C_13  and  C_14
REMARK    5  A    between atoms: C_14  and  N_15
REMARK                            x       y       z     vdW  Elec       q    Type
REMARK                         _______ _______ _______ _____ _____    ______ ____
ROOT
ATOM      1  N   UNL     1      -7.123   0.423 125.493  0.00  0.00    +0.000 N 
ATOM      2  C   UNL     1      -5.826   1.045 125.795  0.00  0.00    +0.000 C 
ATOM      3  C   UNL     1      -5.799   2.470 125.150  0.00  0.00    +0.000 C 
ATOM      4  N   UNL     1      -6.958   3.335 125.521  0.00  0.00    +0.000 NA
ATOM      5  C   UNL     1      -8.200   2.587 125.180  0.00  0.00    +0.000 C 
ATOM      6  C   UNL     1      -8.294   1.217 125.878  0.00  0.00    +0.000 C 
ENDROOT
BRANCH   1  12
ATOM      7 CL   UNL     1      -5.043  -3.916 123.832  0.00  0.00    +0.000 Cl
ATOM      8  C   UNL     1      -6.408  -3.003 124.345  0.00  0.00    +0.000 A 
ATOM      9  C   UNL     1      -7.669  -3.583 124.359  0.00  0.00    +0.000 A 
ATOM     10  C   UNL     1      -8.766  -2.823 124.766  0.00  0.00    +0.000 A 
ATOM     11  C   UNL     1      -8.597  -1.492 125.174  0.00  0.00    +0.000 A 
ATOM     12  C   UNL     1      -7.335  -0.894 125.162  0.00  0.00    +0.000 A 
ATOM     13  C   UNL     1      -6.245  -1.677 124.740  0.00  0.00    +0.000 A 
ENDBRANCH   1  12
BRANCH   4  14
ATOM     14  C   UNL     1      -6.897   3.669 126.954  0.00  0.00    +0.000 C 
BRANCH  14  15
ATOM     15  C   UNL     1      -8.109   4.473 127.413  0.00  0.00    +0.000 C 
BRANCH  15  16
ATOM     16  C   UNL     1      -8.207   4.464 128.927  0.00  0.00    +0.000 C 
BRANCH  16  17
ATOM     17  N   UNL     1      -9.262   5.330 129.373  0.00  0.00    +0.000 N 
ATOM     18  N   UNL     1      -9.760   6.392 128.640  0.00  0.00    +0.000 NA
ATOM     19  C   UNL     1     -10.727   6.838 129.385  0.00  0.00    +0.000 A 
ATOM     20  C   UNL     1     -11.658   7.952 129.101  0.00  0.00    +0.000 A 
ATOM     21  C   UNL     1     -12.620   8.211 130.005  0.00  0.00    +0.000 A 
ATOM     22  C   UNL     1     -12.738   7.439 131.229  0.00  0.00    +0.000 A 
ATOM     23  C   UNL     1     -11.876   6.443 131.476  0.00  0.00    +0.000 A 
ATOM     24  N   UNL     1     -10.901   6.173 130.560  0.00  0.00    +0.000 N 
ATOM     25  C   UNL     1      -9.947   5.192 130.586  0.00  0.00    +0.000 A 
ATOM     26  O   UNL     1      -9.739   4.357 131.458  0.00  0.00    +0.000 OA
ENDBRANCH  16  17
ENDBRANCH  15  16
ENDBRANCH  14  15
ENDBRANCH   4  14
TORSDOF 5
ENDMDL
MODEL 8
REMARK VINA RESULT:      -7.5      6.066      7.875
REMARK  Name = Trazodone
REMARK  5 active torsions:
REMARK  status: ('A' for Active; 'I' for Inactive)
REMARK    1  A    between atoms: C_6  and  N_8
REMARK    2  A    between atoms: N_11  and  C_12
REMARK    3  A    between atoms: C_12  and  C_13
REMARK    4  A    between atoms: C_13  and  C_14
REMARK    5  A    between atoms: C_14  and  N_15
REMARK                            x       y       z     vdW  Elec       q    Type
REMARK                         _______ _______ _______ _____ _____    ______ ____
ROOT
ATOM      1  N   UNL     1      -7.423  -0.036 126.769  0.00  0.00    +0.000 N 
ATOM      2  C   UNL     1      -6.829   0.037 128.112  0.00  0.00    +0.000 C 
ATOM      3  C   UNL     1      -6.480   1.531 128.418  0.00  0.00    +0.000 C 
ATOM      4  N   UNL     1      -7.620   2.477 128.236  0.00  0.00    +0.000 NA
ATOM      5  C   UNL     1      -8.136   2.294 126.852  0.00  0.00    +0.000 C 
ATOM      6  C   UNL     1      -8.574   0.846 126.555  0.00  0.00    +0.000 C 
ENDROOT
BRANCH   1  12
ATOM      7 CL   UNL     1      -9.497  -3.271 123.430  0.00  0.00    +0.000 Cl
ATOM      8  C   UNL     1      -8.123  -2.608 124.228  0.00  0.00    +0.000 A 
ATOM      9  C   UNL     1      -6.855  -3.102 123.956  0.00  0.00    +0.000 A 
ATOM     10  C   UNL     1      -5.755  -2.561 124.622  0.00  0.00    +0.000 A 
ATOM     11  C   UNL     1      -5.924  -1.518 125.545  0.00  0.00    +0.000 A 
ATOM     12  C   UNL     1      -7.194  -1.014 125.831  0.00  0.00    +0.000 A 
ATOM     13  C   UNL     1      -8.290  -1.580 125.153  0.00  0.00    +0.000 A 
ENDBRANCH   1  12
BRANCH   4  14
ATOM     14  C   UNL     1      -8.658   2.213 129.247  0.00  0.00    +0.000 C 
BRANCH  14  15
ATOM     15  C   UNL     1      -8.324   2.840 130.597  0.00  0.00    +0.000 C 
BRANCH  15  16
ATOM     16  C   UNL     1      -7.995   4.311 130.430  0.00  0.00    +0.000 C 
BRANCH  16  17
ATOM     17  N   UNL     1      -9.196   5.098 130.385  0.00  0.00    +0.000 N 
ATOM     18  N   UNL     1     -10.017   5.327 131.474  0.00  0.00    +0.000 NA
ATOM     19  C   UNL     1     -10.922   6.130 130.998  0.00  0.00    +0.000 A 
ATOM     20  C   UNL     1     -12.058   6.752 131.714  0.00  0.00    +0.000 A 
ATOM     21  C   UNL     1     -12.849   7.592 131.025  0.00  0.00    +0.000 A 
ATOM     22  C   UNL     1     -12.614   7.873 129.619  0.00  0.00    +0.000 A 
ATOM     23  C   UNL     1     -11.590   7.288 128.983  0.00  0.00    +0.000 A 
ATOM     24  N   UNL     1     -10.781   6.437 129.680  0.00  0.00    +0.000 N 
ATOM     25  C   UNL     1      -9.669   5.765 129.250  0.00  0.00    +0.000 A 
ATOM     26  O   UNL     1      -9.173   5.756 128.129  0.00  0.00    +0.000 OA
ENDBRANCH  16  17
ENDBRANCH  15  16
ENDBRANCH  14  15
ENDBRANCH   4  14
TORSDOF 5
ENDMDL
MODEL 9
REMARK VINA RESULT:      -7.5      6.618      7.889
REMARK  Name = Trazodone
REMARK  5 active torsions:
REMARK  status: ('A' for Active; 'I' for Inactive)
REMARK    1  A    between atoms: C_6  and  N_8
REMARK    2  A    between atoms: N_11  and  C_12
REMARK    3  A    between atoms: C_12  and  C_13
REMARK    4  A    between atoms: C_13  and  C_14
REMARK    5  A    between atoms: C_14  and  N_15
REMARK                            x       y       z     vdW  Elec       q    Type
REMARK                         _______ _______ _______ _____ _____    ______ ____
ROOT
ATOM      1  N   UNL     1      -8.058   0.627 130.679  0.00  0.00    +0.000 N 
ATOM      2  C   UNL     1      -8.444   1.057 132.030  0.00  0.00    +0.000 C 
ATOM      3  C   UNL     1      -7.708   2.400 132.350  0.00  0.00    +0.000 C 
ATOM      4  N   UNL     1      -7.904   3.467 131.324  0.00  0.00    +0.000 NA
ATOM      5  C   UNL     1      -7.494   2.902 130.009  0.00  0.00    +0.000 C 
ATOM      6  C   UNL     1      -8.271   1.627 129.628  0.00  0.00    +0.000 C 
ENDROOT
BRANCH   1  12
ATOM      7 CL   UNL     1      -7.348  -2.527 126.747  0.00  0.00    +0.000 Cl
ATOM      8  C   UNL     1      -7.473  -2.237 128.438  0.00  0.00    +0.000 A 
ATOM      9  C   UNL     1      -7.369  -3.291 129.335  0.00  0.00    +0.000 A 
ATOM     10  C   UNL     1      -7.485  -3.038 130.702  0.00  0.00    +0.000 A 
ATOM     11  C   UNL     1      -7.689  -1.731 131.169  0.00  0.00    +0.000 A 
ATOM     12  C   UNL     1      -7.799  -0.662 130.279  0.00  0.00    +0.000 A 
ATOM     13  C   UNL     1      -7.686  -0.941 128.904  0.00  0.00    +0.000 A 
ENDBRANCH   1  12
BRANCH   4  14
ATOM     14  C   UNL     1      -9.310   3.906 131.317  0.00  0.00    +0.000 C 
BRANCH  14  15
ATOM     15  C   UNL     1      -9.598   4.942 132.399  0.00  0.00    +0.000 C 
BRANCH  15  16
ATOM     16  C   UNL     1      -9.312   6.339 131.882  0.00  0.00    +0.000 C 
BRANCH  16  17
ATOM     17  N   UNL     1     -10.123   6.632 130.733  0.00  0.00    +0.000 N 
ATOM     18  N   UNL     1      -9.620   6.894 129.472  0.00  0.00    +0.000 NA
ATOM     19  C   UNL     1     -10.691   7.030 128.749  0.00  0.00    +0.000 A 
ATOM     20  C   UNL     1     -10.784   7.288 127.294  0.00  0.00    +0.000 A 
ATOM     21  C   UNL     1     -12.010   7.348 126.746  0.00  0.00    +0.000 A 
ATOM     22  C   UNL     1     -13.209   7.184 127.548  0.00  0.00    +0.000 A 
ATOM     23  C   UNL     1     -13.106   6.967 128.866  0.00  0.00    +0.000 A 
ATOM     24  N   UNL     1     -11.863   6.900 129.428  0.00  0.00    +0.000 N 
ATOM     25  C   UNL     1     -11.523   6.655 130.730  0.00  0.00    +0.000 A 
ATOM     26  O   UNL     1     -12.264   6.471 131.689  0.00  0.00    +0.000 OA
ENDBRANCH  16  17
ENDBRANCH  15  16
ENDBRANCH  14  15
ENDBRANCH   4  14
TORSDOF 5
ENDMDL
