MODEL 1
REMARK VINA RESULT:      -4.7      0.000      0.000
REMARK  Name = Treosulfan
REMARK  11 active torsions:
REMARK  status: ('A' for Active; 'I' for Inactive)
REMARK    1  A    between atoms: C_1  and  S_2
REMARK    2  A    between atoms: S_2  and  O_5
REMARK    3  A    between atoms: O_5  and  C_6
REMARK    4  A    between atoms: C_6  and  C_7
REMARK    5  A    between atoms: C_7  and  O_8
REMARK    6  A    between atoms: C_7  and  C_9
REMARK    7  A    between atoms: C_9  and  O_10
REMARK    8  A    between atoms: C_9  and  C_11
REMARK    9  A    between atoms: C_11  and  O_12
REMARK   10  A    between atoms: O_12  and  S_13
REMARK   11  A    between atoms: S_13  and  C_14
REMARK                            x       y       z     vdW  Elec       q    Type
REMARK                         _______ _______ _______ _____ _____    ______ ____
ROOT
ATOM      1  C   UNL     1     -10.384   4.756 130.957  0.00  0.00    +0.000 C 
ENDROOT
BRANCH   1   2
ATOM      2  O   UNL     1     -11.106   3.971 129.997  0.00  0.00    +0.000 OA
ATOM      3  H   UNL     1     -10.719   4.118 129.116  0.00  0.00    +0.000 HD
ENDBRANCH   1   2
BRANCH   1   4
ATOM      4  C   UNL     1      -8.886   4.696 130.613  0.00  0.00    +0.000 C 
BRANCH   4   5
ATOM      5  O   UNL     1      -8.552   5.318 129.366  0.00  0.00    +0.000 OA
BRANCH   5   7
ATOM      6  C   UNL     1      -6.348   4.149 128.487  0.00  0.00    +0.000 C 
ATOM      7  S   UNL     1      -8.103   4.280 128.181  0.00  0.00    +0.000 S 
ATOM      8  O   UNL     1      -8.301   4.950 126.914  0.00  0.00    +0.000 OA
ATOM      9  O   UNL     1      -8.722   3.006 128.477  0.00  0.00    +0.000 OA
ENDBRANCH   5   7
ENDBRANCH   4   5
ENDBRANCH   1   4
BRANCH   1  10
ATOM     10  C   UNL     1     -10.945   6.206 131.007  0.00  0.00    +0.000 C 
BRANCH  10  11
ATOM     11  O   UNL     1      -9.871   7.155 130.964  0.00  0.00    +0.000 OA
ATOM     12  H   UNL     1     -10.147   7.966 131.422  0.00  0.00    +0.000 HD
ENDBRANCH  10  11
BRANCH  10  13
ATOM     13  C   UNL     1     -11.885   6.436 129.826  0.00  0.00    +0.000 C 
BRANCH  13  14
ATOM     14  O   UNL     1     -11.288   6.308 128.548  0.00  0.00    +0.000 OA
BRANCH  14  15
ATOM     15  S   UNL     1     -11.073   7.695 127.702  0.00  0.00    +0.000 S 
ATOM     16  C   UNL     1     -12.592   8.523 128.143  0.00  0.00    +0.000 C 
ATOM     17  O   UNL     1      -9.980   8.443 128.284  0.00  0.00    +0.000 OA
ATOM     18  O   UNL     1     -11.116   7.382 126.288  0.00  0.00    +0.000 OA
ENDBRANCH  14  15
ENDBRANCH  13  14
ENDBRANCH  10  13
ENDBRANCH   1  10
TORSDOF 9
ENDMDL
MODEL 2
REMARK VINA RESULT:      -4.7      1.984      4.314
REMARK  Name = Treosulfan
REMARK  11 active torsions:
REMARK  status: ('A' for Active; 'I' for Inactive)
REMARK    1  A    between atoms: C_1  and  S_2
REMARK    2  A    between atoms: S_2  and  O_5
REMARK    3  A    between atoms: O_5  and  C_6
REMARK    4  A    between atoms: C_6  and  C_7
REMARK    5  A    between atoms: C_7  and  O_8
REMARK    6  A    between atoms: C_7  and  C_9
REMARK    7  A    between atoms: C_9  and  O_10
REMARK    8  A    between atoms: C_9  and  C_11
REMARK    9  A    between atoms: C_11  and  O_12
REMARK   10  A    between atoms: O_12  and  S_13
REMARK   11  A    between atoms: S_13  and  C_14
REMARK                            x       y       z     vdW  Elec       q    Type
REMARK                         _______ _______ _______ _____ _____    ______ ____
ROOT
ATOM      1  C   UNL     1     -12.416   6.866 130.411  0.00  0.00    +0.000 C 
ENDROOT
BRANCH   1   2
ATOM      2  O   UNL     1     -11.728   8.125 130.431  0.00  0.00    +0.000 OA
ATOM      3  H   UNL     1     -11.432   8.335 129.528  0.00  0.00    +0.000 HD
ENDBRANCH   1   2
BRANCH   1   4
ATOM      4  C   UNL     1     -12.427   6.336 128.967  0.00  0.00    +0.000 C 
BRANCH   4   5
ATOM      5  O   UNL     1     -11.123   6.182 128.396  0.00  0.00    +0.000 OA
BRANCH   5   7
ATOM      6  C   UNL     1     -12.381   7.139 126.274  0.00  0.00    +0.000 C 
ATOM      7  S   UNL     1     -10.810   7.167 127.125  0.00  0.00    +0.000 S 
ATOM      8  O   UNL     1      -9.825   6.509 126.294  0.00  0.00    +0.000 OA
ATOM      9  O   UNL     1     -10.596   8.494 127.661  0.00  0.00    +0.000 OA
ENDBRANCH   5   7
ENDBRANCH   4   5
ENDBRANCH   1   4
BRANCH   1  10
ATOM     10  C   UNL     1     -11.771   5.876 131.423  0.00  0.00    +0.000 C 
BRANCH  10  11
ATOM     11  O   UNL     1     -11.345   4.685 130.749  0.00  0.00    +0.000 OA
ATOM     12  H   UNL     1     -12.118   4.259 130.342  0.00  0.00    +0.000 HD
ENDBRANCH  10  11
BRANCH  10  13
ATOM     13  C   UNL     1     -10.574   6.541 132.101  0.00  0.00    +0.000 C 
BRANCH  13  14
ATOM     14  O   UNL     1      -9.353   5.831 131.999  0.00  0.00    +0.000 OA
BRANCH  14  15
ATOM     15  S   UNL     1      -8.384   6.226 130.739  0.00  0.00    +0.000 S 
ATOM     16  C   UNL     1      -6.840   6.383 131.620  0.00  0.00    +0.000 C 
ATOM     17  O   UNL     1      -8.270   5.089 129.851  0.00  0.00    +0.000 OA
ATOM     18  O   UNL     1      -8.771   7.536 130.254  0.00  0.00    +0.000 OA
ENDBRANCH  14  15
ENDBRANCH  13  14
ENDBRANCH  10  13
ENDBRANCH   1  10
TORSDOF 9
ENDMDL
MODEL 3
REMARK VINA RESULT:      -4.7      2.254      5.292
REMARK  Name = Treosulfan
REMARK  11 active torsions:
REMARK  status: ('A' for Active; 'I' for Inactive)
REMARK    1  A    between atoms: C_1  and  S_2
REMARK    2  A    between atoms: S_2  and  O_5
REMARK    3  A    between atoms: O_5  and  C_6
REMARK    4  A    between atoms: C_6  and  C_7
REMARK    5  A    between atoms: C_7  and  O_8
REMARK    6  A    between atoms: C_7  and  C_9
REMARK    7  A    between atoms: C_9  and  O_10
REMARK    8  A    between atoms: C_9  and  C_11
REMARK    9  A    between atoms: C_11  and  O_12
REMARK   10  A    between atoms: O_12  and  S_13
REMARK   11  A    between atoms: S_13  and  C_14
REMARK                            x       y       z     vdW  Elec       q    Type
REMARK                         _______ _______ _______ _____ _____    ______ ____
ROOT
ATOM      1  C   UNL     1     -10.955   5.694 130.641  0.00  0.00    +0.000 C 
ENDROOT
BRANCH   1   2
ATOM      2  O   UNL     1     -10.527   6.800 131.449  0.00  0.00    +0.000 OA
ATOM      3  H   UNL     1     -10.715   7.627 130.973  0.00  0.00    +0.000 HD
ENDBRANCH   1   2
BRANCH   1   4
ATOM      4  C   UNL     1     -11.920   6.217 129.564  0.00  0.00    +0.000 C 
BRANCH   4   5
ATOM      5  O   UNL     1     -11.296   6.470 128.300  0.00  0.00    +0.000 OA
BRANCH   5   7
ATOM      6  C   UNL     1     -12.335   8.868 128.716  0.00  0.00    +0.000 C 
ATOM      7  S   UNL     1     -10.910   8.039 128.028  0.00  0.00    +0.000 S 
ATOM      8  O   UNL     1     -10.904   8.245 126.596  0.00  0.00    +0.000 OA
ATOM      9  O   UNL     1      -9.756   8.339 128.848  0.00  0.00    +0.000 OA
ENDBRANCH   5   7
ENDBRANCH   4   5
ENDBRANCH   1   4
BRANCH   1  10
ATOM     10  C   UNL     1      -9.728   4.941 130.053  0.00  0.00    +0.000 C 
BRANCH  10  11
ATOM     11  O   UNL     1      -8.641   5.853 129.844  0.00  0.00    +0.000 OA
ATOM     12  H   UNL     1      -8.987   6.672 129.453  0.00  0.00    +0.000 HD
ENDBRANCH  10  11
BRANCH  10  13
ATOM     13  C   UNL     1      -9.295   3.833 131.011  0.00  0.00    +0.000 C 
BRANCH  13  14
ATOM     14  O   UNL     1      -9.564   4.082 132.379  0.00  0.00    +0.000 OA
BRANCH  14  15
ATOM     15  S   UNL     1      -8.313   4.641 133.278  0.00  0.00    +0.000 S 
ATOM     16  C   UNL     1      -6.998   3.683 132.543  0.00  0.00    +0.000 C 
ATOM     17  O   UNL     1      -8.077   6.031 132.953  0.00  0.00    +0.000 OA
ATOM     18  O   UNL     1      -8.494   4.197 134.645  0.00  0.00    +0.000 OA
ENDBRANCH  14  15
ENDBRANCH  13  14
ENDBRANCH  10  13
ENDBRANCH   1  10
TORSDOF 9
ENDMDL
MODEL 4
REMARK VINA RESULT:      -4.6      1.789      5.212
REMARK  Name = Treosulfan
REMARK  11 active torsions:
REMARK  status: ('A' for Active; 'I' for Inactive)
REMARK    1  A    between atoms: C_1  and  S_2
REMARK    2  A    between atoms: S_2  and  O_5
REMARK    3  A    between atoms: O_5  and  C_6
REMARK    4  A    between atoms: C_6  and  C_7
REMARK    5  A    between atoms: C_7  and  O_8
REMARK    6  A    between atoms: C_7  and  C_9
REMARK    7  A    between atoms: C_9  and  O_10
REMARK    8  A    between atoms: C_9  and  C_11
REMARK    9  A    between atoms: C_11  and  O_12
REMARK   10  A    between atoms: O_12  and  S_13
REMARK   11  A    between atoms: S_13  and  C_14
REMARK                            x       y       z     vdW  Elec       q    Type
REMARK                         _______ _______ _______ _____ _____    ______ ____
ROOT
ATOM      1  C   UNL     1     -11.151   6.104 131.495  0.00  0.00    +0.000 C 
ENDROOT
BRANCH   1   2
ATOM      2  O   UNL     1      -9.926   6.828 131.315  0.00  0.00    +0.000 OA
ATOM      3  H   UNL     1      -9.981   7.665 131.808  0.00  0.00    +0.000 HD
ENDBRANCH   1   2
BRANCH   1   4
ATOM      4  C   UNL     1     -12.312   7.111 131.557  0.00  0.00    +0.000 C 
BRANCH   4   5
ATOM      5  O   UNL     1     -12.998   7.281 130.311  0.00  0.00    +0.000 OA
BRANCH   5   7
ATOM      6  C   UNL     1     -13.602   8.459 128.020  0.00  0.00    +0.000 C 
ATOM      7  S   UNL     1     -12.583   8.629 129.478  0.00  0.00    +0.000 S 
ATOM      8  O   UNL     1     -11.196   8.493 129.089  0.00  0.00    +0.000 OA
ATOM      9  O   UNL     1     -13.055   9.762 130.244  0.00  0.00    +0.000 OA
ENDBRANCH   5   7
ENDBRANCH   4   5
ENDBRANCH   1   4
BRANCH   1  10
ATOM     10  C   UNL     1     -11.323   5.036 130.377  0.00  0.00    +0.000 C 
BRANCH  10  11
ATOM     11  O   UNL     1     -11.053   5.615 129.093  0.00  0.00    +0.000 OA
ATOM     12  H   UNL     1     -11.886   5.940 128.712  0.00  0.00    +0.000 HD
ENDBRANCH  10  11
BRANCH  10  13
ATOM     13  C   UNL     1     -10.370   3.870 130.628  0.00  0.00    +0.000 C 
BRANCH  13  14
ATOM     14  O   UNL     1      -9.547   3.518 129.530  0.00  0.00    +0.000 OA
BRANCH  14  15
ATOM     15  S   UNL     1      -8.005   4.071 129.569  0.00  0.00    +0.000 S 
ATOM     16  C   UNL     1      -7.440   3.418 128.007  0.00  0.00    +0.000 C 
ATOM     17  O   UNL     1      -8.014   5.514 129.465  0.00  0.00    +0.000 OA
ATOM     18  O   UNL     1      -7.298   3.387 130.634  0.00  0.00    +0.000 OA
ENDBRANCH  14  15
ENDBRANCH  13  14
ENDBRANCH  10  13
ENDBRANCH   1  10
TORSDOF 9
ENDMDL
MODEL 5
REMARK VINA RESULT:      -4.6      2.689      5.508
REMARK  Name = Treosulfan
REMARK  11 active torsions:
REMARK  status: ('A' for Active; 'I' for Inactive)
REMARK    1  A    between atoms: C_1  and  S_2
REMARK    2  A    between atoms: S_2  and  O_5
REMARK    3  A    between atoms: O_5  and  C_6
REMARK    4  A    between atoms: C_6  and  C_7
REMARK    5  A    between atoms: C_7  and  O_8
REMARK    6  A    between atoms: C_7  and  C_9
REMARK    7  A    between atoms: C_9  and  O_10
REMARK    8  A    between atoms: C_9  and  C_11
REMARK    9  A    between atoms: C_11  and  O_12
REMARK   10  A    between atoms: O_12  and  S_13
REMARK   11  A    between atoms: S_13  and  C_14
REMARK                            x       y       z     vdW  Elec       q    Type
REMARK                         _______ _______ _______ _____ _____    ______ ____
ROOT
ATOM      1  C   UNL     1     -10.154   5.437 130.709  0.00  0.00    +0.000 C 
ENDROOT
BRANCH   1   2
ATOM      2  O   UNL     1     -10.945   4.399 131.307  0.00  0.00    +0.000 OA
ATOM      3  H   UNL     1     -10.713   3.550 130.892  0.00  0.00    +0.000 HD
ENDBRANCH   1   2
BRANCH   1   4
ATOM      4  C   UNL     1     -11.072   6.315 129.842  0.00  0.00    +0.000 C 
BRANCH   4   5
ATOM      5  O   UNL     1     -10.815   6.211 128.437  0.00  0.00    +0.000 OA
BRANCH   5   7
ATOM      6  C   UNL     1     -12.599   8.101 127.945  0.00  0.00    +0.000 C 
ATOM      7  S   UNL     1     -10.909   7.625 127.615  0.00  0.00    +0.000 S 
ATOM      8  O   UNL     1     -10.782   7.322 126.206  0.00  0.00    +0.000 OA
ATOM      9  O   UNL     1     -10.026   8.560 128.280  0.00  0.00    +0.000 OA
ENDBRANCH   5   7
ENDBRANCH   4   5
ENDBRANCH   1   4
BRANCH   1  10
ATOM     10  C   UNL     1      -9.390   6.238 131.801  0.00  0.00    +0.000 C 
BRANCH  10  11
ATOM     11  O   UNL     1     -10.195   6.361 132.981  0.00  0.00    +0.000 OA
ATOM     12  H   UNL     1      -9.621   6.576 133.735  0.00  0.00    +0.000 HD
ENDBRANCH  10  11
BRANCH  10  13
ATOM     13  C   UNL     1      -8.082   5.527 132.141  0.00  0.00    +0.000 C 
BRANCH  13  14
ATOM     14  O   UNL     1      -8.134   4.113 132.088  0.00  0.00    +0.000 OA
BRANCH  14  15
ATOM     15  S   UNL     1      -8.378   3.338 133.511  0.00  0.00    +0.000 S 
ATOM     16  C   UNL     1      -7.279   4.299 134.538  0.00  0.00    +0.000 C 
ATOM     17  O   UNL     1      -9.731   3.587 133.962  0.00  0.00    +0.000 OA
ATOM     18  O   UNL     1      -7.846   1.995 133.401  0.00  0.00    +0.000 OA
ENDBRANCH  14  15
ENDBRANCH  13  14
ENDBRANCH  10  13
ENDBRANCH   1  10
TORSDOF 9
ENDMDL
MODEL 6
REMARK VINA RESULT:      -4.6      2.856      5.799
REMARK  Name = Treosulfan
REMARK  11 active torsions:
REMARK  status: ('A' for Active; 'I' for Inactive)
REMARK    1  A    between atoms: C_1  and  S_2
REMARK    2  A    between atoms: S_2  and  O_5
REMARK    3  A    between atoms: O_5  and  C_6
REMARK    4  A    between atoms: C_6  and  C_7
REMARK    5  A    between atoms: C_7  and  O_8
REMARK    6  A    between atoms: C_7  and  C_9
REMARK    7  A    between atoms: C_9  and  O_10
REMARK    8  A    between atoms: C_9  and  C_11
REMARK    9  A    between atoms: C_11  and  O_12
REMARK   10  A    between atoms: O_12  and  S_13
REMARK   11  A    between atoms: S_13  and  C_14
REMARK                            x       y       z     vdW  Elec       q    Type
REMARK                         _______ _______ _______ _____ _____    ______ ____
ROOT
ATOM      1  C   UNL     1      -9.920   5.280 130.825  0.00  0.00    +0.000 C 
ENDROOT
BRANCH   1   2
ATOM      2  O   UNL     1     -11.142   4.587 131.118  0.00  0.00    +0.000 OA
ATOM      3  H   UNL     1     -11.073   3.675 130.786  0.00  0.00    +0.000 HD
ENDBRANCH   1   2
BRANCH   1   4
ATOM      4  C   UNL     1     -10.185   6.285 129.692  0.00  0.00    +0.000 C 
BRANCH   4   5
ATOM      5  O   UNL     1     -10.845   7.481 130.122  0.00  0.00    +0.000 OA
BRANCH   5   7
ATOM      6  C   UNL     1     -12.919   9.049 129.629  0.00  0.00    +0.000 C 
ATOM      7  S   UNL     1     -12.481   7.393 130.138  0.00  0.00    +0.000 S 
ATOM      8  O   UNL     1     -12.896   7.208 131.512  0.00  0.00    +0.000 OA
ATOM      9  O   UNL     1     -12.865   6.470 129.092  0.00  0.00    +0.000 OA
ENDBRANCH   5   7
ENDBRANCH   4   5
ENDBRANCH   1   4
BRANCH   1  10
ATOM     10  C   UNL     1      -9.346   5.940 132.111  0.00  0.00    +0.000 C 
BRANCH  10  11
ATOM     11  O   UNL     1     -10.413   6.396 132.953  0.00  0.00    +0.000 OA
ATOM     12  H   UNL     1     -10.928   5.629 133.254  0.00  0.00    +0.000 HD
ENDBRANCH  10  11
BRANCH  10  13
ATOM     13  C   UNL     1      -8.486   4.931 132.869  0.00  0.00    +0.000 C 
BRANCH  13  14
ATOM     14  O   UNL     1      -9.091   3.669 133.087  0.00  0.00    +0.000 OA
BRANCH  14  15
ATOM     15  S   UNL     1      -8.292   2.366 132.498  0.00  0.00    +0.000 S 
ATOM     16  C   UNL     1      -9.694   1.413 131.941  0.00  0.00    +0.000 C 
ATOM     17  O   UNL     1      -7.536   2.760 131.328  0.00  0.00    +0.000 OA
ATOM     18  O   UNL     1      -7.673   1.667 133.606  0.00  0.00    +0.000 OA
ENDBRANCH  14  15
ENDBRANCH  13  14
ENDBRANCH  10  13
ENDBRANCH   1  10
TORSDOF 9
ENDMDL
MODEL 7
REMARK VINA RESULT:      -4.6      2.221      4.832
REMARK  Name = Treosulfan
REMARK  11 active torsions:
REMARK  status: ('A' for Active; 'I' for Inactive)
REMARK    1  A    between atoms: C_1  and  S_2
REMARK    2  A    between atoms: S_2  and  O_5
REMARK    3  A    between atoms: O_5  and  C_6
REMARK    4  A    between atoms: C_6  and  C_7
REMARK    5  A    between atoms: C_7  and  O_8
REMARK    6  A    between atoms: C_7  and  C_9
REMARK    7  A    between atoms: C_9  and  O_10
REMARK    8  A    between atoms: C_9  and  C_11
REMARK    9  A    between atoms: C_11  and  O_12
REMARK   10  A    between atoms: O_12  and  S_13
REMARK   11  A    between atoms: S_13  and  C_14
REMARK                            x       y       z     vdW  Elec       q    Type
REMARK                         _______ _______ _______ _____ _____    ______ ____
ROOT
ATOM      1  C   UNL     1     -10.910   6.101 131.580  0.00  0.00    +0.000 C 
ENDROOT
BRANCH   1   2
ATOM      2  O   UNL     1      -9.915   6.442 132.556  0.00  0.00    +0.000 OA
ATOM      3  H   UNL     1     -10.190   7.255 133.014  0.00  0.00    +0.000 HD
ENDBRANCH   1   2
BRANCH   1   4
ATOM      4  C   UNL     1     -11.102   7.300 130.636  0.00  0.00    +0.000 C 
BRANCH   4   5
ATOM      5  O   UNL     1     -12.364   7.308 129.959  0.00  0.00    +0.000 OA
BRANCH   5   7
ATOM      6  C   UNL     1     -10.641   8.396 128.270  0.00  0.00    +0.000 C 
ATOM      7  S   UNL     1     -12.288   7.712 128.373  0.00  0.00    +0.000 S 
ATOM      8  O   UNL     1     -13.243   8.775 128.146  0.00  0.00    +0.000 OA
ATOM      9  O   UNL     1     -12.326   6.476 127.620  0.00  0.00    +0.000 OA
ENDBRANCH   5   7
ENDBRANCH   4   5
ENDBRANCH   1   4
BRANCH   1  10
ATOM     10  C   UNL     1     -10.520   4.791 130.838  0.00  0.00    +0.000 C 
BRANCH  10  11
ATOM     11  O   UNL     1     -11.522   4.453 129.870  0.00  0.00    +0.000 OA
ATOM     12  H   UNL     1     -11.499   5.105 129.150  0.00  0.00    +0.000 HD
ENDBRANCH  10  11
BRANCH  10  13
ATOM     13  C   UNL     1      -9.173   4.975 130.143  0.00  0.00    +0.000 C 
BRANCH  13  14
ATOM     14  O   UNL     1      -8.044   4.923 130.996  0.00  0.00    +0.000 OA
BRANCH  14  15
ATOM     15  S   UNL     1      -6.927   6.106 130.800  0.00  0.00    +0.000 S 
ATOM     16  C   UNL     1      -6.164   6.032 132.412  0.00  0.00    +0.000 C 
ATOM     17  O   UNL     1      -5.944   5.676 129.829  0.00  0.00    +0.000 OA
ATOM     18  O   UNL     1      -7.617   7.374 130.677  0.00  0.00    +0.000 OA
ENDBRANCH  14  15
ENDBRANCH  13  14
ENDBRANCH  10  13
ENDBRANCH   1  10
TORSDOF 9
ENDMDL
MODEL 8
REMARK VINA RESULT:      -4.5      2.055      2.652
REMARK  Name = Treosulfan
REMARK  11 active torsions:
REMARK  status: ('A' for Active; 'I' for Inactive)
REMARK    1  A    between atoms: C_1  and  S_2
REMARK    2  A    between atoms: S_2  and  O_5
REMARK    3  A    between atoms: O_5  and  C_6
REMARK    4  A    between atoms: C_6  and  C_7
REMARK    5  A    between atoms: C_7  and  O_8
REMARK    6  A    between atoms: C_7  and  C_9
REMARK    7  A    between atoms: C_9  and  O_10
REMARK    8  A    between atoms: C_9  and  C_11
REMARK    9  A    between atoms: C_11  and  O_12
REMARK   10  A    between atoms: O_12  and  S_13
REMARK   11  A    between atoms: S_13  and  C_14
REMARK                            x       y       z     vdW  Elec       q    Type
REMARK                         _______ _______ _______ _____ _____    ______ ____
ROOT
ATOM      1  C   UNL     1     -10.186   5.218 130.749  0.00  0.00    +0.000 C 
ENDROOT
BRANCH   1   2
ATOM      2  O   UNL     1      -9.831   4.769 129.434  0.00  0.00    +0.000 OA
ATOM      3  H   UNL     1     -10.646   4.612 128.925  0.00  0.00    +0.000 HD
ENDBRANCH   1   2
BRANCH   1   4
ATOM      4  C   UNL     1      -8.990   4.983 131.687  0.00  0.00    +0.000 C 
BRANCH   4   5
ATOM      5  O   UNL     1      -8.314   6.185 132.076  0.00  0.00    +0.000 OA
BRANCH   5   7
ATOM      6  C   UNL     1      -6.581   4.752 130.681  0.00  0.00    +0.000 C 
ATOM      7  S   UNL     1      -6.758   6.289 131.574  0.00  0.00    +0.000 S 
ATOM      8  O   UNL     1      -5.915   6.238 132.749  0.00  0.00    +0.000 OA
ATOM      9  O   UNL     1      -6.690   7.384 130.631  0.00  0.00    +0.000 OA
ENDBRANCH   5   7
ENDBRANCH   4   5
ENDBRANCH   1   4
BRANCH   1  10
ATOM     10  C   UNL     1     -10.656   6.700 130.712  0.00  0.00    +0.000 C 
BRANCH  10  11
ATOM     11  O   UNL     1      -9.679   7.513 130.048  0.00  0.00    +0.000 OA
ATOM     12  H   UNL     1      -9.801   8.438 130.317  0.00  0.00    +0.000 HD
ENDBRANCH  10  11
BRANCH  10  13
ATOM     13  C   UNL     1     -11.992   6.798 129.979  0.00  0.00    +0.000 C 
BRANCH  13  14
ATOM     14  O   UNL     1     -11.992   6.294 128.656  0.00  0.00    +0.000 OA
BRANCH  14  15
ATOM     15  S   UNL     1     -12.120   7.400 127.454  0.00  0.00    +0.000 S 
ATOM     16  C   UNL     1     -13.508   8.330 128.084  0.00  0.00    +0.000 C 
ATOM     17  O   UNL     1     -10.962   8.268 127.481  0.00  0.00    +0.000 OA
ATOM     18  O   UNL     1     -12.535   6.719 126.245  0.00  0.00    +0.000 OA
ENDBRANCH  14  15
ENDBRANCH  13  14
ENDBRANCH  10  13
ENDBRANCH   1  10
TORSDOF 9
ENDMDL
MODEL 9
REMARK VINA RESULT:      -4.5      2.877      3.707
REMARK  Name = Treosulfan
REMARK  11 active torsions:
REMARK  status: ('A' for Active; 'I' for Inactive)
REMARK    1  A    between atoms: C_1  and  S_2
REMARK    2  A    between atoms: S_2  and  O_5
REMARK    3  A    between atoms: O_5  and  C_6
REMARK    4  A    between atoms: C_6  and  C_7
REMARK    5  A    between atoms: C_7  and  O_8
REMARK    6  A    between atoms: C_7  and  C_9
REMARK    7  A    between atoms: C_9  and  O_10
REMARK    8  A    between atoms: C_9  and  C_11
REMARK    9  A    between atoms: C_11  and  O_12
REMARK   10  A    between atoms: O_12  and  S_13
REMARK   11  A    between atoms: S_13  and  C_14
REMARK                            x       y       z     vdW  Elec       q    Type
REMARK                         _______ _______ _______ _____ _____    ______ ____
ROOT
ATOM      1  C   UNL     1      -9.782   6.373 131.647  0.00  0.00    +0.000 C 
ENDROOT
BRANCH   1   2
ATOM      2  O   UNL     1     -10.561   6.429 132.851  0.00  0.00    +0.000 OA
ATOM      3  H   UNL     1     -11.253   5.746 132.808  0.00  0.00    +0.000 HD
ENDBRANCH   1   2
BRANCH   1   4
ATOM      4  C   UNL     1      -8.332   6.016 132.016  0.00  0.00    +0.000 C 
BRANCH   4   5
ATOM      5  O   UNL     1      -8.095   4.609 132.141  0.00  0.00    +0.000 OA
BRANCH   5   7
ATOM      6  C   UNL     1      -7.627   5.480 134.595  0.00  0.00    +0.000 C 
ATOM      7  S   UNL     1      -8.145   4.039 133.676  0.00  0.00    +0.000 S 
ATOM      8  O   UNL     1      -7.122   3.023 133.798  0.00  0.00    +0.000 OA
ATOM      9  O   UNL     1      -9.533   3.767 133.981  0.00  0.00    +0.000 OA
ENDBRANCH   5   7
ENDBRANCH   4   5
ENDBRANCH   1   4
BRANCH   1  10
ATOM     10  C   UNL     1     -10.418   5.381 130.631  0.00  0.00    +0.000 C 
BRANCH  10  11
ATOM     11  O   UNL     1     -10.841   4.187 131.303  0.00  0.00    +0.000 OA
ATOM     12  H   UNL     1     -10.352   4.105 132.138  0.00  0.00    +0.000 HD
ENDBRANCH  10  11
BRANCH  10  13
ATOM     13  C   UNL     1     -11.615   6.041 129.949  0.00  0.00    +0.000 C 
BRANCH  13  14
ATOM     14  O   UNL     1     -11.719   7.441 130.136  0.00  0.00    +0.000 OA
BRANCH  14  15
ATOM     15  S   UNL     1     -11.780   8.355 128.778  0.00  0.00    +0.000 S 
ATOM     16  C   UNL     1     -12.516   7.160 127.676  0.00  0.00    +0.000 C 
ATOM     17  O   UNL     1     -12.735   9.426 128.967  0.00  0.00    +0.000 OA
ATOM     18  O   UNL     1     -10.424   8.612 128.336  0.00  0.00    +0.000 OA
ENDBRANCH  14  15
ENDBRANCH  13  14
ENDBRANCH  10  13
ENDBRANCH   1  10
TORSDOF 9
ENDMDL
