MODEL 1
REMARK VINA RESULT:      -7.3      0.000      0.000
REMARK  Name = Treprostinil
REMARK  14 active torsions:
REMARK  status: ('A' for Active; 'I' for Inactive)
REMARK    1  A    between atoms: C_4  and  O_5
REMARK    2  A    between atoms: C_6  and  C_7
REMARK    3  A    between atoms: C_7  and  C_8
REMARK    4  A    between atoms: C_8  and  C_9
REMARK    5  A    between atoms: C_9  and  O_10
REMARK    6  A    between atoms: C_9  and  C_11
REMARK    7  A    between atoms: C_11  and  C_12
REMARK    8  A    between atoms: C_12  and  C_13
REMARK    9  A    between atoms: C_13  and  C_14
REMARK   10  A    between atoms: C_14  and  C_15
REMARK   11  A    between atoms: C_22  and  O_23
REMARK   12  A    between atoms: O_23  and  C_24
REMARK   13  A    between atoms: C_24  and  C_25
REMARK   14  A    between atoms: C_25  and  O_26
REMARK                            x       y       z     vdW  Elec       q    Type
REMARK                         _______ _______ _______ _____ _____    ______ ____
ROOT
ATOM      1  C   UNL     1      -6.479   1.872 126.333  0.00  0.00    +0.000 C 
ATOM      2  C   UNL     1      -7.229   2.836 127.239  0.00  0.00    +0.000 C 
ATOM      3  C   UNL     1      -7.855   1.907 128.279  0.00  0.00    +0.000 C 
ATOM      4  C   UNL     1      -7.860   0.481 127.655  0.00  0.00    +0.000 C 
ATOM      5  C   UNL     1      -7.397   0.685 126.198  0.00  0.00    +0.000 C 
ATOM      6  C   UNL     1      -8.596   1.025 125.297  0.00  0.00    +0.000 C 
ATOM      7  C   UNL     1      -8.265   1.836 124.067  0.00  0.00    +0.000 A 
ATOM      8  C   UNL     1      -7.063   2.579 123.948  0.00  0.00    +0.000 A 
ATOM      9  C   UNL     1      -6.047   2.427 125.025  0.00  0.00    +0.000 C 
ATOM     10  C   UNL     1      -6.819   3.370 122.802  0.00  0.00    +0.000 A 
ATOM     11  C   UNL     1      -7.810   3.411 121.812  0.00  0.00    +0.000 A 
ATOM     12  C   UNL     1      -9.004   2.691 121.939  0.00  0.00    +0.000 A 
ATOM     13  C   UNL     1      -9.234   1.912 123.064  0.00  0.00    +0.000 A 
ENDROOT
BRANCH   3  14
ATOM     14  O   UNL     1      -9.162   2.333 128.618  0.00  0.00    +0.000 OA
ATOM     15  H   UNL     1      -9.115   2.863 129.429  0.00  0.00    +0.000 HD
ENDBRANCH   3  14
BRANCH   4  16
ATOM     16  C   UNL     1      -6.943  -0.511 128.386  0.00  0.00    +0.000 C 
BRANCH  16  17
ATOM     17  C   UNL     1      -7.672  -1.591 129.176  0.00  0.00    +0.000 C 
BRANCH  17  18
ATOM     18  C   UNL     1      -7.451  -2.973 128.623  0.00  0.00    +0.000 C 
BRANCH  18  19
ATOM     19  O   UNL     1      -6.911  -3.798 129.648  0.00  0.00    +0.000 OA
ATOM     20  H   UNL     1      -7.551  -3.821 130.381  0.00  0.00    +0.000 HD
ENDBRANCH  18  19
BRANCH  18  21
ATOM     21  C   UNL     1      -8.802  -3.506 128.165  0.00  0.00    +0.000 C 
BRANCH  21  22
ATOM     22  C   UNL     1      -8.733  -3.833 126.692  0.00  0.00    +0.000 C 
BRANCH  22  23
ATOM     23  C   UNL     1      -9.149  -2.633 125.867  0.00  0.00    +0.000 C 
BRANCH  23  24
ATOM     24  C   UNL     1      -8.442  -2.673 124.522  0.00  0.00    +0.000 C 
ATOM     25  C   UNL     1      -9.401  -3.122 123.442  0.00  0.00    +0.000 C 
ENDBRANCH  23  24
ENDBRANCH  22  23
ENDBRANCH  21  22
ENDBRANCH  18  21
ENDBRANCH  17  18
ENDBRANCH  16  17
ENDBRANCH   4  16
BRANCH  10  26
ATOM     26  O   UNL     1      -5.697   4.126 122.498  0.00  0.00    +0.000 OA
BRANCH  26  27
ATOM     27  C   UNL     1      -5.153   4.037 121.187  0.00  0.00    +0.000 C 
BRANCH  27  28
ATOM     28  C   UNL     1      -4.973   5.298 120.381  0.00  0.00    +0.000 C 
ATOM     29  O   UNL     1      -5.474   5.452 119.268  0.00  0.00    +0.000 OA
BRANCH  28  30
ATOM     30  O   UNL     1      -4.194   6.212 120.982  0.00  0.00    +0.000 OA
ATOM     31  H   UNL     1      -3.265   5.895 120.991  0.00  0.00    +0.000 HD
ENDBRANCH  28  30
ENDBRANCH  27  28
ENDBRANCH  26  27
ENDBRANCH  10  26
TORSDOF 13
ENDMDL
MODEL 2
REMARK VINA RESULT:      -7.0      5.201     10.209
REMARK  Name = Treprostinil
REMARK  14 active torsions:
REMARK  status: ('A' for Active; 'I' for Inactive)
REMARK    1  A    between atoms: C_4  and  O_5
REMARK    2  A    between atoms: C_6  and  C_7
REMARK    3  A    between atoms: C_7  and  C_8
REMARK    4  A    between atoms: C_8  and  C_9
REMARK    5  A    between atoms: C_9  and  O_10
REMARK    6  A    between atoms: C_9  and  C_11
REMARK    7  A    between atoms: C_11  and  C_12
REMARK    8  A    between atoms: C_12  and  C_13
REMARK    9  A    between atoms: C_13  and  C_14
REMARK   10  A    between atoms: C_14  and  C_15
REMARK   11  A    between atoms: C_22  and  O_23
REMARK   12  A    between atoms: O_23  and  C_24
REMARK   13  A    between atoms: C_24  and  C_25
REMARK   14  A    between atoms: C_25  and  O_26
REMARK                            x       y       z     vdW  Elec       q    Type
REMARK                         _______ _______ _______ _____ _____    ______ ____
ROOT
ATOM      1  C   UNL     1      -7.432  -1.819 130.344  0.00  0.00    +0.000 C 
ATOM      2  C   UNL     1      -6.229  -0.981 129.938  0.00  0.00    +0.000 C 
ATOM      3  C   UNL     1      -6.196  -1.147 128.419  0.00  0.00    +0.000 C 
ATOM      4  C   UNL     1      -7.025  -2.424 128.095  0.00  0.00    +0.000 C 
ATOM      5  C   UNL     1      -7.354  -3.043 129.468  0.00  0.00    +0.000 C 
ATOM      6  C   UNL     1      -6.213  -3.966 129.926  0.00  0.00    +0.000 C 
ATOM      7  C   UNL     1      -6.079  -4.129 131.421  0.00  0.00    +0.000 A 
ATOM      8  C   UNL     1      -6.653  -3.212 132.340  0.00  0.00    +0.000 A 
ATOM      9  C   UNL     1      -7.530  -2.141 131.790  0.00  0.00    +0.000 C 
ATOM     10  C   UNL     1      -6.456  -3.370 133.730  0.00  0.00    +0.000 A 
ATOM     11  C   UNL     1      -5.659  -4.440 134.160  0.00  0.00    +0.000 A 
ATOM     12  C   UNL     1      -5.079  -5.333 133.252  0.00  0.00    +0.000 A 
ATOM     13  C   UNL     1      -5.282  -5.175 131.889  0.00  0.00    +0.000 A 
ENDROOT
BRANCH   3  14
ATOM     14  O   UNL     1      -4.863  -1.258 127.951  0.00  0.00    +0.000 OA
ATOM     15  H   UNL     1      -4.860  -1.121 126.992  0.00  0.00    +0.000 HD
ENDBRANCH   3  14
BRANCH   4  16
ATOM     16  C   UNL     1      -8.311  -2.134 127.304  0.00  0.00    +0.000 C 
BRANCH  16  17
ATOM     17  C   UNL     1      -8.976  -3.363 126.695  0.00  0.00    +0.000 C 
BRANCH  17  18
ATOM     18  C   UNL     1      -9.148  -3.258 125.204  0.00  0.00    +0.000 C 
BRANCH  18  19
ATOM     19  O   UNL     1      -9.228  -1.883 124.845  0.00  0.00    +0.000 OA
ATOM     20  H   UNL     1      -8.474  -1.683 124.262  0.00  0.00    +0.000 HD
ENDBRANCH  18  19
BRANCH  18  21
ATOM     21  C   UNL     1      -7.933  -3.909 124.555  0.00  0.00    +0.000 C 
BRANCH  21  22
ATOM     22  C   UNL     1      -7.055  -2.835 123.956  0.00  0.00    +0.000 C 
BRANCH  22  23
ATOM     23  C   UNL     1      -5.659  -2.912 124.539  0.00  0.00    +0.000 C 
BRANCH  23  24
ATOM     24  C   UNL     1      -4.674  -3.290 123.446  0.00  0.00    +0.000 C 
ATOM     25  C   UNL     1      -4.312  -4.755 123.553  0.00  0.00    +0.000 C 
ENDBRANCH  23  24
ENDBRANCH  22  23
ENDBRANCH  21  22
ENDBRANCH  18  21
ENDBRANCH  17  18
ENDBRANCH  16  17
ENDBRANCH   4  16
BRANCH  10  26
ATOM     26  O   UNL     1      -6.964  -2.603 134.767  0.00  0.00    +0.000 OA
BRANCH  26  27
ATOM     27  C   UNL     1      -7.253  -3.241 136.005  0.00  0.00    +0.000 C 
BRANCH  27  28
ATOM     28  C   UNL     1      -8.692  -3.419 136.418  0.00  0.00    +0.000 C 
ATOM     29  O   UNL     1      -9.261  -2.650 137.192  0.00  0.00    +0.000 OA
BRANCH  28  30
ATOM     30  O   UNL     1      -9.271  -4.508 135.886  0.00  0.00    +0.000 OA
ATOM     31  H   UNL     1      -8.794  -5.311 136.186  0.00  0.00    +0.000 HD
ENDBRANCH  28  30
ENDBRANCH  27  28
ENDBRANCH  26  27
ENDBRANCH  10  26
TORSDOF 13
ENDMDL
MODEL 3
REMARK VINA RESULT:      -7.0      2.935      5.127
REMARK  Name = Treprostinil
REMARK  14 active torsions:
REMARK  status: ('A' for Active; 'I' for Inactive)
REMARK    1  A    between atoms: C_4  and  O_5
REMARK    2  A    between atoms: C_6  and  C_7
REMARK    3  A    between atoms: C_7  and  C_8
REMARK    4  A    between atoms: C_8  and  C_9
REMARK    5  A    between atoms: C_9  and  O_10
REMARK    6  A    between atoms: C_9  and  C_11
REMARK    7  A    between atoms: C_11  and  C_12
REMARK    8  A    between atoms: C_12  and  C_13
REMARK    9  A    between atoms: C_13  and  C_14
REMARK   10  A    between atoms: C_14  and  C_15
REMARK   11  A    between atoms: C_22  and  O_23
REMARK   12  A    between atoms: O_23  and  C_24
REMARK   13  A    between atoms: C_24  and  C_25
REMARK   14  A    between atoms: C_25  and  O_26
REMARK                            x       y       z     vdW  Elec       q    Type
REMARK                         _______ _______ _______ _____ _____    ______ ____
ROOT
ATOM      1  C   UNL     1      -7.670   0.129 125.050  0.00  0.00    +0.000 C 
ATOM      2  C   UNL     1      -9.145   0.491 124.973  0.00  0.00    +0.000 C 
ATOM      3  C   UNL     1      -9.618  -0.274 123.737  0.00  0.00    +0.000 C 
ATOM      4  C   UNL     1      -8.344  -0.607 122.907  0.00  0.00    +0.000 C 
ATOM      5  C   UNL     1      -7.200   0.143 123.619  0.00  0.00    +0.000 C 
ATOM      6  C   UNL     1      -7.098   1.585 123.095  0.00  0.00    +0.000 C 
ATOM      7  C   UNL     1      -6.510   2.581 124.066  0.00  0.00    +0.000 A 
ATOM      8  C   UNL     1      -6.445   2.334 125.461  0.00  0.00    +0.000 A 
ATOM      9  C   UNL     1      -6.846   0.983 125.943  0.00  0.00    +0.000 C 
ATOM     10  C   UNL     1      -5.939   3.316 126.342  0.00  0.00    +0.000 A 
ATOM     11  C   UNL     1      -5.533   4.540 125.793  0.00  0.00    +0.000 A 
ATOM     12  C   UNL     1      -5.615   4.790 124.418  0.00  0.00    +0.000 A 
ATOM     13  C   UNL     1      -6.107   3.818 123.559  0.00  0.00    +0.000 A 
ENDROOT
BRANCH   3  14
ATOM     14  O   UNL     1     -10.542   0.496 122.988  0.00  0.00    +0.000 OA
ATOM     15  H   UNL     1     -10.862  -0.041 122.247  0.00  0.00    +0.000 HD
ENDBRANCH   3  14
BRANCH   4  16
ATOM     16  C   UNL     1      -8.042  -2.112 122.825  0.00  0.00    +0.000 C 
BRANCH  16  17
ATOM     17  C   UNL     1      -9.069  -3.006 123.511  0.00  0.00    +0.000 C 
BRANCH  17  18
ATOM     18  C   UNL     1      -8.522  -3.699 124.729  0.00  0.00    +0.000 C 
BRANCH  18  19
ATOM     19  O   UNL     1      -7.137  -3.396 124.849  0.00  0.00    +0.000 OA
ATOM     20  H   UNL     1      -6.848  -3.668 125.738  0.00  0.00    +0.000 HD
ENDBRANCH  18  19
BRANCH  18  21
ATOM     21  C   UNL     1      -9.288  -3.176 125.937  0.00  0.00    +0.000 C 
BRANCH  21  22
ATOM     22  C   UNL     1      -8.317  -2.901 127.061  0.00  0.00    +0.000 C 
BRANCH  22  23
ATOM     23  C   UNL     1      -8.696  -3.701 128.291  0.00  0.00    +0.000 C 
BRANCH  23  24
ATOM     24  C   UNL     1      -8.055  -3.076 129.518  0.00  0.00    +0.000 C 
ATOM     25  C   UNL     1      -6.762  -3.787 129.852  0.00  0.00    +0.000 C 
ENDBRANCH  23  24
ENDBRANCH  22  23
ENDBRANCH  21  22
ENDBRANCH  18  21
ENDBRANCH  17  18
ENDBRANCH  16  17
ENDBRANCH   4  16
BRANCH  10  26
ATOM     26  O   UNL     1      -5.766   3.239 127.716  0.00  0.00    +0.000 OA
BRANCH  26  27
ATOM     27  C   UNL     1      -6.612   4.021 128.551  0.00  0.00    +0.000 C 
BRANCH  27  28
ATOM     28  C   UNL     1      -8.105   3.947 128.356  0.00  0.00    +0.000 C 
ATOM     29  O   UNL     1      -8.748   2.914 128.535  0.00  0.00    +0.000 OA
BRANCH  28  30
ATOM     30  O   UNL     1      -8.648   5.103 127.941  0.00  0.00    +0.000 OA
ATOM     31  H   UNL     1      -7.986   5.823 128.021  0.00  0.00    +0.000 HD
ENDBRANCH  28  30
ENDBRANCH  27  28
ENDBRANCH  26  27
ENDBRANCH  10  26
TORSDOF 13
ENDMDL
MODEL 4
REMARK VINA RESULT:      -7.0      2.936      5.914
REMARK  Name = Treprostinil
REMARK  14 active torsions:
REMARK  status: ('A' for Active; 'I' for Inactive)
REMARK    1  A    between atoms: C_4  and  O_5
REMARK    2  A    between atoms: C_6  and  C_7
REMARK    3  A    between atoms: C_7  and  C_8
REMARK    4  A    between atoms: C_8  and  C_9
REMARK    5  A    between atoms: C_9  and  O_10
REMARK    6  A    between atoms: C_9  and  C_11
REMARK    7  A    between atoms: C_11  and  C_12
REMARK    8  A    between atoms: C_12  and  C_13
REMARK    9  A    between atoms: C_13  and  C_14
REMARK   10  A    between atoms: C_14  and  C_15
REMARK   11  A    between atoms: C_22  and  O_23
REMARK   12  A    between atoms: O_23  and  C_24
REMARK   13  A    between atoms: C_24  and  C_25
REMARK   14  A    between atoms: C_25  and  O_26
REMARK                            x       y       z     vdW  Elec       q    Type
REMARK                         _______ _______ _______ _____ _____    ______ ____
ROOT
ATOM      1  C   UNL     1      -8.878   1.161 125.515  0.00  0.00    +0.000 C 
ATOM      2  C   UNL     1      -9.224   2.474 124.830  0.00  0.00    +0.000 C 
ATOM      3  C   UNL     1      -9.304   2.079 123.356  0.00  0.00    +0.000 C 
ATOM      4  C   UNL     1      -8.531   0.735 123.215  0.00  0.00    +0.000 C 
ATOM      5  C   UNL     1      -7.881   0.505 124.594  0.00  0.00    +0.000 C 
ATOM      6  C   UNL     1      -6.521   1.217 124.671  0.00  0.00    +0.000 C 
ATOM      7  C   UNL     1      -6.081   1.614 126.060  0.00  0.00    +0.000 A 
ATOM      8  C   UNL     1      -6.989   1.716 127.144  0.00  0.00    +0.000 A 
ATOM      9  C   UNL     1      -8.393   1.276 126.913  0.00  0.00    +0.000 C 
ATOM     10  C   UNL     1      -6.545   2.146 128.415  0.00  0.00    +0.000 A 
ATOM     11  C   UNL     1      -5.193   2.488 128.554  0.00  0.00    +0.000 A 
ATOM     12  C   UNL     1      -4.301   2.405 127.479  0.00  0.00    +0.000 A 
ATOM     13  C   UNL     1      -4.744   1.976 126.235  0.00  0.00    +0.000 A 
ENDROOT
BRANCH   3  14
ATOM     14  O   UNL     1      -8.751   3.087 122.530  0.00  0.00    +0.000 OA
ATOM     15  H   UNL     1      -7.843   3.263 122.822  0.00  0.00    +0.000 HD
ENDBRANCH   3  14
BRANCH   4  16
ATOM     16  C   UNL     1      -9.430  -0.451 122.830  0.00  0.00    +0.000 C 
BRANCH  16  17
ATOM     17  C   UNL     1      -8.737  -1.809 122.849  0.00  0.00    +0.000 C 
BRANCH  17  18
ATOM     18  C   UNL     1      -9.234  -2.705 123.950  0.00  0.00    +0.000 C 
BRANCH  18  19
ATOM     19  O   UNL     1     -10.182  -3.618 123.409  0.00  0.00    +0.000 OA
ATOM     20  H   UNL     1     -10.501  -3.250 122.565  0.00  0.00    +0.000 HD
ENDBRANCH  18  19
BRANCH  18  21
ATOM     21  C   UNL     1      -8.032  -3.455 124.510  0.00  0.00    +0.000 C 
BRANCH  21  22
ATOM     22  C   UNL     1      -6.770  -2.908 123.884  0.00  0.00    +0.000 C 
BRANCH  22  23
ATOM     23  C   UNL     1      -5.769  -2.537 124.959  0.00  0.00    +0.000 C 
BRANCH  23  24
ATOM     24  C   UNL     1      -6.496  -2.318 126.275  0.00  0.00    +0.000 C 
ATOM     25  C   UNL     1      -5.538  -1.790 127.319  0.00  0.00    +0.000 C 
ENDBRANCH  23  24
ENDBRANCH  22  23
ENDBRANCH  21  22
ENDBRANCH  18  21
ENDBRANCH  17  18
ENDBRANCH  16  17
ENDBRANCH   4  16
BRANCH  10  26
ATOM     26  O   UNL     1      -7.273   2.270 129.589  0.00  0.00    +0.000 OA
BRANCH  26  27
ATOM     27  C   UNL     1      -7.681   3.568 130.000  0.00  0.00    +0.000 C 
BRANCH  27  28
ATOM     28  C   UNL     1      -8.778   4.267 129.238  0.00  0.00    +0.000 C 
ATOM     29  O   UNL     1      -8.556   4.990 128.268  0.00  0.00    +0.000 OA
BRANCH  28  30
ATOM     30  O   UNL     1     -10.004   4.047 129.741  0.00  0.00    +0.000 OA
ATOM     31  H   UNL     1      -9.970   3.293 130.368  0.00  0.00    +0.000 HD
ENDBRANCH  28  30
ENDBRANCH  27  28
ENDBRANCH  26  27
ENDBRANCH  10  26
TORSDOF 13
ENDMDL
MODEL 5
REMARK VINA RESULT:      -6.9      4.232      6.769
REMARK  Name = Treprostinil
REMARK  14 active torsions:
REMARK  status: ('A' for Active; 'I' for Inactive)
REMARK    1  A    between atoms: C_4  and  O_5
REMARK    2  A    between atoms: C_6  and  C_7
REMARK    3  A    between atoms: C_7  and  C_8
REMARK    4  A    between atoms: C_8  and  C_9
REMARK    5  A    between atoms: C_9  and  O_10
REMARK    6  A    between atoms: C_9  and  C_11
REMARK    7  A    between atoms: C_11  and  C_12
REMARK    8  A    between atoms: C_12  and  C_13
REMARK    9  A    between atoms: C_13  and  C_14
REMARK   10  A    between atoms: C_14  and  C_15
REMARK   11  A    between atoms: C_22  and  O_23
REMARK   12  A    between atoms: O_23  and  C_24
REMARK   13  A    between atoms: C_24  and  C_25
REMARK   14  A    between atoms: C_25  and  O_26
REMARK                            x       y       z     vdW  Elec       q    Type
REMARK                         _______ _______ _______ _____ _____    ______ ____
ROOT
ATOM      1  C   UNL     1      -7.686   0.428 127.818  0.00  0.00    +0.000 C 
ATOM      2  C   UNL     1      -6.192   0.690 127.922  0.00  0.00    +0.000 C 
ATOM      3  C   UNL     1      -5.591  -0.710 127.788  0.00  0.00    +0.000 C 
ATOM      4  C   UNL     1      -6.733  -1.715 128.116  0.00  0.00    +0.000 C 
ATOM      5  C   UNL     1      -7.905  -0.839 128.603  0.00  0.00    +0.000 C 
ATOM      6  C   UNL     1      -7.783  -0.571 130.112  0.00  0.00    +0.000 C 
ATOM      7  C   UNL     1      -8.429   0.706 130.592  0.00  0.00    +0.000 A 
ATOM      8  C   UNL     1      -8.751   1.772 129.713  0.00  0.00    +0.000 A 
ATOM      9  C   UNL     1      -8.564   1.544 128.253  0.00  0.00    +0.000 C 
ATOM     10  C   UNL     1      -9.304   2.973 130.212  0.00  0.00    +0.000 A 
ATOM     11  C   UNL     1      -9.495   3.079 131.596  0.00  0.00    +0.000 A 
ATOM     12  C   UNL     1      -9.160   2.034 132.465  0.00  0.00    +0.000 A 
ATOM     13  C   UNL     1      -8.623   0.855 131.967  0.00  0.00    +0.000 A 
ENDROOT
BRANCH   3  14
ATOM     14  O   UNL     1      -4.487  -0.872 128.660  0.00  0.00    +0.000 OA
ATOM     15  H   UNL     1      -4.691  -1.582 129.288  0.00  0.00    +0.000 HD
ENDBRANCH   3  14
BRANCH   4  16
ATOM     16  C   UNL     1      -7.156  -2.574 126.914  0.00  0.00    +0.000 C 
BRANCH  16  17
ATOM     17  C   UNL     1      -8.523  -3.235 127.052  0.00  0.00    +0.000 C 
BRANCH  17  18
ATOM     18  C   UNL     1      -9.384  -3.063 125.829  0.00  0.00    +0.000 C 
BRANCH  18  19
ATOM     19  O   UNL     1      -9.751  -1.693 125.714  0.00  0.00    +0.000 OA
ATOM     20  H   UNL     1     -10.523  -1.641 125.123  0.00  0.00    +0.000 HD
ENDBRANCH  18  19
BRANCH  18  21
ATOM     21  C   UNL     1      -8.561  -3.498 124.624  0.00  0.00    +0.000 C 
BRANCH  21  22
ATOM     22  C   UNL     1      -9.257  -3.052 123.360  0.00  0.00    +0.000 C 
BRANCH  22  23
ATOM     23  C   UNL     1      -8.383  -2.082 122.593  0.00  0.00    +0.000 C 
BRANCH  23  24
ATOM     24  C   UNL     1      -7.032  -1.966 123.279  0.00  0.00    +0.000 C 
ATOM     25  C   UNL     1      -6.812  -0.549 123.762  0.00  0.00    +0.000 C 
ENDBRANCH  23  24
ENDBRANCH  22  23
ENDBRANCH  21  22
ENDBRANCH  18  21
ENDBRANCH  17  18
ENDBRANCH  16  17
ENDBRANCH   4  16
BRANCH  10  26
ATOM     26  O   UNL     1      -9.711   4.095 129.507  0.00  0.00    +0.000 OA
BRANCH  26  27
ATOM     27  C   UNL     1     -10.000   5.284 130.231  0.00  0.00    +0.000 C 
BRANCH  27  28
ATOM     28  C   UNL     1     -11.422   5.781 130.287  0.00  0.00    +0.000 C 
ATOM     29  O   UNL     1     -11.956   6.153 131.330  0.00  0.00    +0.000 OA
BRANCH  28  30
ATOM     30  O   UNL     1     -12.048   5.746 129.098  0.00  0.00    +0.000 OA
ATOM     31  H   UNL     1     -12.311   6.655 128.841  0.00  0.00    +0.000 HD
ENDBRANCH  28  30
ENDBRANCH  27  28
ENDBRANCH  26  27
ENDBRANCH  10  26
TORSDOF 13
ENDMDL
MODEL 6
REMARK VINA RESULT:      -6.9      4.237      9.220
REMARK  Name = Treprostinil
REMARK  14 active torsions:
REMARK  status: ('A' for Active; 'I' for Inactive)
REMARK    1  A    between atoms: C_4  and  O_5
REMARK    2  A    between atoms: C_6  and  C_7
REMARK    3  A    between atoms: C_7  and  C_8
REMARK    4  A    between atoms: C_8  and  C_9
REMARK    5  A    between atoms: C_9  and  O_10
REMARK    6  A    between atoms: C_9  and  C_11
REMARK    7  A    between atoms: C_11  and  C_12
REMARK    8  A    between atoms: C_12  and  C_13
REMARK    9  A    between atoms: C_13  and  C_14
REMARK   10  A    between atoms: C_14  and  C_15
REMARK   11  A    between atoms: C_22  and  O_23
REMARK   12  A    between atoms: O_23  and  C_24
REMARK   13  A    between atoms: C_24  and  C_25
REMARK   14  A    between atoms: C_25  and  O_26
REMARK                            x       y       z     vdW  Elec       q    Type
REMARK                         _______ _______ _______ _____ _____    ______ ____
ROOT
ATOM      1  C   UNL     1      -8.040  -1.811 128.821  0.00  0.00    +0.000 C 
ATOM      2  C   UNL     1      -7.748  -0.326 128.975  0.00  0.00    +0.000 C 
ATOM      3  C   UNL     1      -7.924   0.205 127.553  0.00  0.00    +0.000 C 
ATOM      4  C   UNL     1      -7.808  -1.023 126.603  0.00  0.00    +0.000 C 
ATOM      5  C   UNL     1      -7.388  -2.192 127.517  0.00  0.00    +0.000 C 
ATOM      6  C   UNL     1      -5.859  -2.232 127.666  0.00  0.00    +0.000 C 
ATOM      7  C   UNL     1      -5.354  -2.857 128.945  0.00  0.00    +0.000 A 
ATOM      8  C   UNL     1      -6.177  -3.012 130.091  0.00  0.00    +0.000 A 
ATOM      9  C   UNL     1      -7.619  -2.668 129.957  0.00  0.00    +0.000 C 
ATOM     10  C   UNL     1      -5.649  -3.550 131.286  0.00  0.00    +0.000 A 
ATOM     11  C   UNL     1      -4.291  -3.896 131.304  0.00  0.00    +0.000 A 
ATOM     12  C   UNL     1      -3.476  -3.725 130.179  0.00  0.00    +0.000 A 
ATOM     13  C   UNL     1      -4.003  -3.202 129.006  0.00  0.00    +0.000 A 
ENDROOT
BRANCH   3  14
ATOM     14  O   UNL     1      -6.949   1.188 127.255  0.00  0.00    +0.000 OA
ATOM     15  H   UNL     1      -7.019   1.418 126.316  0.00  0.00    +0.000 HD
ENDBRANCH   3  14
BRANCH   4  16
ATOM     16  C   UNL     1      -9.115  -1.350 125.864  0.00  0.00    +0.000 C 
BRANCH  16  17
ATOM     17  C   UNL     1      -9.297  -2.822 125.511  0.00  0.00    +0.000 C 
BRANCH  17  18
ATOM     18  C   UNL     1      -8.952  -3.129 124.079  0.00  0.00    +0.000 C 
BRANCH  18  19
ATOM     19  O   UNL     1     -10.140  -3.494 123.387  0.00  0.00    +0.000 OA
ATOM     20  H   UNL     1     -10.761  -3.867 124.037  0.00  0.00    +0.000 HD
ENDBRANCH  18  19
BRANCH  18  21
ATOM     21  C   UNL     1      -8.346  -1.870 123.473  0.00  0.00    +0.000 C 
BRANCH  21  22
ATOM     22  C   UNL     1      -6.969  -2.188 122.940  0.00  0.00    +0.000 C 
BRANCH  22  23
ATOM     23  C   UNL     1      -6.186  -2.996 123.955  0.00  0.00    +0.000 C 
BRANCH  23  24
ATOM     24  C   UNL     1      -4.768  -3.204 123.452  0.00  0.00    +0.000 C 
ATOM     25  C   UNL     1      -4.364  -4.653 123.611  0.00  0.00    +0.000 C 
ENDBRANCH  23  24
ENDBRANCH  22  23
ENDBRANCH  21  22
ENDBRANCH  18  21
ENDBRANCH  17  18
ENDBRANCH  16  17
ENDBRANCH   4  16
BRANCH  10  26
ATOM     26  O   UNL     1      -6.303  -3.807 132.481  0.00  0.00    +0.000 OA
BRANCH  26  27
ATOM     27  C   UNL     1      -5.784  -4.817 133.336  0.00  0.00    +0.000 C 
BRANCH  27  28
ATOM     28  C   UNL     1      -6.583  -5.236 134.544  0.00  0.00    +0.000 C 
ATOM     29  O   UNL     1      -6.238  -6.158 135.281  0.00  0.00    +0.000 OA
BRANCH  28  30
ATOM     30  O   UNL     1      -7.713  -4.529 134.710  0.00  0.00    +0.000 OA
ATOM     31  H   UNL     1      -8.394  -4.848 134.080  0.00  0.00    +0.000 HD
ENDBRANCH  28  30
ENDBRANCH  27  28
ENDBRANCH  26  27
ENDBRANCH  10  26
TORSDOF 13
ENDMDL
MODEL 7
REMARK VINA RESULT:      -6.8      2.425      8.127
REMARK  Name = Treprostinil
REMARK  14 active torsions:
REMARK  status: ('A' for Active; 'I' for Inactive)
REMARK    1  A    between atoms: C_4  and  O_5
REMARK    2  A    between atoms: C_6  and  C_7
REMARK    3  A    between atoms: C_7  and  C_8
REMARK    4  A    between atoms: C_8  and  C_9
REMARK    5  A    between atoms: C_9  and  O_10
REMARK    6  A    between atoms: C_9  and  C_11
REMARK    7  A    between atoms: C_11  and  C_12
REMARK    8  A    between atoms: C_12  and  C_13
REMARK    9  A    between atoms: C_13  and  C_14
REMARK   10  A    between atoms: C_14  and  C_15
REMARK   11  A    between atoms: C_22  and  O_23
REMARK   12  A    between atoms: O_23  and  C_24
REMARK   13  A    between atoms: C_24  and  C_25
REMARK   14  A    between atoms: C_25  and  O_26
REMARK                            x       y       z     vdW  Elec       q    Type
REMARK                         _______ _______ _______ _____ _____    ______ ____
ROOT
ATOM      1  C   UNL     1      -6.744  -0.336 125.598  0.00  0.00    +0.000 C 
ATOM      2  C   UNL     1      -5.991  -1.155 124.561  0.00  0.00    +0.000 C 
ATOM      3  C   UNL     1      -6.677  -0.761 123.253  0.00  0.00    +0.000 C 
ATOM      4  C   UNL     1      -8.060  -0.160 123.641  0.00  0.00    +0.000 C 
ATOM      5  C   UNL     1      -8.184  -0.401 125.159  0.00  0.00    +0.000 C 
ATOM      6  C   UNL     1      -8.774  -1.793 125.434  0.00  0.00    +0.000 C 
ATOM      7  C   UNL     1      -8.386  -2.405 126.759  0.00  0.00    +0.000 A 
ATOM      8  C   UNL     1      -7.265  -1.957 127.504  0.00  0.00    +0.000 A 
ATOM      9  C   UNL     1      -6.545  -0.750 127.010  0.00  0.00    +0.000 C 
ATOM     10  C   UNL     1      -6.904  -2.594 128.712  0.00  0.00    +0.000 A 
ATOM     11  C   UNL     1      -7.672  -3.690 129.128  0.00  0.00    +0.000 A 
ATOM     12  C   UNL     1      -8.767  -4.143 128.384  0.00  0.00    +0.000 A 
ATOM     13  C   UNL     1      -9.119  -3.508 127.201  0.00  0.00    +0.000 A 
ENDROOT
BRANCH   3  14
ATOM     14  O   UNL     1      -6.817  -1.881 122.397  0.00  0.00    +0.000 OA
ATOM     15  H   UNL     1      -6.656  -1.596 121.485  0.00  0.00    +0.000 HD
ENDBRANCH   3  14
BRANCH   4  16
ATOM     16  C   UNL     1      -8.191   1.335 123.312  0.00  0.00    +0.000 C 
BRANCH  16  17
ATOM     17  C   UNL     1      -6.915   1.989 122.794  0.00  0.00    +0.000 C 
BRANCH  17  18
ATOM     18  C   UNL     1      -6.984   3.492 122.797  0.00  0.00    +0.000 C 
BRANCH  18  19
ATOM     19  O   UNL     1      -8.129   3.900 123.537  0.00  0.00    +0.000 OA
ATOM     20  H   UNL     1      -8.631   4.526 122.986  0.00  0.00    +0.000 HD
ENDBRANCH  18  19
BRANCH  18  21
ATOM     21  C   UNL     1      -5.711   4.008 123.456  0.00  0.00    +0.000 C 
BRANCH  21  22
ATOM     22  C   UNL     1      -6.078   4.832 124.668  0.00  0.00    +0.000 C 
BRANCH  22  23
ATOM     23  C   UNL     1      -5.240   4.416 125.859  0.00  0.00    +0.000 C 
BRANCH  23  24
ATOM     24  C   UNL     1      -5.475   2.944 126.155  0.00  0.00    +0.000 C 
ATOM     25  C   UNL     1      -4.159   2.247 126.419  0.00  0.00    +0.000 C 
ENDBRANCH  23  24
ENDBRANCH  22  23
ENDBRANCH  21  22
ENDBRANCH  18  21
ENDBRANCH  17  18
ENDBRANCH  16  17
ENDBRANCH   4  16
BRANCH  10  26
ATOM     26  O   UNL     1      -5.873  -2.275 129.583  0.00  0.00    +0.000 OA
BRANCH  26  27
ATOM     27  C   UNL     1      -4.926  -3.283 129.912  0.00  0.00    +0.000 C 
BRANCH  27  28
ATOM     28  C   UNL     1      -3.518  -3.165 129.385  0.00  0.00    +0.000 C 
ATOM     29  O   UNL     1      -2.966  -4.068 128.758  0.00  0.00    +0.000 OA
BRANCH  28  30
ATOM     30  O   UNL     1      -2.926  -1.999 129.693  0.00  0.00    +0.000 OA
ATOM     31  H   UNL     1      -2.328  -1.733 128.962  0.00  0.00    +0.000 HD
ENDBRANCH  28  30
ENDBRANCH  27  28
ENDBRANCH  26  27
ENDBRANCH  10  26
TORSDOF 13
ENDMDL
MODEL 8
REMARK VINA RESULT:      -6.7      3.499      5.624
REMARK  Name = Treprostinil
REMARK  14 active torsions:
REMARK  status: ('A' for Active; 'I' for Inactive)
REMARK    1  A    between atoms: C_4  and  O_5
REMARK    2  A    between atoms: C_6  and  C_7
REMARK    3  A    between atoms: C_7  and  C_8
REMARK    4  A    between atoms: C_8  and  C_9
REMARK    5  A    between atoms: C_9  and  O_10
REMARK    6  A    between atoms: C_9  and  C_11
REMARK    7  A    between atoms: C_11  and  C_12
REMARK    8  A    between atoms: C_12  and  C_13
REMARK    9  A    between atoms: C_13  and  C_14
REMARK   10  A    between atoms: C_14  and  C_15
REMARK   11  A    between atoms: C_22  and  O_23
REMARK   12  A    between atoms: O_23  and  C_24
REMARK   13  A    between atoms: C_24  and  C_25
REMARK   14  A    between atoms: C_25  and  O_26
REMARK                            x       y       z     vdW  Elec       q    Type
REMARK                         _______ _______ _______ _____ _____    ______ ____
ROOT
ATOM      1  C   UNL     1      -7.926  -1.244 127.789  0.00  0.00    +0.000 C 
ATOM      2  C   UNL     1      -8.214  -2.662 128.255  0.00  0.00    +0.000 C 
ATOM      3  C   UNL     1      -7.300  -2.813 129.471  0.00  0.00    +0.000 C 
ATOM      4  C   UNL     1      -6.207  -1.712 129.343  0.00  0.00    +0.000 C 
ATOM      5  C   UNL     1      -6.437  -1.085 127.953  0.00  0.00    +0.000 C 
ATOM      6  C   UNL     1      -5.684  -1.882 126.875  0.00  0.00    +0.000 C 
ATOM      7  C   UNL     1      -6.277  -1.807 125.489  0.00  0.00    +0.000 A 
ATOM      8  C   UNL     1      -7.618  -1.404 125.257  0.00  0.00    +0.000 A 
ATOM      9  C   UNL     1      -8.402  -0.909 126.422  0.00  0.00    +0.000 C 
ATOM     10  C   UNL     1      -8.151  -1.402 123.948  0.00  0.00    +0.000 A 
ATOM     11  C   UNL     1      -7.322  -1.834 122.904  0.00  0.00    +0.000 A 
ATOM     12  C   UNL     1      -6.005  -2.248 123.136  0.00  0.00    +0.000 A 
ATOM     13  C   UNL     1      -5.487  -2.241 124.423  0.00  0.00    +0.000 A 
ENDROOT
BRANCH   3  14
ATOM     14  O   UNL     1      -6.732  -4.109 129.521  0.00  0.00    +0.000 OA
ATOM     15  H   UNL     1      -5.847  -4.074 129.126  0.00  0.00    +0.000 HD
ENDBRANCH   3  14
BRANCH   4  16
ATOM     16  C   UNL     1      -6.284  -0.642 130.444  0.00  0.00    +0.000 C 
BRANCH  16  17
ATOM     17  C   UNL     1      -7.520  -0.728 131.332  0.00  0.00    +0.000 C 
BRANCH  17  18
ATOM     18  C   UNL     1      -8.582   0.270 130.955  0.00  0.00    +0.000 C 
BRANCH  18  19
ATOM     19  O   UNL     1      -9.638   0.199 131.906  0.00  0.00    +0.000 OA
ATOM     20  H   UNL     1      -9.481   0.887 132.577  0.00  0.00    +0.000 HD
ENDBRANCH  18  19
BRANCH  18  21
ATOM     21  C   UNL     1      -7.941   1.651 130.971  0.00  0.00    +0.000 C 
BRANCH  21  22
ATOM     22  C   UNL     1      -8.676   2.551 130.006  0.00  0.00    +0.000 C 
BRANCH  22  23
ATOM     23  C   UNL     1      -8.315   2.197 128.578  0.00  0.00    +0.000 C 
BRANCH  23  24
ATOM     24  C   UNL     1      -6.889   2.637 128.292  0.00  0.00    +0.000 C 
ATOM     25  C   UNL     1      -6.524   2.324 126.858  0.00  0.00    +0.000 C 
ENDBRANCH  23  24
ENDBRANCH  22  23
ENDBRANCH  21  22
ENDBRANCH  18  21
ENDBRANCH  17  18
ENDBRANCH  16  17
ENDBRANCH   4  16
BRANCH  10  26
ATOM     26  O   UNL     1      -9.413  -1.010 123.530  0.00  0.00    +0.000 OA
BRANCH  26  27
ATOM     27  C   UNL     1      -9.598   0.331 123.094  0.00  0.00    +0.000 C 
BRANCH  27  28
ATOM     28  C   UNL     1     -10.279   1.313 124.013  0.00  0.00    +0.000 C 
ATOM     29  O   UNL     1      -9.661   2.012 124.814  0.00  0.00    +0.000 OA
BRANCH  28  30
ATOM     30  O   UNL     1     -11.617   1.323 123.889  0.00  0.00    +0.000 OA
ATOM     31  H   UNL     1     -11.907   0.517 123.411  0.00  0.00    +0.000 HD
ENDBRANCH  28  30
ENDBRANCH  27  28
ENDBRANCH  26  27
ENDBRANCH  10  26
TORSDOF 13
ENDMDL
MODEL 9
REMARK VINA RESULT:      -6.5      4.671      7.753
REMARK  Name = Treprostinil
REMARK  14 active torsions:
REMARK  status: ('A' for Active; 'I' for Inactive)
REMARK    1  A    between atoms: C_4  and  O_5
REMARK    2  A    between atoms: C_6  and  C_7
REMARK    3  A    between atoms: C_7  and  C_8
REMARK    4  A    between atoms: C_8  and  C_9
REMARK    5  A    between atoms: C_9  and  O_10
REMARK    6  A    between atoms: C_9  and  C_11
REMARK    7  A    between atoms: C_11  and  C_12
REMARK    8  A    between atoms: C_12  and  C_13
REMARK    9  A    between atoms: C_13  and  C_14
REMARK   10  A    between atoms: C_14  and  C_15
REMARK   11  A    between atoms: C_22  and  O_23
REMARK   12  A    between atoms: O_23  and  C_24
REMARK   13  A    between atoms: C_24  and  C_25
REMARK   14  A    between atoms: C_25  and  O_26
REMARK                            x       y       z     vdW  Elec       q    Type
REMARK                         _______ _______ _______ _____ _____    ______ ____
ROOT
ATOM      1  C   UNL     1      -5.876   2.619 126.823  0.00  0.00    +0.000 C 
ATOM      2  C   UNL     1      -4.580   1.826 126.885  0.00  0.00    +0.000 C 
ATOM      3  C   UNL     1      -3.727   2.643 127.855  0.00  0.00    +0.000 C 
ATOM      4  C   UNL     1      -4.350   4.069 127.901  0.00  0.00    +0.000 C 
ATOM      5  C   UNL     1      -5.438   4.061 126.808  0.00  0.00    +0.000 C 
ATOM      6  C   UNL     1      -4.831   4.430 125.445  0.00  0.00    +0.000 C 
ATOM      7  C   UNL     1      -5.561   3.875 124.245  0.00  0.00    +0.000 A 
ATOM      8  C   UNL     1      -6.461   2.783 124.341  0.00  0.00    +0.000 A 
ATOM      9  C   UNL     1      -6.786   2.273 125.702  0.00  0.00    +0.000 C 
ATOM     10  C   UNL     1      -7.080   2.259 123.184  0.00  0.00    +0.000 A 
ATOM     11  C   UNL     1      -6.755   2.837 121.949  0.00  0.00    +0.000 A 
ATOM     12  C   UNL     1      -5.854   3.903 121.853  0.00  0.00    +0.000 A 
ATOM     13  C   UNL     1      -5.254   4.416 122.995  0.00  0.00    +0.000 A 
ENDROOT
BRANCH   3  14
ATOM     14  O   UNL     1      -2.375   2.679 127.435  0.00  0.00    +0.000 OA
ATOM     15  H   UNL     1      -2.258   2.042 126.713  0.00  0.00    +0.000 HD
ENDBRANCH   3  14
BRANCH   4  16
ATOM     16  C   UNL     1      -4.953   4.430 129.268  0.00  0.00    +0.000 C 
BRANCH  16  17
ATOM     17  C   UNL     1      -4.520   5.785 129.817  0.00  0.00    +0.000 C 
BRANCH  17  18
ATOM     18  C   UNL     1      -3.626   6.542 128.874  0.00  0.00    +0.000 C 
BRANCH  18  19
ATOM     19  O   UNL     1      -4.100   7.879 128.762  0.00  0.00    +0.000 OA
ATOM     20  H   UNL     1      -3.953   8.171 127.845  0.00  0.00    +0.000 HD
ENDBRANCH  18  19
BRANCH  18  21
ATOM     21  C   UNL     1      -2.219   6.522 129.459  0.00  0.00    +0.000 C 
BRANCH  21  22
ATOM     22  C   UNL     1      -2.304   6.655 130.961  0.00  0.00    +0.000 C 
BRANCH  22  23
ATOM     23  C   UNL     1      -0.928   6.518 131.579  0.00  0.00    +0.000 C 
BRANCH  23  24
ATOM     24  C   UNL     1      -1.025   5.692 132.851  0.00  0.00    +0.000 C 
ATOM     25  C   UNL     1      -1.846   4.445 132.602  0.00  0.00    +0.000 C 
ENDBRANCH  23  24
ENDBRANCH  22  23
ENDBRANCH  21  22
ENDBRANCH  18  21
ENDBRANCH  17  18
ENDBRANCH  16  17
ENDBRANCH   4  16
BRANCH  10  26
ATOM     26  O   UNL     1      -8.005   1.230 123.090  0.00  0.00    +0.000 OA
BRANCH  26  27
ATOM     27  C   UNL     1      -9.379   1.563 122.941  0.00  0.00    +0.000 C 
BRANCH  27  28
ATOM     28  C   UNL     1     -10.384   0.457 122.744  0.00  0.00    +0.000 C 
ATOM     29  O   UNL     1     -10.065  -0.673 122.376  0.00  0.00    +0.000 OA
BRANCH  28  30
ATOM     30  O   UNL     1     -11.651   0.836 122.980  0.00  0.00    +0.000 OA
ATOM     31  H   UNL     1     -11.653   1.612 123.580  0.00  0.00    +0.000 HD
ENDBRANCH  28  30
ENDBRANCH  27  28
ENDBRANCH  26  27
ENDBRANCH  10  26
TORSDOF 13
ENDMDL
