MODEL 1
REMARK VINA RESULT:      -7.8      0.000      0.000
REMARK  Name = Tretinoin
REMARK  11 active torsions:
REMARK  status: ('A' for Active; 'I' for Inactive)
REMARK    1  A    between atoms: C_1  and  C_2
REMARK    2  A    between atoms: C_2  and  C_3
REMARK    3  A    between atoms: C_4  and  C_5
REMARK    4  A    between atoms: C_6  and  C_7
REMARK    5  A    between atoms: C_11  and  C_12
REMARK    6  A    between atoms: C_11  and  C_13
REMARK    7  A    between atoms: C_14  and  C_15
REMARK    8  A    between atoms: C_16  and  C_17
REMARK    9  A    between atoms: C_17  and  C_18
REMARK   10  A    between atoms: C_19  and  C_20
REMARK   11  A    between atoms: C_20  and  O_21
REMARK                            x       y       z     vdW  Elec       q    Type
REMARK                         _______ _______ _______ _____ _____    ______ ____
ROOT
ATOM      1  C   UNL     1      -7.950   2.928 125.724  0.00  0.00    +0.000 C 
ATOM      2  C   UNL     1      -8.030   1.501 125.220  0.00  0.00    +0.000 C 
ATOM      3  C   UNL     1      -7.935   1.219 123.896  0.00  0.00    +0.000 C 
ENDROOT
BRANCH   2   4
ATOM      4  C   UNL     1      -8.210   0.424 126.195  0.00  0.00    +0.000 C 
ATOM      5  C   UNL     1      -7.558  -0.754 126.221  0.00  0.00    +0.000 C 
BRANCH   5   6
ATOM      6  C   UNL     1      -7.799  -1.844 127.167  0.00  0.00    +0.000 C 
ATOM      7  C   UNL     1      -8.654  -2.857 126.882  0.00  0.00    +0.000 C 
ATOM      8  C   UNL     1      -9.355  -3.057 125.560  0.00  0.00    +0.000 C 
ATOM      9  C   UNL     1      -8.992  -3.945 127.877  0.00  0.00    +0.000 C 
ATOM     10  C   UNL     1      -8.514  -3.670 129.295  0.00  0.00    +0.000 C 
ATOM     11  C   UNL     1      -7.089  -3.149 129.266  0.00  0.00    +0.000 C 
ATOM     12  C   UNL     1      -6.972  -1.812 128.480  0.00  0.00    +0.000 C 
ATOM     13  C   UNL     1      -5.459  -1.599 128.230  0.00  0.00    +0.000 C 
ATOM     14  C   UNL     1      -7.481  -0.663 129.373  0.00  0.00    +0.000 C 
ENDBRANCH   5   6
ENDBRANCH   2   4
BRANCH   3  15
ATOM     15  C   UNL     1      -7.782   2.250 122.885  0.00  0.00    +0.000 C 
ATOM     16  C   UNL     1      -6.709   2.541 122.127  0.00  0.00    +0.000 C 
BRANCH  16  17
ATOM     17  C   UNL     1      -6.689   3.615 121.110  0.00  0.00    +0.000 C 
ATOM     18  C   UNL     1      -7.967   3.941 120.393  0.00  0.00    +0.000 C 
ATOM     19  C   UNL     1      -5.555   4.293 120.823  0.00  0.00    +0.000 C 
BRANCH  19  20
ATOM     20  C   UNL     1      -5.275   5.396 119.860  0.00  0.00    +0.000 C 
ATOM     21  O   UNL     1      -4.727   6.423 120.252  0.00  0.00    +0.000 OA
BRANCH  20  22
ATOM     22  O   UNL     1      -5.618   5.276 118.569  0.00  0.00    +0.000 OA
ATOM     23  H   UNL     1      -4.950   5.305 117.874  0.00  0.00    +0.000 HD
ENDBRANCH  20  22
ENDBRANCH  19  20
ENDBRANCH  16  17
ENDBRANCH   3  15
TORSDOF 6
ENDMDL
MODEL 2
REMARK VINA RESULT:      -7.0      6.725      7.898
REMARK  Name = Tretinoin
REMARK  11 active torsions:
REMARK  status: ('A' for Active; 'I' for Inactive)
REMARK    1  A    between atoms: C_1  and  C_2
REMARK    2  A    between atoms: C_2  and  C_3
REMARK    3  A    between atoms: C_4  and  C_5
REMARK    4  A    between atoms: C_6  and  C_7
REMARK    5  A    between atoms: C_11  and  C_12
REMARK    6  A    between atoms: C_11  and  C_13
REMARK    7  A    between atoms: C_14  and  C_15
REMARK    8  A    between atoms: C_16  and  C_17
REMARK    9  A    between atoms: C_17  and  C_18
REMARK   10  A    between atoms: C_19  and  C_20
REMARK   11  A    between atoms: C_20  and  O_21
REMARK                            x       y       z     vdW  Elec       q    Type
REMARK                         _______ _______ _______ _____ _____    ______ ____
ROOT
ATOM      1  C   UNL     1      -9.799   1.599 132.201  0.00  0.00    +0.000 C 
ATOM      2  C   UNL     1      -8.801   1.439 131.072  0.00  0.00    +0.000 C 
ATOM      3  C   UNL     1      -8.695   2.373 130.094  0.00  0.00    +0.000 C 
ENDROOT
BRANCH   2   4
ATOM      4  C   UNL     1      -7.946   0.252 131.057  0.00  0.00    +0.000 C 
ATOM      5  C   UNL     1      -8.352  -1.032 131.017  0.00  0.00    +0.000 C 
BRANCH   5   6
ATOM      6  C   UNL     1      -7.481  -2.206 131.068  0.00  0.00    +0.000 C 
ATOM      7  C   UNL     1      -7.068  -2.735 132.245  0.00  0.00    +0.000 C 
ATOM      8  C   UNL     1      -7.524  -2.280 133.611  0.00  0.00    +0.000 C 
ATOM      9  C   UNL     1      -6.095  -3.890 132.325  0.00  0.00    +0.000 C 
ATOM     10  C   UNL     1      -5.416  -4.232 131.007  0.00  0.00    +0.000 C 
ATOM     11  C   UNL     1      -6.441  -4.241 129.888  0.00  0.00    +0.000 C 
ATOM     12  C   UNL     1      -7.116  -2.852 129.704  0.00  0.00    +0.000 C 
ATOM     13  C   UNL     1      -8.353  -3.098 128.807  0.00  0.00    +0.000 C 
ATOM     14  C   UNL     1      -6.146  -1.923 128.947  0.00  0.00    +0.000 C 
ENDBRANCH   5   6
ENDBRANCH   2   4
BRANCH   3  15
ATOM     15  C   UNL     1      -9.535   3.557 130.045  0.00  0.00    +0.000 C 
ATOM     16  C   UNL     1      -9.244   4.819 130.410  0.00  0.00    +0.000 C 
BRANCH  16  17
ATOM     17  C   UNL     1     -10.192   5.947 130.292  0.00  0.00    +0.000 C 
ATOM     18  C   UNL     1      -9.648   7.301 129.939  0.00  0.00    +0.000 C 
ATOM     19  C   UNL     1     -11.519   5.779 130.494  0.00  0.00    +0.000 C 
BRANCH  19  20
ATOM     20  C   UNL     1     -12.660   6.735 130.438  0.00  0.00    +0.000 C 
ATOM     21  O   UNL     1     -13.129   7.061 129.350  0.00  0.00    +0.000 OA
BRANCH  20  22
ATOM     22  O   UNL     1     -13.179   7.243 131.565  0.00  0.00    +0.000 OA
ATOM     23  H   UNL     1     -12.621   7.420 132.332  0.00  0.00    +0.000 HD
ENDBRANCH  20  22
ENDBRANCH  19  20
ENDBRANCH  16  17
ENDBRANCH   3  15
TORSDOF 6
ENDMDL
MODEL 3
REMARK VINA RESULT:      -6.9      6.728     10.625
REMARK  Name = Tretinoin
REMARK  11 active torsions:
REMARK  status: ('A' for Active; 'I' for Inactive)
REMARK    1  A    between atoms: C_1  and  C_2
REMARK    2  A    between atoms: C_2  and  C_3
REMARK    3  A    between atoms: C_4  and  C_5
REMARK    4  A    between atoms: C_6  and  C_7
REMARK    5  A    between atoms: C_11  and  C_12
REMARK    6  A    between atoms: C_11  and  C_13
REMARK    7  A    between atoms: C_14  and  C_15
REMARK    8  A    between atoms: C_16  and  C_17
REMARK    9  A    between atoms: C_17  and  C_18
REMARK   10  A    between atoms: C_19  and  C_20
REMARK   11  A    between atoms: C_20  and  O_21
REMARK                            x       y       z     vdW  Elec       q    Type
REMARK                         _______ _______ _______ _____ _____    ______ ____
ROOT
ATOM      1  C   UNL     1      -7.894  -1.589 130.246  0.00  0.00    +0.000 C 
ATOM      2  C   UNL     1      -7.557  -2.645 129.213  0.00  0.00    +0.000 C 
ATOM      3  C   UNL     1      -6.852  -3.754 129.549  0.00  0.00    +0.000 C 
ENDROOT
BRANCH   2   4
ATOM      4  C   UNL     1      -8.011  -2.446 127.835  0.00  0.00    +0.000 C 
ATOM      5  C   UNL     1      -7.326  -1.849 126.841  0.00  0.00    +0.000 C 
BRANCH   5   6
ATOM      6  C   UNL     1      -7.824  -1.604 125.487  0.00  0.00    +0.000 C 
ATOM      7  C   UNL     1      -8.568  -0.511 125.191  0.00  0.00    +0.000 C 
ATOM      8  C   UNL     1      -8.875   0.618 126.146  0.00  0.00    +0.000 C 
ATOM      9  C   UNL     1      -9.173  -0.280 123.824  0.00  0.00    +0.000 C 
ATOM     10  C   UNL     1      -9.107  -1.485 122.897  0.00  0.00    +0.000 C 
ATOM     11  C   UNL     1      -7.728  -2.115 122.969  0.00  0.00    +0.000 C 
ATOM     12  C   UNL     1      -7.394  -2.625 124.400  0.00  0.00    +0.000 C 
ATOM     13  C   UNL     1      -5.871  -2.900 124.406  0.00  0.00    +0.000 C 
ATOM     14  C   UNL     1      -8.128  -3.959 124.639  0.00  0.00    +0.000 C 
ENDBRANCH   5   6
ENDBRANCH   2   4
BRANCH   3  15
ATOM     15  C   UNL     1      -6.355  -3.990 130.894  0.00  0.00    +0.000 C 
ATOM     16  C   UNL     1      -5.402  -4.843 131.309  0.00  0.00    +0.000 C 
BRANCH  16  17
ATOM     17  C   UNL     1      -4.973  -4.974 132.718  0.00  0.00    +0.000 C 
ATOM     18  C   UNL     1      -3.534  -4.707 133.053  0.00  0.00    +0.000 C 
ATOM     19  C   UNL     1      -5.845  -5.325 133.691  0.00  0.00    +0.000 C 
BRANCH  19  20
ATOM     20  C   UNL     1      -5.668  -5.522 135.157  0.00  0.00    +0.000 C 
ATOM     21  O   UNL     1      -5.289  -6.610 135.585  0.00  0.00    +0.000 OA
BRANCH  20  22
ATOM     22  O   UNL     1      -5.919  -4.522 136.014  0.00  0.00    +0.000 OA
ATOM     23  H   UNL     1      -5.969  -4.684 136.964  0.00  0.00    +0.000 HD
ENDBRANCH  20  22
ENDBRANCH  19  20
ENDBRANCH  16  17
ENDBRANCH   3  15
TORSDOF 6
ENDMDL
MODEL 4
REMARK VINA RESULT:      -6.9      6.448     10.317
REMARK  Name = Tretinoin
REMARK  11 active torsions:
REMARK  status: ('A' for Active; 'I' for Inactive)
REMARK    1  A    between atoms: C_1  and  C_2
REMARK    2  A    between atoms: C_2  and  C_3
REMARK    3  A    between atoms: C_4  and  C_5
REMARK    4  A    between atoms: C_6  and  C_7
REMARK    5  A    between atoms: C_11  and  C_12
REMARK    6  A    between atoms: C_11  and  C_13
REMARK    7  A    between atoms: C_14  and  C_15
REMARK    8  A    between atoms: C_16  and  C_17
REMARK    9  A    between atoms: C_17  and  C_18
REMARK   10  A    between atoms: C_19  and  C_20
REMARK   11  A    between atoms: C_20  and  O_21
REMARK                            x       y       z     vdW  Elec       q    Type
REMARK                         _______ _______ _______ _____ _____    ______ ____
ROOT
ATOM      1  C   UNL     1      -7.867  -1.954 130.402  0.00  0.00    +0.000 C 
ATOM      2  C   UNL     1      -7.224  -2.672 129.233  0.00  0.00    +0.000 C 
ATOM      3  C   UNL     1      -6.167  -3.503 129.417  0.00  0.00    +0.000 C 
ENDROOT
BRANCH   2   4
ATOM      4  C   UNL     1      -7.769  -2.453 127.892  0.00  0.00    +0.000 C 
ATOM      5  C   UNL     1      -7.117  -1.936 126.833  0.00  0.00    +0.000 C 
BRANCH   5   6
ATOM      6  C   UNL     1      -7.700  -1.666 125.519  0.00  0.00    +0.000 C 
ATOM      7  C   UNL     1      -8.431  -0.550 125.280  0.00  0.00    +0.000 C 
ATOM      8  C   UNL     1      -8.639   0.579 126.260  0.00  0.00    +0.000 C 
ATOM      9  C   UNL     1      -9.122  -0.293 123.960  0.00  0.00    +0.000 C 
ATOM     10  C   UNL     1      -9.155  -1.492 123.023  0.00  0.00    +0.000 C 
ATOM     11  C   UNL     1      -7.792  -2.161 122.997  0.00  0.00    +0.000 C 
ATOM     12  C   UNL     1      -7.375  -2.691 124.399  0.00  0.00    +0.000 C 
ATOM     13  C   UNL     1      -5.864  -3.009 124.298  0.00  0.00    +0.000 C 
ATOM     14  C   UNL     1      -8.129  -4.005 124.680  0.00  0.00    +0.000 C 
ENDBRANCH   5   6
ENDBRANCH   2   4
BRANCH   3  15
ATOM     15  C   UNL     1      -5.571  -3.737 130.720  0.00  0.00    +0.000 C 
ATOM     16  C   UNL     1      -5.547  -4.865 131.452  0.00  0.00    +0.000 C 
BRANCH  16  17
ATOM     17  C   UNL     1      -4.884  -4.976 132.769  0.00  0.00    +0.000 C 
ATOM     18  C   UNL     1      -5.700  -5.437 133.941  0.00  0.00    +0.000 C 
ATOM     19  C   UNL     1      -3.576  -4.671 132.929  0.00  0.00    +0.000 C 
BRANCH  19  20
ATOM     20  C   UNL     1      -2.690  -4.699 134.127  0.00  0.00    +0.000 C 
ATOM     21  O   UNL     1      -2.766  -3.801 134.962  0.00  0.00    +0.000 OA
BRANCH  20  22
ATOM     22  O   UNL     1      -1.809  -5.694 134.299  0.00  0.00    +0.000 OA
ATOM     23  H   UNL     1      -1.077  -5.821 133.683  0.00  0.00    +0.000 HD
ENDBRANCH  20  22
ENDBRANCH  19  20
ENDBRANCH  16  17
ENDBRANCH   3  15
TORSDOF 6
ENDMDL
MODEL 5
REMARK VINA RESULT:      -6.9      4.143      6.781
REMARK  Name = Tretinoin
REMARK  11 active torsions:
REMARK  status: ('A' for Active; 'I' for Inactive)
REMARK    1  A    between atoms: C_1  and  C_2
REMARK    2  A    between atoms: C_2  and  C_3
REMARK    3  A    between atoms: C_4  and  C_5
REMARK    4  A    between atoms: C_6  and  C_7
REMARK    5  A    between atoms: C_11  and  C_12
REMARK    6  A    between atoms: C_11  and  C_13
REMARK    7  A    between atoms: C_14  and  C_15
REMARK    8  A    between atoms: C_16  and  C_17
REMARK    9  A    between atoms: C_17  and  C_18
REMARK   10  A    between atoms: C_19  and  C_20
REMARK   11  A    between atoms: C_20  and  O_21
REMARK                            x       y       z     vdW  Elec       q    Type
REMARK                         _______ _______ _______ _____ _____    ______ ____
ROOT
ATOM      1  C   UNL     1      -7.460  -1.140 129.262  0.00  0.00    +0.000 C 
ATOM      2  C   UNL     1      -7.794  -2.612 129.390  0.00  0.00    +0.000 C 
ATOM      3  C   UNL     1      -8.290  -3.311 128.337  0.00  0.00    +0.000 C 
ENDROOT
BRANCH   2   4
ATOM      4  C   UNL     1      -7.569  -3.272 130.676  0.00  0.00    +0.000 C 
ATOM      5  C   UNL     1      -6.632  -2.954 131.590  0.00  0.00    +0.000 C 
BRANCH   5   6
ATOM      6  C   UNL     1      -6.383  -3.669 132.842  0.00  0.00    +0.000 C 
ATOM      7  C   UNL     1      -5.701  -4.839 132.870  0.00  0.00    +0.000 C 
ATOM      8  C   UNL     1      -5.029  -5.483 131.680  0.00  0.00    +0.000 C 
ATOM      9  C   UNL     1      -5.509  -5.644 134.136  0.00  0.00    +0.000 C 
ATOM     10  C   UNL     1      -6.360  -5.181 135.310  0.00  0.00    +0.000 C 
ATOM     11  C   UNL     1      -6.312  -3.667 135.413  0.00  0.00    +0.000 C 
ATOM     12  C   UNL     1      -6.880  -2.977 134.140  0.00  0.00    +0.000 C 
ATOM     13  C   UNL     1      -6.446  -1.495 134.233  0.00  0.00    +0.000 C 
ATOM     14  C   UNL     1      -8.420  -3.034 134.187  0.00  0.00    +0.000 C 
ENDBRANCH   5   6
ENDBRANCH   2   4
BRANCH   3  15
ATOM     15  C   UNL     1      -8.556  -2.702 127.046  0.00  0.00    +0.000 C 
ATOM     16  C   UNL     1      -8.769  -3.293 125.857  0.00  0.00    +0.000 C 
BRANCH  16  17
ATOM     17  C   UNL     1      -9.050  -2.550 124.609  0.00  0.00    +0.000 C 
ATOM     18  C   UNL     1      -9.479  -3.328 123.399  0.00  0.00    +0.000 C 
ATOM     19  C   UNL     1      -8.926  -1.205 124.545  0.00  0.00    +0.000 C 
BRANCH  19  20
ATOM     20  C   UNL     1      -9.144  -0.241 123.430  0.00  0.00    +0.000 C 
ATOM     21  O   UNL     1      -8.249   0.539 123.115  0.00  0.00    +0.000 OA
BRANCH  20  22
ATOM     22  O   UNL     1     -10.311  -0.217 122.770  0.00  0.00    +0.000 OA
ATOM     23  H   UNL     1     -10.819   0.600 122.690  0.00  0.00    +0.000 HD
ENDBRANCH  20  22
ENDBRANCH  19  20
ENDBRANCH  16  17
ENDBRANCH   3  15
TORSDOF 6
ENDMDL
MODEL 6
REMARK VINA RESULT:      -6.9     11.244     13.639
REMARK  Name = Tretinoin
REMARK  11 active torsions:
REMARK  status: ('A' for Active; 'I' for Inactive)
REMARK    1  A    between atoms: C_1  and  C_2
REMARK    2  A    between atoms: C_2  and  C_3
REMARK    3  A    between atoms: C_4  and  C_5
REMARK    4  A    between atoms: C_6  and  C_7
REMARK    5  A    between atoms: C_11  and  C_12
REMARK    6  A    between atoms: C_11  and  C_13
REMARK    7  A    between atoms: C_14  and  C_15
REMARK    8  A    between atoms: C_16  and  C_17
REMARK    9  A    between atoms: C_17  and  C_18
REMARK   10  A    between atoms: C_19  and  C_20
REMARK   11  A    between atoms: C_20  and  O_21
REMARK                            x       y       z     vdW  Elec       q    Type
REMARK                         _______ _______ _______ _____ _____    ______ ____
ROOT
ATOM      1  C   UNL     1      -0.701   6.428 132.747  0.00  0.00    +0.000 C 
ATOM      2  C   UNL     1      -1.641   7.593 132.514  0.00  0.00    +0.000 C 
ATOM      3  C   UNL     1      -2.668   7.499 131.632  0.00  0.00    +0.000 C 
ENDROOT
BRANCH   2   4
ATOM      4  C   UNL     1      -1.423   8.830 133.266  0.00  0.00    +0.000 C 
ATOM      5  C   UNL     1      -1.889  10.054 132.953  0.00  0.00    +0.000 C 
BRANCH   5   6
ATOM      6  C   UNL     1      -1.604  11.290 133.683  0.00  0.00    +0.000 C 
ATOM      7  C   UNL     1      -2.212  11.577 134.860  0.00  0.00    +0.000 C 
ATOM      8  C   UNL     1      -3.139  10.650 135.609  0.00  0.00    +0.000 C 
ATOM      9  C   UNL     1      -2.007  12.887 135.587  0.00  0.00    +0.000 C 
ATOM     10  C   UNL     1      -1.285  13.951 134.773  0.00  0.00    +0.000 C 
ATOM     11  C   UNL     1      -0.093  13.335 134.064  0.00  0.00    +0.000 C 
ATOM     12  C   UNL     1      -0.519  12.216 133.071  0.00  0.00    +0.000 C 
ATOM     13  C   UNL     1       0.780  11.457 132.707  0.00  0.00    +0.000 C 
ATOM     14  C   UNL     1      -1.073  12.870 131.790  0.00  0.00    +0.000 C 
ENDBRANCH   5   6
ENDBRANCH   2   4
BRANCH   3  15
ATOM     15  C   UNL     1      -2.916   6.306 130.842  0.00  0.00    +0.000 C 
ATOM     16  C   UNL     1      -2.545   6.033 129.578  0.00  0.00    +0.000 C 
BRANCH  16  17
ATOM     17  C   UNL     1      -2.848   4.760 128.890  0.00  0.00    +0.000 C 
ATOM     18  C   UNL     1      -3.642   3.722 129.628  0.00  0.00    +0.000 C 
ATOM     19  C   UNL     1      -2.426   4.523 127.627  0.00  0.00    +0.000 C 
BRANCH  19  20
ATOM     20  C   UNL     1      -2.595   3.346 126.729  0.00  0.00    +0.000 C 
ATOM     21  O   UNL     1      -3.670   3.159 126.165  0.00  0.00    +0.000 OA
BRANCH  20  22
ATOM     22  O   UNL     1      -1.584   2.488 126.533  0.00  0.00    +0.000 OA
ATOM     23  H   UNL     1      -1.679   1.738 125.933  0.00  0.00    +0.000 HD
ENDBRANCH  20  22
ENDBRANCH  19  20
ENDBRANCH  16  17
ENDBRANCH   3  15
TORSDOF 6
ENDMDL
MODEL 7
REMARK VINA RESULT:      -6.7      4.071      6.735
REMARK  Name = Tretinoin
REMARK  11 active torsions:
REMARK  status: ('A' for Active; 'I' for Inactive)
REMARK    1  A    between atoms: C_1  and  C_2
REMARK    2  A    between atoms: C_2  and  C_3
REMARK    3  A    between atoms: C_4  and  C_5
REMARK    4  A    between atoms: C_6  and  C_7
REMARK    5  A    between atoms: C_11  and  C_12
REMARK    6  A    between atoms: C_11  and  C_13
REMARK    7  A    between atoms: C_14  and  C_15
REMARK    8  A    between atoms: C_16  and  C_17
REMARK    9  A    between atoms: C_17  and  C_18
REMARK   10  A    between atoms: C_19  and  C_20
REMARK   11  A    between atoms: C_20  and  O_21
REMARK                            x       y       z     vdW  Elec       q    Type
REMARK                         _______ _______ _______ _____ _____    ______ ____
ROOT
ATOM      1  C   UNL     1      -7.730  -1.086 129.344  0.00  0.00    +0.000 C 
ATOM      2  C   UNL     1      -7.830  -2.597 129.359  0.00  0.00    +0.000 C 
ATOM      3  C   UNL     1      -8.157  -3.289 128.238  0.00  0.00    +0.000 C 
ENDROOT
BRANCH   2   4
ATOM      4  C   UNL     1      -7.563  -3.304 130.613  0.00  0.00    +0.000 C 
ATOM      5  C   UNL     1      -6.637  -2.982 131.536  0.00  0.00    +0.000 C 
BRANCH   5   6
ATOM      6  C   UNL     1      -6.343  -3.741 132.753  0.00  0.00    +0.000 C 
ATOM      7  C   UNL     1      -7.120  -3.640 133.859  0.00  0.00    +0.000 C 
ATOM      8  C   UNL     1      -8.408  -2.858 133.949  0.00  0.00    +0.000 C 
ATOM      9  C   UNL     1      -6.786  -4.340 135.157  0.00  0.00    +0.000 C 
ATOM     10  C   UNL     1      -5.389  -4.940 135.207  0.00  0.00    +0.000 C 
ATOM     11  C   UNL     1      -5.097  -5.670 133.908  0.00  0.00    +0.000 C 
ATOM     12  C   UNL     1      -5.138  -4.716 132.681  0.00  0.00    +0.000 C 
ATOM     13  C   UNL     1      -5.182  -5.632 131.434  0.00  0.00    +0.000 C 
ATOM     14  C   UNL     1      -3.829  -3.902 132.637  0.00  0.00    +0.000 C 
ENDBRANCH   5   6
ENDBRANCH   2   4
BRANCH   3  15
ATOM     15  C   UNL     1      -8.456  -2.638 126.975  0.00  0.00    +0.000 C 
ATOM     16  C   UNL     1      -8.699  -3.190 125.773  0.00  0.00    +0.000 C 
BRANCH  16  17
ATOM     17  C   UNL     1      -9.011  -2.407 124.557  0.00  0.00    +0.000 C 
ATOM     18  C   UNL     1      -9.410  -3.150 123.315  0.00  0.00    +0.000 C 
ATOM     19  C   UNL     1      -8.943  -1.057 124.550  0.00  0.00    +0.000 C 
BRANCH  19  20
ATOM     20  C   UNL     1      -9.202  -0.056 123.477  0.00  0.00    +0.000 C 
ATOM     21  O   UNL     1      -8.308   0.711 123.130  0.00  0.00    +0.000 OA
BRANCH  20  22
ATOM     22  O   UNL     1     -10.405   0.015 122.889  0.00  0.00    +0.000 OA
ATOM     23  H   UNL     1     -11.192   0.248 123.396  0.00  0.00    +0.000 HD
ENDBRANCH  20  22
ENDBRANCH  19  20
ENDBRANCH  16  17
ENDBRANCH   3  15
TORSDOF 6
ENDMDL
MODEL 8
REMARK VINA RESULT:      -6.6      4.330      6.194
REMARK  Name = Tretinoin
REMARK  11 active torsions:
REMARK  status: ('A' for Active; 'I' for Inactive)
REMARK    1  A    between atoms: C_1  and  C_2
REMARK    2  A    between atoms: C_2  and  C_3
REMARK    3  A    between atoms: C_4  and  C_5
REMARK    4  A    between atoms: C_6  and  C_7
REMARK    5  A    between atoms: C_11  and  C_12
REMARK    6  A    between atoms: C_11  and  C_13
REMARK    7  A    between atoms: C_14  and  C_15
REMARK    8  A    between atoms: C_16  and  C_17
REMARK    9  A    between atoms: C_17  and  C_18
REMARK   10  A    between atoms: C_19  and  C_20
REMARK   11  A    between atoms: C_20  and  O_21
REMARK                            x       y       z     vdW  Elec       q    Type
REMARK                         _______ _______ _______ _____ _____    ______ ____
ROOT
ATOM      1  C   UNL     1      -5.806   2.742 125.123  0.00  0.00    +0.000 C 
ATOM      2  C   UNL     1      -5.561   1.532 126.002  0.00  0.00    +0.000 C 
ATOM      3  C   UNL     1      -4.840   1.634 127.147  0.00  0.00    +0.000 C 
ENDROOT
BRANCH   2   4
ATOM      4  C   UNL     1      -6.121   0.244 125.592  0.00  0.00    +0.000 C 
ATOM      5  C   UNL     1      -7.426  -0.065 125.473  0.00  0.00    +0.000 C 
BRANCH   5   6
ATOM      6  C   UNL     1      -7.966  -1.379 125.124  0.00  0.00    +0.000 C 
ATOM      7  C   UNL     1      -8.166  -2.338 126.060  0.00  0.00    +0.000 C 
ATOM      8  C   UNL     1      -7.980  -2.153 127.547  0.00  0.00    +0.000 C 
ATOM      9  C   UNL     1      -8.634  -3.733 125.714  0.00  0.00    +0.000 C 
ATOM     10  C   UNL     1      -8.605  -4.055 124.227  0.00  0.00    +0.000 C 
ATOM     11  C   UNL     1      -9.182  -2.893 123.439  0.00  0.00    +0.000 C 
ATOM     12  C   UNL     1      -8.361  -1.588 123.637  0.00  0.00    +0.000 C 
ATOM     13  C   UNL     1      -9.245  -0.444 123.086  0.00  0.00    +0.000 C 
ATOM     14  C   UNL     1      -7.082  -1.668 122.779  0.00  0.00    +0.000 C 
ENDBRANCH   5   6
ENDBRANCH   2   4
BRANCH   3  15
ATOM     15  C   UNL     1      -4.241   2.881 127.588  0.00  0.00    +0.000 C 
ATOM     16  C   UNL     1      -4.435   3.556 128.735  0.00  0.00    +0.000 C 
BRANCH  16  17
ATOM     17  C   UNL     1      -3.741   4.818 129.073  0.00  0.00    +0.000 C 
ATOM     18  C   UNL     1      -2.907   4.860 130.320  0.00  0.00    +0.000 C 
ATOM     19  C   UNL     1      -3.849   5.914 128.289  0.00  0.00    +0.000 C 
BRANCH  19  20
ATOM     20  C   UNL     1      -3.263   7.280 128.406  0.00  0.00    +0.000 C 
ATOM     21  O   UNL     1      -2.103   7.478 128.051  0.00  0.00    +0.000 OA
BRANCH  20  22
ATOM     22  O   UNL     1      -3.990   8.293 128.897  0.00  0.00    +0.000 OA
ATOM     23  H   UNL     1      -4.829   8.129 129.345  0.00  0.00    +0.000 HD
ENDBRANCH  20  22
ENDBRANCH  19  20
ENDBRANCH  16  17
ENDBRANCH   3  15
TORSDOF 6
ENDMDL
MODEL 9
REMARK VINA RESULT:      -6.6      5.358      8.008
REMARK  Name = Tretinoin
REMARK  11 active torsions:
REMARK  status: ('A' for Active; 'I' for Inactive)
REMARK    1  A    between atoms: C_1  and  C_2
REMARK    2  A    between atoms: C_2  and  C_3
REMARK    3  A    between atoms: C_4  and  C_5
REMARK    4  A    between atoms: C_6  and  C_7
REMARK    5  A    between atoms: C_11  and  C_12
REMARK    6  A    between atoms: C_11  and  C_13
REMARK    7  A    between atoms: C_14  and  C_15
REMARK    8  A    between atoms: C_16  and  C_17
REMARK    9  A    between atoms: C_17  and  C_18
REMARK   10  A    between atoms: C_19  and  C_20
REMARK   11  A    between atoms: C_20  and  O_21
REMARK                            x       y       z     vdW  Elec       q    Type
REMARK                         _______ _______ _______ _____ _____    ______ ____
ROOT
ATOM      1  C   UNL     1      -7.013   3.568 127.521  0.00  0.00    +0.000 C 
ATOM      2  C   UNL     1      -7.509   2.137 127.544  0.00  0.00    +0.000 C 
ATOM      3  C   UNL     1      -8.403   1.721 128.476  0.00  0.00    +0.000 C 
ENDROOT
BRANCH   2   4
ATOM      4  C   UNL     1      -7.006   1.205 126.534  0.00  0.00    +0.000 C 
ATOM      5  C   UNL     1      -7.552   0.024 126.186  0.00  0.00    +0.000 C 
BRANCH   5   6
ATOM      6  C   UNL     1      -6.996  -0.923 125.219  0.00  0.00    +0.000 C 
ATOM      7  C   UNL     1      -6.119  -1.887 125.590  0.00  0.00    +0.000 C 
ATOM      8  C   UNL     1      -5.702  -2.182 127.011  0.00  0.00    +0.000 C 
ATOM      9  C   UNL     1      -5.459  -2.818 124.598  0.00  0.00    +0.000 C 
ATOM     10  C   UNL     1      -5.647  -2.419 123.141  0.00  0.00    +0.000 C 
ATOM     11  C   UNL     1      -7.093  -2.027 122.898  0.00  0.00    +0.000 C 
ATOM     12  C   UNL     1      -7.520  -0.806 123.762  0.00  0.00    +0.000 C 
ATOM     13  C   UNL     1      -9.064  -0.751 123.684  0.00  0.00    +0.000 C 
ATOM     14  C   UNL     1      -6.957   0.479 123.123  0.00  0.00    +0.000 C 
ENDBRANCH   5   6
ENDBRANCH   2   4
BRANCH   3  15
ATOM     15  C   UNL     1      -8.916   2.595 129.516  0.00  0.00    +0.000 C 
ATOM     16  C   UNL     1      -8.840   2.460 130.852  0.00  0.00    +0.000 C 
BRANCH  16  17
ATOM     17  C   UNL     1      -9.393   3.442 131.810  0.00  0.00    +0.000 C 
ATOM     18  C   UNL     1      -9.326   3.122 133.275  0.00  0.00    +0.000 C 
ATOM     19  C   UNL     1      -9.949   4.601 131.391  0.00  0.00    +0.000 C 
BRANCH  19  20
ATOM     20  C   UNL     1     -10.566   5.733 132.138  0.00  0.00    +0.000 C 
ATOM     21  O   UNL     1      -9.858   6.471 132.819  0.00  0.00    +0.000 OA
BRANCH  20  22
ATOM     22  O   UNL     1     -11.887   5.951 132.076  0.00  0.00    +0.000 OA
ATOM     23  H   UNL     1     -12.480   5.294 131.691  0.00  0.00    +0.000 HD
ENDBRANCH  20  22
ENDBRANCH  19  20
ENDBRANCH  16  17
ENDBRANCH   3  15
TORSDOF 6
ENDMDL
