MODEL 1
REMARK VINA RESULT:      -7.0      0.000      0.000
REMARK  Name = Triamterene
REMARK  2 active torsions:
REMARK  status: ('A' for Active; 'I' for Inactive)
REMARK    1  A    between atoms: C_4  and  N_5
REMARK    2  A    between atoms: C_8  and  C_14
REMARK                            x       y       z     vdW  Elec       q    Type
REMARK                         _______ _______ _______ _____ _____    ______ ____
ROOT
ATOM      1  N   UNL     1     -13.498  10.081 128.761  0.00  0.00    +0.000 N 
ATOM      2  C   UNL     1     -12.653   9.008 128.861  0.00  0.00    +0.000 A 
ATOM      3  N   UNL     1     -12.093   8.569 127.740  0.00  0.00    +0.000 NA
ATOM      4  C   UNL     1     -11.256   7.522 127.857  0.00  0.00    +0.000 A 
ATOM      5  C   UNL     1     -10.955   6.897 129.064  0.00  0.00    +0.000 A 
ATOM      6  N   UNL     1     -10.093   5.832 129.141  0.00  0.00    +0.000 NA
ATOM      7  C   UNL     1      -9.920   5.288 130.367  0.00  0.00    +0.000 A 
ATOM      8  C   UNL     1     -10.557   5.826 131.497  0.00  0.00    +0.000 A 
ATOM      9  N   UNL     1     -10.446   5.229 132.749  0.00  0.00    +0.000 N 
ATOM     10  N   UNL     1     -11.394   6.890 131.388  0.00  0.00    +0.000 NA
ATOM     11  C   UNL     1     -11.609   7.435 130.171  0.00  0.00    +0.000 A 
ATOM     12  N   UNL     1     -12.447   8.480 130.069  0.00  0.00    +0.000 NA
ATOM     13  H   UNL     1     -13.655  10.485 127.852  0.00  0.00    +0.000 HD
ATOM     14  H   UNL     1     -13.938  10.433 129.592  0.00  0.00    +0.000 HD
ATOM     15  H   UNL     1      -9.668   4.604 132.924  0.00  0.00    +0.000 HD
ATOM     16  H   UNL     1     -10.846   5.727 133.531  0.00  0.00    +0.000 HD
ENDROOT
BRANCH   7  17
ATOM     17  C   UNL     1      -9.026   4.116 130.437  0.00  0.00    +0.000 A 
ATOM     18  C   UNL     1      -7.646   4.277 130.663  0.00  0.00    +0.000 A 
ATOM     19  C   UNL     1      -6.775   3.185 130.656  0.00  0.00    +0.000 A 
ATOM     20  C   UNL     1      -7.272   1.904 130.440  0.00  0.00    +0.000 A 
ATOM     21  C   UNL     1      -8.636   1.717 130.226  0.00  0.00    +0.000 A 
ATOM     22  C   UNL     1      -9.507   2.814 130.225  0.00  0.00    +0.000 A 
ENDBRANCH   7  17
BRANCH   4  23
ATOM     23  N   UNL     1     -10.631   7.098 126.691  0.00  0.00    +0.000 N 
ATOM     24  H   UNL     1     -10.933   6.239 126.261  0.00  0.00    +0.000 HD
ATOM     25  H   UNL     1      -9.758   7.548 126.440  0.00  0.00    +0.000 HD
ENDBRANCH   4  23
TORSDOF 2
ENDMDL
MODEL 2
REMARK VINA RESULT:      -6.8      2.187      6.092
REMARK  Name = Triamterene
REMARK  2 active torsions:
REMARK  status: ('A' for Active; 'I' for Inactive)
REMARK    1  A    between atoms: C_4  and  N_5
REMARK    2  A    between atoms: C_8  and  C_14
REMARK                            x       y       z     vdW  Elec       q    Type
REMARK                         _______ _______ _______ _____ _____    ______ ____
ROOT
ATOM      1  N   UNL     1      -6.054   2.092 131.350  0.00  0.00    +0.000 N 
ATOM      2  C   UNL     1      -6.995   2.928 130.809  0.00  0.00    +0.000 A 
ATOM      3  N   UNL     1      -6.916   3.169 129.505  0.00  0.00    +0.000 NA
ATOM      4  C   UNL     1      -7.853   3.982 128.986  0.00  0.00    +0.000 A 
ATOM      5  C   UNL     1      -8.876   4.565 129.730  0.00  0.00    +0.000 A 
ATOM      6  N   UNL     1      -9.815   5.388 129.161  0.00  0.00    +0.000 NA
ATOM      7  C   UNL     1     -10.729   5.925 130.001  0.00  0.00    +0.000 A 
ATOM      8  C   UNL     1     -10.732   5.609 131.369  0.00  0.00    +0.000 A 
ATOM      9  N   UNL     1     -11.619   6.213 132.254  0.00  0.00    +0.000 N 
ATOM     10  N   UNL     1      -9.796   4.779 131.897  0.00  0.00    +0.000 NA
ATOM     11  C   UNL     1      -8.852   4.252 131.087  0.00  0.00    +0.000 A 
ATOM     12  N   UNL     1      -7.923   3.441 131.619  0.00  0.00    +0.000 NA
ATOM     13  H   UNL     1      -5.354   1.701 130.743  0.00  0.00    +0.000 HD
ATOM     14  H   UNL     1      -6.088   1.895 132.334  0.00  0.00    +0.000 HD
ATOM     15  H   UNL     1     -12.464   6.635 131.887  0.00  0.00    +0.000 HD
ATOM     16  H   UNL     1     -11.632   5.862 133.201  0.00  0.00    +0.000 HD
ENDROOT
BRANCH   7  17
ATOM     17  C   UNL     1     -11.710   6.844 129.392  0.00  0.00    +0.000 A 
ATOM     18  C   UNL     1     -12.882   6.347 128.790  0.00  0.00    +0.000 A 
ATOM     19  C   UNL     1     -13.782   7.196 128.141  0.00  0.00    +0.000 A 
ATOM     20  C   UNL     1     -13.537   8.565 128.100  0.00  0.00    +0.000 A 
ATOM     21  C   UNL     1     -12.390   9.082 128.699  0.00  0.00    +0.000 A 
ATOM     22  C   UNL     1     -11.484   8.229 129.341  0.00  0.00    +0.000 A 
ENDBRANCH   7  17
BRANCH   4  23
ATOM     23  N   UNL     1      -7.799   4.190 127.614  0.00  0.00    +0.000 N 
ATOM     24  H   UNL     1      -7.697   5.130 127.267  0.00  0.00    +0.000 HD
ATOM     25  H   UNL     1      -8.082   3.422 127.014  0.00  0.00    +0.000 HD
ENDBRANCH   4  23
TORSDOF 2
ENDMDL
MODEL 3
REMARK VINA RESULT:      -6.7      7.417      8.403
REMARK  Name = Triamterene
REMARK  2 active torsions:
REMARK  status: ('A' for Active; 'I' for Inactive)
REMARK    1  A    between atoms: C_4  and  N_5
REMARK    2  A    between atoms: C_8  and  C_14
REMARK                            x       y       z     vdW  Elec       q    Type
REMARK                         _______ _______ _______ _____ _____    ______ ____
ROOT
ATOM      1  N   UNL     1      -7.855   3.647 121.491  0.00  0.00    +0.000 N 
ATOM      2  C   UNL     1      -8.100   2.725 122.475  0.00  0.00    +0.000 A 
ATOM      3  N   UNL     1      -9.353   2.611 122.901  0.00  0.00    +0.000 NA
ATOM      4  C   UNL     1      -9.580   1.694 123.859  0.00  0.00    +0.000 A 
ATOM      5  C   UNL     1      -8.592   0.879 124.407  0.00  0.00    +0.000 A 
ATOM      6  N   UNL     1      -8.865  -0.046 125.382  0.00  0.00    +0.000 NA
ATOM      7  C   UNL     1      -7.809  -0.743 125.861  0.00  0.00    +0.000 A 
ATOM      8  C   UNL     1      -6.518  -0.551 125.344  0.00  0.00    +0.000 A 
ATOM      9  N   UNL     1      -5.414  -1.205 125.880  0.00  0.00    +0.000 N 
ATOM     10  N   UNL     1      -6.284   0.365 124.369  0.00  0.00    +0.000 NA
ATOM     11  C   UNL     1      -7.315   1.096 123.892  0.00  0.00    +0.000 A 
ATOM     12  N   UNL     1      -7.074   2.008 122.936  0.00  0.00    +0.000 NA
ATOM     13  H   UNL     1      -8.627   4.188 121.139  0.00  0.00    +0.000 HD
ATOM     14  H   UNL     1      -6.917   3.757 121.152  0.00  0.00    +0.000 HD
ATOM     15  H   UNL     1      -5.562  -2.049 126.422  0.00  0.00    +0.000 HD
ATOM     16  H   UNL     1      -4.536  -1.097 125.394  0.00  0.00    +0.000 HD
ENDROOT
BRANCH   7  17
ATOM     17  C   UNL     1      -8.102  -1.706 126.940  0.00  0.00    +0.000 A 
ATOM     18  C   UNL     1      -7.783  -1.406 128.278  0.00  0.00    +0.000 A 
ATOM     19  C   UNL     1      -7.983  -2.336 129.300  0.00  0.00    +0.000 A 
ATOM     20  C   UNL     1      -8.527  -3.582 129.006  0.00  0.00    +0.000 A 
ATOM     21  C   UNL     1      -8.862  -3.899 127.691  0.00  0.00    +0.000 A 
ATOM     22  C   UNL     1      -8.652  -2.968 126.666  0.00  0.00    +0.000 A 
ENDBRANCH   7  17
BRANCH   4  23
ATOM     23  N   UNL     1     -10.899   1.539 124.266  0.00  0.00    +0.000 N 
ATOM     24  H   UNL     1     -11.090   1.342 125.235  0.00  0.00    +0.000 HD
ATOM     25  H   UNL     1     -11.598   1.412 123.543  0.00  0.00    +0.000 HD
ENDBRANCH   4  23
TORSDOF 2
ENDMDL
MODEL 4
REMARK VINA RESULT:      -6.6      3.035      3.959
REMARK  Name = Triamterene
REMARK  2 active torsions:
REMARK  status: ('A' for Active; 'I' for Inactive)
REMARK    1  A    between atoms: C_4  and  N_5
REMARK    2  A    between atoms: C_8  and  C_14
REMARK                            x       y       z     vdW  Elec       q    Type
REMARK                         _______ _______ _______ _____ _____    ______ ____
ROOT
ATOM      1  N   UNL     1     -11.435   8.669 128.163  0.00  0.00    +0.000 N 
ATOM      2  C   UNL     1     -10.863   7.979 129.199  0.00  0.00    +0.000 A 
ATOM      3  N   UNL     1     -11.681   7.351 130.035  0.00  0.00    +0.000 NA
ATOM      4  C   UNL     1     -11.105   6.667 131.040  0.00  0.00    +0.000 A 
ATOM      5  C   UNL     1      -9.729   6.587 131.238  0.00  0.00    +0.000 A 
ATOM      6  N   UNL     1      -9.180   5.877 132.276  0.00  0.00    +0.000 NA
ATOM      7  C   UNL     1      -7.832   5.914 132.382  0.00  0.00    +0.000 A 
ATOM      8  C   UNL     1      -7.050   6.608 131.445  0.00  0.00    +0.000 A 
ATOM      9  N   UNL     1      -5.670   6.717 131.587  0.00  0.00    +0.000 N 
ATOM     10  N   UNL     1      -7.624   7.290 130.421  0.00  0.00    +0.000 NA
ATOM     11  C   UNL     1      -8.971   7.294 130.307  0.00  0.00    +0.000 A 
ATOM     12  N   UNL     1      -9.532   7.980 129.299  0.00  0.00    +0.000 NA
ATOM     13  H   UNL     1     -12.437   8.669 128.082  0.00  0.00    +0.000 HD
ATOM     14  H   UNL     1     -10.840   9.156 127.517  0.00  0.00    +0.000 HD
ATOM     15  H   UNL     1      -5.185   6.046 132.172  0.00  0.00    +0.000 HD
ATOM     16  H   UNL     1      -5.163   7.141 130.824  0.00  0.00    +0.000 HD
ENDROOT
BRANCH   7  17
ATOM     17  C   UNL     1      -7.250   5.185 133.525  0.00  0.00    +0.000 A 
ATOM     18  C   UNL     1      -7.106   5.809 134.778  0.00  0.00    +0.000 A 
ATOM     19  C   UNL     1      -6.488   5.159 135.848  0.00  0.00    +0.000 A 
ATOM     20  C   UNL     1      -6.018   3.859 135.691  0.00  0.00    +0.000 A 
ATOM     21  C   UNL     1      -6.159   3.215 134.463  0.00  0.00    +0.000 A 
ATOM     22  C   UNL     1      -6.771   3.872 133.389  0.00  0.00    +0.000 A 
ENDBRANCH   7  17
BRANCH   4  23
ATOM     23  N   UNL     1     -11.961   5.968 131.882  0.00  0.00    +0.000 N 
ATOM     24  H   UNL     1     -12.079   6.287 132.830  0.00  0.00    +0.000 HD
ATOM     25  H   UNL     1     -12.260   5.047 131.582  0.00  0.00    +0.000 HD
ENDBRANCH   4  23
TORSDOF 2
ENDMDL
MODEL 5
REMARK VINA RESULT:      -6.5      2.591      6.334
REMARK  Name = Triamterene
REMARK  2 active torsions:
REMARK  status: ('A' for Active; 'I' for Inactive)
REMARK    1  A    between atoms: C_4  and  N_5
REMARK    2  A    between atoms: C_8  and  C_14
REMARK                            x       y       z     vdW  Elec       q    Type
REMARK                         _______ _______ _______ _____ _____    ______ ____
ROOT
ATOM      1  N   UNL     1      -7.395  -0.033 132.221  0.00  0.00    +0.000 N 
ATOM      2  C   UNL     1      -7.994   1.020 131.581  0.00  0.00    +0.000 A 
ATOM      3  N   UNL     1      -8.019   0.989 130.254  0.00  0.00    +0.000 NA
ATOM      4  C   UNL     1      -8.621   2.023 129.640  0.00  0.00    +0.000 A 
ATOM      5  C   UNL     1      -9.207   3.094 130.311  0.00  0.00    +0.000 A 
ATOM      6  N   UNL     1      -9.814   4.129 129.647  0.00  0.00    +0.000 NA
ATOM      7  C   UNL     1     -10.305   5.128 130.415  0.00  0.00    +0.000 A 
ATOM      8  C   UNL     1     -10.231   5.070 131.816  0.00  0.00    +0.000 A 
ATOM      9  N   UNL     1     -10.664   6.126 132.613  0.00  0.00    +0.000 N 
ATOM     10  N   UNL     1      -9.635   4.023 132.443  0.00  0.00    +0.000 NA
ATOM     11  C   UNL     1      -9.110   3.025 131.700  0.00  0.00    +0.000 A 
ATOM     12  N   UNL     1      -8.511   1.998 132.326  0.00  0.00    +0.000 NA
ATOM     13  H   UNL     1      -7.006  -0.774 131.663  0.00  0.00    +0.000 HD
ATOM     14  H   UNL     1      -7.359  -0.034 133.224  0.00  0.00    +0.000 HD
ATOM     15  H   UNL     1     -11.316   6.796 132.222  0.00  0.00    +0.000 HD
ATOM     16  H   UNL     1     -10.675   5.972 133.611  0.00  0.00    +0.000 HD
ENDROOT
BRANCH   7  17
ATOM     17  C   UNL     1     -10.918   6.261 129.694  0.00  0.00    +0.000 A 
ATOM     18  C   UNL     1     -12.296   6.266 129.404  0.00  0.00    +0.000 A 
ATOM     19  C   UNL     1     -12.877   7.292 128.656  0.00  0.00    +0.000 A 
ATOM     20  C   UNL     1     -12.093   8.347 128.199  0.00  0.00    +0.000 A 
ATOM     21  C   UNL     1     -10.729   8.370 128.484  0.00  0.00    +0.000 A 
ATOM     22  C   UNL     1     -10.146   7.336 129.226  0.00  0.00    +0.000 A 
ENDBRANCH   7  17
BRANCH   4  23
ATOM     23  N   UNL     1      -8.693   1.962 128.254  0.00  0.00    +0.000 N 
ATOM     24  H   UNL     1      -8.042   2.504 127.708  0.00  0.00    +0.000 HD
ATOM     25  H   UNL     1      -9.526   1.553 127.847  0.00  0.00    +0.000 HD
ENDBRANCH   4  23
TORSDOF 2
ENDMDL
MODEL 6
REMARK VINA RESULT:      -6.4      1.710      3.026
REMARK  Name = Triamterene
REMARK  2 active torsions:
REMARK  status: ('A' for Active; 'I' for Inactive)
REMARK    1  A    between atoms: C_4  and  N_5
REMARK    2  A    between atoms: C_8  and  C_14
REMARK                            x       y       z     vdW  Elec       q    Type
REMARK                         _______ _______ _______ _____ _____    ______ ____
ROOT
ATOM      1  N   UNL     1     -11.511   8.964 128.177  0.00  0.00    +0.000 N 
ATOM      2  C   UNL     1     -11.089   7.869 128.884  0.00  0.00    +0.000 A 
ATOM      3  N   UNL     1     -11.644   7.664 130.073  0.00  0.00    +0.000 NA
ATOM      4  C   UNL     1     -11.229   6.579 130.750  0.00  0.00    +0.000 A 
ATOM      5  C   UNL     1     -10.273   5.683 130.276  0.00  0.00    +0.000 A 
ATOM      6  N   UNL     1      -9.877   4.586 130.998  0.00  0.00    +0.000 NA
ATOM      7  C   UNL     1      -8.910   3.821 130.443  0.00  0.00    +0.000 A 
ATOM      8  C   UNL     1      -8.384   4.120 129.177  0.00  0.00    +0.000 A 
ATOM      9  N   UNL     1      -7.336   3.385 128.631  0.00  0.00    +0.000 N 
ATOM     10  N   UNL     1      -8.807   5.207 128.482  0.00  0.00    +0.000 NA
ATOM     11  C   UNL     1      -9.752   6.007 129.024  0.00  0.00    +0.000 A 
ATOM     12  N   UNL     1     -10.157   7.087 128.337  0.00  0.00    +0.000 NA
ATOM     13  H   UNL     1     -12.215   9.556 128.584  0.00  0.00    +0.000 HD
ATOM     14  H   UNL     1     -11.107   9.146 127.276  0.00  0.00    +0.000 HD
ATOM     15  H   UNL     1      -7.158   2.452 128.984  0.00  0.00    +0.000 HD
ATOM     16  H   UNL     1      -7.079   3.593 127.677  0.00  0.00    +0.000 HD
ENDROOT
BRANCH   7  17
ATOM     17  C   UNL     1      -8.457   2.666 131.244  0.00  0.00    +0.000 A 
ATOM     18  C   UNL     1      -7.394   2.797 132.157  0.00  0.00    +0.000 A 
ATOM     19  C   UNL     1      -6.904   1.697 132.865  0.00  0.00    +0.000 A 
ATOM     20  C   UNL     1      -7.483   0.445 132.688  0.00  0.00    +0.000 A 
ATOM     21  C   UNL     1      -8.545   0.292 131.798  0.00  0.00    +0.000 A 
ATOM     22  C   UNL     1      -9.029   1.394 131.082  0.00  0.00    +0.000 A 
ENDBRANCH   7  17
BRANCH   4  23
ATOM     23  N   UNL     1     -11.849   6.336 131.969  0.00  0.00    +0.000 N 
ATOM     24  H   UNL     1     -12.289   7.102 132.453  0.00  0.00    +0.000 HD
ATOM     25  H   UNL     1     -11.648   5.455 132.428  0.00  0.00    +0.000 HD
ENDBRANCH   4  23
TORSDOF 2
ENDMDL
MODEL 7
REMARK VINA RESULT:      -6.3      4.746      6.850
REMARK  Name = Triamterene
REMARK  2 active torsions:
REMARK  status: ('A' for Active; 'I' for Inactive)
REMARK    1  A    between atoms: C_4  and  N_5
REMARK    2  A    between atoms: C_8  and  C_14
REMARK                            x       y       z     vdW  Elec       q    Type
REMARK                         _______ _______ _______ _____ _____    ______ ____
ROOT
ATOM      1  N   UNL     1     -10.720   5.718 132.251  0.00  0.00    +0.000 N 
ATOM      2  C   UNL     1      -9.361   5.822 132.394  0.00  0.00    +0.000 A 
ATOM      3  N   UNL     1      -8.816   5.242 133.456  0.00  0.00    +0.000 NA
ATOM      4  C   UNL     1      -7.480   5.343 133.577  0.00  0.00    +0.000 A 
ATOM      5  C   UNL     1      -6.664   6.007 132.664  0.00  0.00    +0.000 A 
ATOM      6  N   UNL     1      -5.304   6.085 132.823  0.00  0.00    +0.000 NA
ATOM      7  C   UNL     1      -4.631   6.796 131.888  0.00  0.00    +0.000 A 
ATOM      8  C   UNL     1      -5.298   7.374 130.797  0.00  0.00    +0.000 A 
ATOM      9  N   UNL     1      -4.629   8.170 129.872  0.00  0.00    +0.000 N 
ATOM     10  N   UNL     1      -6.645   7.266 130.663  0.00  0.00    +0.000 NA
ATOM     11  C   UNL     1      -7.347   6.587 131.597  0.00  0.00    +0.000 A 
ATOM     12  N   UNL     1      -8.680   6.494 131.464  0.00  0.00    +0.000 NA
ATOM     13  H   UNL     1     -11.237   5.210 132.949  0.00  0.00    +0.000 HD
ATOM     14  H   UNL     1     -11.159   6.149 131.459  0.00  0.00    +0.000 HD
ATOM     15  H   UNL     1      -3.623   8.083 129.791  0.00  0.00    +0.000 HD
ATOM     16  H   UNL     1      -5.151   8.467 129.061  0.00  0.00    +0.000 HD
ENDROOT
BRANCH   7  17
ATOM     17  C   UNL     1      -3.173   6.914 132.087  0.00  0.00    +0.000 A 
ATOM     18  C   UNL     1      -2.313   5.856 131.739  0.00  0.00    +0.000 A 
ATOM     19  C   UNL     1      -0.941   5.921 131.991  0.00  0.00    +0.000 A 
ATOM     20  C   UNL     1      -0.398   7.059 132.581  0.00  0.00    +0.000 A 
ATOM     21  C   UNL     1      -1.228   8.125 132.924  0.00  0.00    +0.000 A 
ATOM     22  C   UNL     1      -2.605   8.054 132.678  0.00  0.00    +0.000 A 
ENDBRANCH   7  17
BRANCH   4  23
ATOM     23  N   UNL     1      -6.906   4.690 134.660  0.00  0.00    +0.000 N 
ATOM     24  H   UNL     1      -6.879   3.683 134.664  0.00  0.00    +0.000 HD
ATOM     25  H   UNL     1      -6.736   5.236 135.498  0.00  0.00    +0.000 HD
ENDBRANCH   4  23
TORSDOF 2
ENDMDL
MODEL 8
REMARK VINA RESULT:      -6.2      7.870      9.173
REMARK  Name = Triamterene
REMARK  2 active torsions:
REMARK  status: ('A' for Active; 'I' for Inactive)
REMARK    1  A    between atoms: C_4  and  N_5
REMARK    2  A    between atoms: C_8  and  C_14
REMARK                            x       y       z     vdW  Elec       q    Type
REMARK                         _______ _______ _______ _____ _____    ______ ____
ROOT
ATOM      1  N   UNL     1     -10.077   0.392 122.445  0.00  0.00    +0.000 N 
ATOM      2  C   UNL     1      -9.433  -0.314 123.427  0.00  0.00    +0.000 A 
ATOM      3  N   UNL     1      -9.441  -1.638 123.327  0.00  0.00    +0.000 NA
ATOM      4  C   UNL     1      -8.795  -2.316 124.292  0.00  0.00    +0.000 A 
ATOM      5  C   UNL     1      -8.133  -1.713 125.359  0.00  0.00    +0.000 A 
ATOM      6  N   UNL     1      -7.483  -2.442 126.322  0.00  0.00    +0.000 NA
ATOM      7  C   UNL     1      -6.917  -1.737 127.328  0.00  0.00    +0.000 A 
ATOM      8  C   UNL     1      -6.961  -0.334 127.345  0.00  0.00    +0.000 A 
ATOM      9  N   UNL     1      -6.449   0.399 128.412  0.00  0.00    +0.000 N 
ATOM     10  N   UNL     1      -7.602   0.358 126.368  0.00  0.00    +0.000 NA
ATOM     11  C   UNL     1      -8.201  -0.321 125.366  0.00  0.00    +0.000 A 
ATOM     12  N   UNL     1      -8.843   0.369 124.410  0.00  0.00    +0.000 NA
ATOM     13  H   UNL     1     -10.522  -0.118 121.701  0.00  0.00    +0.000 HD
ATOM     14  H   UNL     1     -10.090   1.394 122.496  0.00  0.00    +0.000 HD
ATOM     15  H   UNL     1      -5.769  -0.039 129.023  0.00  0.00    +0.000 HD
ATOM     16  H   UNL     1      -6.424   1.403 128.309  0.00  0.00    +0.000 HD
ENDROOT
BRANCH   7  17
ATOM     17  C   UNL     1      -6.256  -2.528 128.385  0.00  0.00    +0.000 A 
ATOM     18  C   UNL     1      -4.857  -2.680 128.399  0.00  0.00    +0.000 A 
ATOM     19  C   UNL     1      -4.223  -3.488 129.346  0.00  0.00    +0.000 A 
ATOM     20  C   UNL     1      -4.977  -4.145 130.312  0.00  0.00    +0.000 A 
ATOM     21  C   UNL     1      -6.364  -4.001 130.326  0.00  0.00    +0.000 A 
ATOM     22  C   UNL     1      -6.998  -3.198 129.370  0.00  0.00    +0.000 A 
ENDBRANCH   7  17
BRANCH   4  23
ATOM     23  N   UNL     1      -8.759  -3.698 124.158  0.00  0.00    +0.000 N 
ATOM     24  H   UNL     1      -9.544  -4.240 124.483  0.00  0.00    +0.000 HD
ATOM     25  H   UNL     1      -7.864  -4.123 123.942  0.00  0.00    +0.000 HD
ENDBRANCH   4  23
TORSDOF 2
ENDMDL
MODEL 9
REMARK VINA RESULT:      -6.1      3.283      4.976
REMARK  Name = Triamterene
REMARK  2 active torsions:
REMARK  status: ('A' for Active; 'I' for Inactive)
REMARK    1  A    between atoms: C_4  and  N_5
REMARK    2  A    between atoms: C_8  and  C_14
REMARK                            x       y       z     vdW  Elec       q    Type
REMARK                         _______ _______ _______ _____ _____    ______ ____
ROOT
ATOM      1  N   UNL     1     -11.388   6.046 132.112  0.00  0.00    +0.000 N 
ATOM      2  C   UNL     1     -10.234   5.776 131.426  0.00  0.00    +0.000 A 
ATOM      3  N   UNL     1      -9.214   6.608 131.603  0.00  0.00    +0.000 NA
ATOM      4  C   UNL     1      -8.083   6.324 130.932  0.00  0.00    +0.000 A 
ATOM      5  C   UNL     1      -7.935   5.227 130.086  0.00  0.00    +0.000 A 
ATOM      6  N   UNL     1      -6.763   4.971 129.421  0.00  0.00    +0.000 NA
ATOM      7  C   UNL     1      -6.763   3.899 128.596  0.00  0.00    +0.000 A 
ATOM      8  C   UNL     1      -7.894   3.076 128.476  0.00  0.00    +0.000 A 
ATOM      9  N   UNL     1      -7.932   2.016 127.575  0.00  0.00    +0.000 N 
ATOM     10  N   UNL     1      -9.035   3.351 129.159  0.00  0.00    +0.000 NA
ATOM     11  C   UNL     1      -9.073   4.432 129.968  0.00  0.00    +0.000 A 
ATOM     12  N   UNL     1     -10.208   4.704 130.632  0.00  0.00    +0.000 NA
ATOM     13  H   UNL     1     -11.412   6.852 132.713  0.00  0.00    +0.000 HD
ATOM     14  H   UNL     1     -12.177   5.435 131.995  0.00  0.00    +0.000 HD
ATOM     15  H   UNL     1      -7.057   1.634 127.234  0.00  0.00    +0.000 HD
ATOM     16  H   UNL     1      -8.737   1.408 127.616  0.00  0.00    +0.000 HD
ENDROOT
BRANCH   7  17
ATOM     17  C   UNL     1      -5.513   3.653 127.850  0.00  0.00    +0.000 A 
ATOM     18  C   UNL     1      -4.429   2.996 128.461  0.00  0.00    +0.000 A 
ATOM     19  C   UNL     1      -3.214   2.824 127.794  0.00  0.00    +0.000 A 
ATOM     20  C   UNL     1      -3.066   3.290 126.492  0.00  0.00    +0.000 A 
ATOM     21  C   UNL     1      -4.129   3.933 125.861  0.00  0.00    +0.000 A 
ATOM     22  C   UNL     1      -5.344   4.113 126.534  0.00  0.00    +0.000 A 
ENDBRANCH   7  17
BRANCH   4  23
ATOM     23  N   UNL     1      -7.002   7.165 131.159  0.00  0.00    +0.000 N 
ATOM     24  H   UNL     1      -6.415   6.998 131.961  0.00  0.00    +0.000 HD
ATOM     25  H   UNL     1      -6.972   8.037 130.642  0.00  0.00    +0.000 HD
ENDBRANCH   4  23
TORSDOF 2
ENDMDL
