MODEL 1
REMARK VINA RESULT:      -8.2      0.000      0.000
REMARK  Name = Triamcinolone
REMARK  8 active torsions:
REMARK  status: ('A' for Active; 'I' for Inactive)
REMARK    1  A    between atoms: C_4  and  O_5
REMARK    2  A    between atoms: C_6  and  O_7
REMARK    3  A    between atoms: C_6  and  C_8
REMARK    4  A    between atoms: C_8  and  C_10
REMARK    5  A    between atoms: C_10  and  O_11
REMARK    6  A    between atoms: C_12  and  C_13
REMARK    7  A    between atoms: C_15  and  O_16
REMARK    8  A    between atoms: C_29  and  C_30
REMARK                            x       y       z     vdW  Elec       q    Type
REMARK                         _______ _______ _______ _____ _____    ______ ____
ROOT
ATOM      1  C   UNL     1      -5.696  -1.878 125.075  0.00  0.00    +0.000 C 
ATOM      2  C   UNL     1      -6.046  -3.256 124.920  0.00  0.00    +0.000 C 
ATOM      3  C   UNL     1      -7.329  -2.443 125.057  0.00  0.00    +0.000 C 
ATOM      4  C   UNL     1      -7.054  -0.381 124.936  0.00  0.00    +0.000 C 
ATOM      5  C   UNL     1      -7.119  -1.286 123.963  0.00  0.00    +0.000 C 
ATOM      6  C   UNL     1      -6.796  -1.316 122.520  0.00  0.00    +0.000 C 
ATOM      7  C   UNL     1      -8.863  -1.146 124.690  0.00  0.00    +0.000 C 
ATOM      8  C   UNL     1      -8.714  -0.900 126.526  0.00  0.00    +0.000 C 
ATOM      9  C   UNL     1      -7.360  -1.588 127.461  0.00  0.00    +0.000 C 
ATOM     10  F   UNL     1      -7.196  -2.898 127.014  0.00  0.00    +0.000 F 
ATOM     11  C   UNL     1      -5.854  -1.367 126.830  0.00  0.00    +0.000 C 
ATOM     12  C   UNL     1      -4.911  -2.358 127.548  0.00  0.00    +0.000 C 
ATOM     13  C   UNL     1      -5.124  -2.327 129.027  0.00  0.00    +0.000 C 
ATOM     14  C   UNL     1      -6.426  -3.033 129.297  0.00  0.00    +0.000 C 
ATOM     15  C   UNL     1      -6.596  -3.969 130.259  0.00  0.00    +0.000 C 
ATOM     16  C   UNL     1      -6.241  -3.105 131.369  0.00  0.00    +0.000 C 
ATOM     17  O   UNL     1      -5.151  -3.085 131.901  0.00  0.00    +0.000 OA
ATOM     18  C   UNL     1      -7.438  -2.207 131.545  0.00  0.00    +0.000 C 
ATOM     19  C   UNL     1      -8.075  -1.708 130.404  0.00  0.00    +0.000 C 
ATOM     20  C   UNL     1      -7.703  -2.291 128.929  0.00  0.00    +0.000 C 
ATOM     21  C   UNL     1      -8.604  -3.622 128.464  0.00  0.00    +0.000 C 
ENDROOT
BRANCH   3  22
ATOM     22  O   UNL     1      -8.497  -3.337 125.640  0.00  0.00    +0.000 OA
ATOM     23  H   UNL     1      -8.992  -3.889 125.017  0.00  0.00    +0.000 HD
ENDBRANCH   3  22
BRANCH   4  24
ATOM     24  O   UNL     1      -5.678   0.238 124.660  0.00  0.00    +0.000 OA
ATOM     25  H   UNL     1      -5.191   0.561 125.428  0.00  0.00    +0.000 HD
ENDBRANCH   4  24
BRANCH   4  26
ATOM     26  C   UNL     1      -7.814   1.007 123.983  0.00  0.00    +0.000 C 
ATOM     27  O   UNL     1      -7.171   1.985 123.562  0.00  0.00    +0.000 OA
BRANCH  26  28
ATOM     28  C   UNL     1      -9.374   1.166 123.695  0.00  0.00    +0.000 C 
BRANCH  28  29
ATOM     29  O   UNL     1      -9.957   2.193 124.541  0.00  0.00    +0.000 OA
ATOM     30  H   UNL     1      -9.390   2.989 124.481  0.00  0.00    +0.000 HD
ENDBRANCH  28  29
ENDBRANCH  26  28
ENDBRANCH   4  26
BRANCH   8  31
ATOM     31  O   UNL     1      -8.768   0.524 126.735  0.00  0.00    +0.000 OA
ATOM     32  H   UNL     1      -8.336   0.765 127.567  0.00  0.00    +0.000 HD
ENDBRANCH   8  31
TORSDOF 6
ENDMDL
MODEL 2
REMARK VINA RESULT:      -8.0      2.339      6.254
REMARK  Name = Triamcinolone
REMARK  8 active torsions:
REMARK  status: ('A' for Active; 'I' for Inactive)
REMARK    1  A    between atoms: C_4  and  O_5
REMARK    2  A    between atoms: C_6  and  O_7
REMARK    3  A    between atoms: C_6  and  C_8
REMARK    4  A    between atoms: C_8  and  C_10
REMARK    5  A    between atoms: C_10  and  O_11
REMARK    6  A    between atoms: C_12  and  C_13
REMARK    7  A    between atoms: C_15  and  O_16
REMARK    8  A    between atoms: C_29  and  C_30
REMARK                            x       y       z     vdW  Elec       q    Type
REMARK                         _______ _______ _______ _____ _____    ______ ____
ROOT
ATOM      1  C   UNL     1      -7.183  -3.291 130.467  0.00  0.00    +0.000 C 
ATOM      2  C   UNL     1      -6.138  -4.134 129.974  0.00  0.00    +0.000 C 
ATOM      3  C   UNL     1      -5.673  -2.685 129.884  0.00  0.00    +0.000 C 
ATOM      4  C   UNL     1      -6.901  -1.328 130.880  0.00  0.00    +0.000 C 
ATOM      5  C   UNL     1      -5.966  -2.140 131.366  0.00  0.00    +0.000 C 
ATOM      6  C   UNL     1      -5.575  -2.621 132.709  0.00  0.00    +0.000 C 
ATOM      7  C   UNL     1      -5.060  -0.801 130.379  0.00  0.00    +0.000 C 
ATOM      8  C   UNL     1      -6.080  -0.385 128.882  0.00  0.00    +0.000 C 
ATOM      9  C   UNL     1      -7.120  -1.597 128.085  0.00  0.00    +0.000 C 
ATOM     10  F   UNL     1      -6.366  -2.766 127.995  0.00  0.00    +0.000 F 
ATOM     11  C   UNL     1      -8.079  -2.496 129.078  0.00  0.00    +0.000 C 
ATOM     12  C   UNL     1      -8.564  -3.713 128.260  0.00  0.00    +0.000 C 
ATOM     13  C   UNL     1      -9.053  -3.294 126.911  0.00  0.00    +0.000 C 
ATOM     14  C   UNL     1      -7.837  -2.953 126.091  0.00  0.00    +0.000 C 
ATOM     15  C   UNL     1      -7.632  -3.380 124.824  0.00  0.00    +0.000 C 
ATOM     16  C   UNL     1      -8.817  -2.759 124.265  0.00  0.00    +0.000 C 
ATOM     17  O   UNL     1      -9.860  -3.340 124.051  0.00  0.00    +0.000 OA
ATOM     18  C   UNL     1      -8.477  -1.292 124.195  0.00  0.00    +0.000 C 
ATOM     19  C   UNL     1      -7.781  -0.715 125.262  0.00  0.00    +0.000 C 
ATOM     20  C   UNL     1      -7.124  -1.649 126.424  0.00  0.00    +0.000 C 
ATOM     21  C   UNL     1      -5.564  -2.163 126.097  0.00  0.00    +0.000 C 
ENDROOT
BRANCH   3  22
ATOM     22  O   UNL     1      -4.591  -2.515 128.743  0.00  0.00    +0.000 OA
ATOM     23  H   UNL     1      -4.908  -2.301 127.853  0.00  0.00    +0.000 HD
ENDBRANCH   3  22
BRANCH   4  24
ATOM     24  O   UNL     1      -8.124  -1.782 131.686  0.00  0.00    +0.000 OA
ATOM     25  H   UNL     1      -7.949  -2.154 132.558  0.00  0.00    +0.000 HD
ENDBRANCH   4  24
BRANCH   4  26
ATOM     26  C   UNL     1      -6.659   0.032 132.107  0.00  0.00    +0.000 C 
ATOM     27  O   UNL     1      -7.488   0.318 132.989  0.00  0.00    +0.000 OA
BRANCH  26  28
ATOM     28  C   UNL     1      -5.432   1.051 132.106  0.00  0.00    +0.000 C 
BRANCH  28  29
ATOM     29  O   UNL     1      -5.835   2.348 131.592  0.00  0.00    +0.000 OA
ATOM     30  H   UNL     1      -6.761   2.273 131.280  0.00  0.00    +0.000 HD
ENDBRANCH  28  29
ENDBRANCH  26  28
ENDBRANCH   4  26
BRANCH   8  31
ATOM     31  O   UNL     1      -6.872   0.758 129.253  0.00  0.00    +0.000 OA
ATOM     32  H   UNL     1      -6.711   1.003 130.176  0.00  0.00    +0.000 HD
ENDBRANCH   8  31
TORSDOF 6
ENDMDL
MODEL 3
REMARK VINA RESULT:      -8.0      6.931      7.669
REMARK  Name = Triamcinolone
REMARK  8 active torsions:
REMARK  status: ('A' for Active; 'I' for Inactive)
REMARK    1  A    between atoms: C_4  and  O_5
REMARK    2  A    between atoms: C_6  and  O_7
REMARK    3  A    between atoms: C_6  and  C_8
REMARK    4  A    between atoms: C_8  and  C_10
REMARK    5  A    between atoms: C_10  and  O_11
REMARK    6  A    between atoms: C_12  and  C_13
REMARK    7  A    between atoms: C_15  and  O_16
REMARK    8  A    between atoms: C_29  and  C_30
REMARK                            x       y       z     vdW  Elec       q    Type
REMARK                         _______ _______ _______ _____ _____    ______ ____
ROOT
ATOM      1  C   UNL     1      -3.731   4.275 127.057  0.00  0.00    +0.000 C 
ATOM      2  C   UNL     1      -2.938   3.151 127.454  0.00  0.00    +0.000 C 
ATOM      3  C   UNL     1      -4.316   3.023 128.096  0.00  0.00    +0.000 C 
ATOM      4  C   UNL     1      -5.732   4.364 127.363  0.00  0.00    +0.000 C 
ATOM      5  C   UNL     1      -5.298   3.220 126.841  0.00  0.00    +0.000 C 
ATOM      6  C   UNL     1      -5.388   2.554 125.523  0.00  0.00    +0.000 C 
ATOM      7  C   UNL     1      -6.323   2.765 128.367  0.00  0.00    +0.000 C 
ATOM      8  C   UNL     1      -6.021   4.045 129.680  0.00  0.00    +0.000 C 
ATOM      9  C   UNL     1      -4.462   4.901 129.818  0.00  0.00    +0.000 C 
ATOM     10  F   UNL     1      -3.466   3.936 129.677  0.00  0.00    +0.000 F 
ATOM     11  C   UNL     1      -3.836   5.502 128.416  0.00  0.00    +0.000 C 
ATOM     12  C   UNL     1      -2.349   5.823 128.685  0.00  0.00    +0.000 C 
ATOM     13  C   UNL     1      -2.183   6.570 129.969  0.00  0.00    +0.000 C 
ATOM     14  C   UNL     1      -2.395   5.580 131.082  0.00  0.00    +0.000 C 
ATOM     15  C   UNL     1      -1.584   5.464 132.159  0.00  0.00    +0.000 C 
ATOM     16  C   UNL     1      -1.778   6.820 132.636  0.00  0.00    +0.000 C 
ATOM     17  O   UNL     1      -1.006   7.734 132.437  0.00  0.00    +0.000 OA
ATOM     18  C   UNL     1      -3.158   6.813 133.241  0.00  0.00    +0.000 C 
ATOM     19  C   UNL     1      -4.176   6.117 132.579  0.00  0.00    +0.000 C 
ATOM     20  C   UNL     1      -3.825   5.122 131.337  0.00  0.00    +0.000 C 
ATOM     21  C   UNL     1      -3.474   3.549 131.790  0.00  0.00    +0.000 C 
ENDROOT
BRANCH   3  22
ATOM     22  O   UNL     1      -4.235   2.169 129.425  0.00  0.00    +0.000 OA
ATOM     23  H   UNL     1      -3.997   1.234 129.344  0.00  0.00    +0.000 HD
ENDBRANCH   3  22
BRANCH   4  24
ATOM     24  O   UNL     1      -5.410   5.340 126.224  0.00  0.00    +0.000 OA
ATOM     25  H   UNL     1      -6.157   5.641 125.693  0.00  0.00    +0.000 HD
ENDBRANCH   4  24
BRANCH   4  26
ATOM     26  C   UNL     1      -7.457   4.252 126.712  0.00  0.00    +0.000 C 
ATOM     27  O   UNL     1      -8.366   5.037 127.033  0.00  0.00    +0.000 OA
BRANCH  26  28
ATOM     28  C   UNL     1      -8.000   3.085 125.769  0.00  0.00    +0.000 C 
BRANCH  28  29
ATOM     29  O   UNL     1      -9.126   3.541 124.974  0.00  0.00    +0.000 OA
ATOM     30  H   UNL     1      -9.733   4.033 125.566  0.00  0.00    +0.000 HD
ENDBRANCH  28  29
ENDBRANCH  26  28
ENDBRANCH   4  26
BRANCH   8  31
ATOM     31  O   UNL     1      -7.085   5.005 129.543  0.00  0.00    +0.000 OA
ATOM     32  H   UNL     1      -7.682   4.967 130.304  0.00  0.00    +0.000 HD
ENDBRANCH   8  31
TORSDOF 6
ENDMDL
MODEL 4
REMARK VINA RESULT:      -7.9      1.831      3.110
REMARK  Name = Triamcinolone
REMARK  8 active torsions:
REMARK  status: ('A' for Active; 'I' for Inactive)
REMARK    1  A    between atoms: C_4  and  O_5
REMARK    2  A    between atoms: C_6  and  O_7
REMARK    3  A    between atoms: C_6  and  C_8
REMARK    4  A    between atoms: C_8  and  C_10
REMARK    5  A    between atoms: C_10  and  O_11
REMARK    6  A    between atoms: C_12  and  C_13
REMARK    7  A    between atoms: C_15  and  O_16
REMARK    8  A    between atoms: C_29  and  C_30
REMARK                            x       y       z     vdW  Elec       q    Type
REMARK                         _______ _______ _______ _____ _____    ______ ____
ROOT
ATOM      1  C   UNL     1      -7.008   2.322 126.351  0.00  0.00    +0.000 C 
ATOM      2  C   UNL     1      -5.609   2.021 126.365  0.00  0.00    +0.000 C 
ATOM      3  C   UNL     1      -6.285   1.135 125.324  0.00  0.00    +0.000 C 
ATOM      4  C   UNL     1      -8.254   1.663 124.897  0.00  0.00    +0.000 C 
ATOM      5  C   UNL     1      -7.118   2.198 124.458  0.00  0.00    +0.000 C 
ATOM      6  C   UNL     1      -6.734   3.444 123.758  0.00  0.00    +0.000 C 
ATOM      7  C   UNL     1      -7.260   0.491 123.650  0.00  0.00    +0.000 C 
ATOM      8  C   UNL     1      -8.008  -0.680 124.883  0.00  0.00    +0.000 C 
ATOM      9  C   UNL     1      -7.750  -0.491 126.639  0.00  0.00    +0.000 C 
ATOM     10  F   UNL     1      -6.393  -0.220 126.811  0.00  0.00    +0.000 F 
ATOM     11  C   UNL     1      -7.954   1.028 127.243  0.00  0.00    +0.000 C 
ATOM     12  C   UNL     1      -7.302   1.051 128.644  0.00  0.00    +0.000 C 
ATOM     13  C   UNL     1      -7.708  -0.144 129.445  0.00  0.00    +0.000 C 
ATOM     14  C   UNL     1      -6.965  -1.325 128.879  0.00  0.00    +0.000 C 
ATOM     15  C   UNL     1      -6.311  -2.241 129.631  0.00  0.00    +0.000 C 
ATOM     16  C   UNL     1      -7.476  -2.678 130.376  0.00  0.00    +0.000 C 
ATOM     17  O   UNL     1      -7.758  -2.297 131.493  0.00  0.00    +0.000 OA
ATOM     18  C   UNL     1      -8.254  -3.522 129.400  0.00  0.00    +0.000 C 
ATOM     19  C   UNL     1      -8.353  -3.092 128.073  0.00  0.00    +0.000 C 
ATOM     20  C   UNL     1      -7.437  -1.857 127.533  0.00  0.00    +0.000 C 
ATOM     21  C   UNL     1      -5.940  -2.315 126.941  0.00  0.00    +0.000 C 
ENDROOT
BRANCH   3  22
ATOM     22  O   UNL     1      -5.461  -0.198 125.107  0.00  0.00    +0.000 OA
ATOM     23  H   UNL     1      -4.519  -0.185 125.332  0.00  0.00    +0.000 HD
ENDBRANCH   3  22
BRANCH   4  24
ATOM     24  O   UNL     1      -8.921   2.888 125.535  0.00  0.00    +0.000 OA
ATOM     25  H   UNL     1      -8.464   3.731 125.427  0.00  0.00    +0.000 HD
ENDBRANCH   4  24
BRANCH   4  26
ATOM     26  C   UNL     1      -9.243   1.984 123.369  0.00  0.00    +0.000 C 
ATOM     27  O   UNL     1      -9.038   2.944 122.606  0.00  0.00    +0.000 OA
BRANCH  26  28
ATOM     28  C   UNL     1     -10.525   1.146 122.923  0.00  0.00    +0.000 C 
BRANCH  28  29
ATOM     29  O   UNL     1     -11.590   1.265 123.904  0.00  0.00    +0.000 OA
ATOM     30  H   UNL     1     -12.421   1.461 123.422  0.00  0.00    +0.000 HD
ENDBRANCH  28  29
ENDBRANCH  26  28
ENDBRANCH   4  26
BRANCH   8  31
ATOM     31  O   UNL     1      -9.421  -0.692 124.605  0.00  0.00    +0.000 OA
ATOM     32  H   UNL     1      -9.633  -1.353 123.931  0.00  0.00    +0.000 HD
ENDBRANCH   8  31
TORSDOF 6
ENDMDL
MODEL 5
REMARK VINA RESULT:      -7.9      3.210      5.671
REMARK  Name = Triamcinolone
REMARK  8 active torsions:
REMARK  status: ('A' for Active; 'I' for Inactive)
REMARK    1  A    between atoms: C_4  and  O_5
REMARK    2  A    between atoms: C_6  and  O_7
REMARK    3  A    between atoms: C_6  and  C_8
REMARK    4  A    between atoms: C_8  and  C_10
REMARK    5  A    between atoms: C_10  and  O_11
REMARK    6  A    between atoms: C_12  and  C_13
REMARK    7  A    between atoms: C_15  and  O_16
REMARK    8  A    between atoms: C_29  and  C_30
REMARK                            x       y       z     vdW  Elec       q    Type
REMARK                         _______ _______ _______ _____ _____    ______ ____
ROOT
ATOM      1  C   UNL     1      -8.100   2.428 127.426  0.00  0.00    +0.000 C 
ATOM      2  C   UNL     1      -8.703   1.786 128.554  0.00  0.00    +0.000 C 
ATOM      3  C   UNL     1      -7.218   1.440 128.537  0.00  0.00    +0.000 C 
ATOM      4  C   UNL     1      -6.093   2.558 127.185  0.00  0.00    +0.000 C 
ATOM      5  C   UNL     1      -6.532   2.885 128.397  0.00  0.00    +0.000 C 
ATOM      6  C   UNL     1      -6.659   4.136 129.176  0.00  0.00    +0.000 C 
ATOM      7  C   UNL     1      -5.183   1.578 128.645  0.00  0.00    +0.000 C 
ATOM      8  C   UNL     1      -5.313   0.336 127.269  0.00  0.00    +0.000 C 
ATOM      9  C   UNL     1      -6.874  -0.060 126.501  0.00  0.00    +0.000 C 
ATOM     10  F   UNL     1      -7.796  -0.208 127.535  0.00  0.00    +0.000 F 
ATOM     11  C   UNL     1      -7.818   1.221 126.073  0.00  0.00    +0.000 C 
ATOM     12  C   UNL     1      -9.240   0.672 125.820  0.00  0.00    +0.000 C 
ATOM     13  C   UNL     1      -9.199  -0.555 124.969  0.00  0.00    +0.000 C 
ATOM     14  C   UNL     1      -8.686  -1.673 125.836  0.00  0.00    +0.000 C 
ATOM     15  C   UNL     1      -9.248  -2.903 125.901  0.00  0.00    +0.000 C 
ATOM     16  C   UNL     1      -9.069  -3.220 124.497  0.00  0.00    +0.000 C 
ATOM     17  O   UNL     1      -9.936  -3.117 123.655  0.00  0.00    +0.000 OA
ATOM     18  C   UNL     1      -7.599  -3.520 124.362  0.00  0.00    +0.000 C 
ATOM     19  C   UNL     1      -6.686  -2.716 125.053  0.00  0.00    +0.000 C 
ATOM     20  C   UNL     1      -7.202  -1.657 126.179  0.00  0.00    +0.000 C 
ATOM     21  C   UNL     1      -7.327  -2.295 127.722  0.00  0.00    +0.000 C 
ENDROOT
BRANCH   3  22
ATOM     22  O   UNL     1      -6.957   0.061 129.266  0.00  0.00    +0.000 OA
ATOM     23  H   UNL     1      -7.631  -0.628 129.176  0.00  0.00    +0.000 HD
ENDBRANCH   3  22
BRANCH   4  24
ATOM     24  O   UNL     1      -6.717   3.676 126.342  0.00  0.00    +0.000 OA
ATOM     25  H   UNL     1      -6.194   4.481 126.241  0.00  0.00    +0.000 HD
ENDBRANCH   4  24
BRANCH   4  26
ATOM     26  C   UNL     1      -4.533   3.546 127.251  0.00  0.00    +0.000 C 
ATOM     27  O   UNL     1      -4.335   4.565 126.567  0.00  0.00    +0.000 OA
BRANCH  26  28
ATOM     28  C   UNL     1      -3.239   3.148 128.095  0.00  0.00    +0.000 C 
BRANCH  28  29
ATOM     29  O   UNL     1      -2.202   2.608 127.232  0.00  0.00    +0.000 OA
ATOM     30  H   UNL     1      -2.262   1.631 127.267  0.00  0.00    +0.000 HD
ENDBRANCH  28  29
ENDBRANCH  26  28
ENDBRANCH   4  26
BRANCH   8  31
ATOM     31  O   UNL     1      -4.378   0.768 126.262  0.00  0.00    +0.000 OA
ATOM     32  H   UNL     1      -4.805   0.814 125.395  0.00  0.00    +0.000 HD
ENDBRANCH   8  31
TORSDOF 6
ENDMDL
MODEL 6
REMARK VINA RESULT:      -7.8      1.747      3.072
REMARK  Name = Triamcinolone
REMARK  8 active torsions:
REMARK  status: ('A' for Active; 'I' for Inactive)
REMARK    1  A    between atoms: C_4  and  O_5
REMARK    2  A    between atoms: C_6  and  O_7
REMARK    3  A    between atoms: C_6  and  C_8
REMARK    4  A    between atoms: C_8  and  C_10
REMARK    5  A    between atoms: C_10  and  O_11
REMARK    6  A    between atoms: C_12  and  C_13
REMARK    7  A    between atoms: C_15  and  O_16
REMARK    8  A    between atoms: C_29  and  C_30
REMARK                            x       y       z     vdW  Elec       q    Type
REMARK                         _______ _______ _______ _____ _____    ______ ____
ROOT
ATOM      1  C   UNL     1      -7.462   1.069 126.029  0.00  0.00    +0.000 C 
ATOM      2  C   UNL     1      -6.048   1.250 126.160  0.00  0.00    +0.000 C 
ATOM      3  C   UNL     1      -6.309  -0.154 125.626  0.00  0.00    +0.000 C 
ATOM      4  C   UNL     1      -8.276  -0.492 125.029  0.00  0.00    +0.000 C 
ATOM      5  C   UNL     1      -7.291   0.128 124.387  0.00  0.00    +0.000 C 
ATOM      6  C   UNL     1      -7.187   1.011 123.205  0.00  0.00    +0.000 C 
ATOM      7  C   UNL     1      -6.843  -1.712 124.419  0.00  0.00    +0.000 C 
ATOM      8  C   UNL     1      -7.382  -2.418 126.051  0.00  0.00    +0.000 C 
ATOM      9  C   UNL     1      -7.413  -1.434 127.538  0.00  0.00    +0.000 C 
ATOM     10  F   UNL     1      -6.221  -0.712 127.559  0.00  0.00    +0.000 F 
ATOM     11  C   UNL     1      -8.111   0.053 127.411  0.00  0.00    +0.000 C 
ATOM     12  C   UNL     1      -7.676   0.866 128.651  0.00  0.00    +0.000 C 
ATOM     13  C   UNL     1      -7.828   0.063 129.902  0.00  0.00    +0.000 C 
ATOM     14  C   UNL     1      -6.718  -0.953 129.908  0.00  0.00    +0.000 C 
ATOM     15  C   UNL     1      -5.934  -1.214 130.980  0.00  0.00    +0.000 C 
ATOM     16  C   UNL     1      -7.013  -1.630 131.854  0.00  0.00    +0.000 C 
ATOM     17  O   UNL     1      -7.531  -0.920 132.691  0.00  0.00    +0.000 OA
ATOM     18  C   UNL     1      -7.391  -3.003 131.361  0.00  0.00    +0.000 C 
ATOM     19  C   UNL     1      -7.438  -3.228 129.981  0.00  0.00    +0.000 C 
ATOM     20  C   UNL     1      -6.845  -2.123 128.941  0.00  0.00    +0.000 C 
ATOM     21  C   UNL     1      -5.217  -2.301 128.597  0.00  0.00    +0.000 C 
ENDROOT
BRANCH   3  22
ATOM     22  O   UNL     1      -5.123  -1.127 126.011  0.00  0.00    +0.000 OA
ATOM     23  H   UNL     1      -4.610  -0.917 126.805  0.00  0.00    +0.000 HD
ENDBRANCH   3  22
BRANCH   4  24
ATOM     24  O   UNL     1      -9.337   0.615 125.067  0.00  0.00    +0.000 OA
ATOM     25  H   UNL     1      -9.207   1.354 124.461  0.00  0.00    +0.000 HD
ENDBRANCH   4  24
BRANCH   4  26
ATOM     26  C   UNL     1      -9.112  -1.171 123.528  0.00  0.00    +0.000 C 
ATOM     27  O   UNL     1      -9.932  -0.530 122.848  0.00  0.00    +0.000 OA
BRANCH  26  28
ATOM     28  C   UNL     1      -8.968  -2.672 123.007  0.00  0.00    +0.000 C 
BRANCH  28  29
ATOM     29  O   UNL     1     -10.122  -3.468 123.390  0.00  0.00    +0.000 OA
ATOM     30  H   UNL     1     -10.839  -2.852 123.647  0.00  0.00    +0.000 HD
ENDBRANCH  28  29
ENDBRANCH  26  28
ENDBRANCH   4  26
BRANCH   8  31
ATOM     31  O   UNL     1      -8.687  -2.982 125.821  0.00  0.00    +0.000 OA
ATOM     32  H   UNL     1      -8.825  -3.765 126.374  0.00  0.00    +0.000 HD
ENDBRANCH   8  31
TORSDOF 6
ENDMDL
MODEL 7
REMARK VINA RESULT:      -7.5      4.505      6.663
REMARK  Name = Triamcinolone
REMARK  8 active torsions:
REMARK  status: ('A' for Active; 'I' for Inactive)
REMARK    1  A    between atoms: C_4  and  O_5
REMARK    2  A    between atoms: C_6  and  O_7
REMARK    3  A    between atoms: C_6  and  C_8
REMARK    4  A    between atoms: C_8  and  C_10
REMARK    5  A    between atoms: C_10  and  O_11
REMARK    6  A    between atoms: C_12  and  C_13
REMARK    7  A    between atoms: C_15  and  O_16
REMARK    8  A    between atoms: C_29  and  C_30
REMARK                            x       y       z     vdW  Elec       q    Type
REMARK                         _______ _______ _______ _____ _____    ______ ____
ROOT
ATOM      1  C   UNL     1      -8.949   2.080 132.519  0.00  0.00    +0.000 C 
ATOM      2  C   UNL     1      -7.714   2.172 133.236  0.00  0.00    +0.000 C 
ATOM      3  C   UNL     1      -7.577   2.953 131.933  0.00  0.00    +0.000 C 
ATOM      4  C   UNL     1      -9.372   3.242 130.914  0.00  0.00    +0.000 C 
ATOM      5  C   UNL     1      -8.877   3.895 131.962  0.00  0.00    +0.000 C 
ATOM      6  C   UNL     1      -9.406   4.846 132.964  0.00  0.00    +0.000 C 
ATOM      7  C   UNL     1      -7.802   4.364 130.474  0.00  0.00    +0.000 C 
ATOM      8  C   UNL     1      -7.612   2.864 129.393  0.00  0.00    +0.000 C 
ATOM      9  C   UNL     1      -7.614   1.212 130.067  0.00  0.00    +0.000 C 
ATOM     10  F   UNL     1      -6.801   1.246 131.199  0.00  0.00    +0.000 F 
ATOM     11  C   UNL     1      -8.810   0.869 131.148  0.00  0.00    +0.000 C 
ATOM     12  C   UNL     1      -8.395  -0.421 131.889  0.00  0.00    +0.000 C 
ATOM     13  C   UNL     1      -7.921  -1.464 130.929  0.00  0.00    +0.000 C 
ATOM     14  C   UNL     1      -6.556  -1.038 130.458  0.00  0.00    +0.000 C 
ATOM     15  C   UNL     1      -5.485  -1.862 130.392  0.00  0.00    +0.000 C 
ATOM     16  C   UNL     1      -6.078  -2.800 129.460  0.00  0.00    +0.000 C 
ATOM     17  O   UNL     1      -6.584  -3.856 129.778  0.00  0.00    +0.000 OA
ATOM     18  C   UNL     1      -6.047  -2.086 128.133  0.00  0.00    +0.000 C 
ATOM     19  C   UNL     1      -6.362  -0.723 128.099  0.00  0.00    +0.000 C 
ATOM     20  C   UNL     1      -6.496   0.129 129.481  0.00  0.00    +0.000 C 
ATOM     21  C   UNL     1      -5.060   0.796 130.025  0.00  0.00    +0.000 C 
ENDROOT
BRANCH   3  22
ATOM     22  O   UNL     1      -6.063   3.021 131.479  0.00  0.00    +0.000 OA
ATOM     23  H   UNL     1      -5.559   3.812 131.718  0.00  0.00    +0.000 HD
ENDBRANCH   3  22
BRANCH   4  24
ATOM     24  O   UNL     1     -10.713   2.761 131.483  0.00  0.00    +0.000 OA
ATOM     25  H   UNL     1     -10.703   2.440 132.393  0.00  0.00    +0.000 HD
ENDBRANCH   4  24
BRANCH   4  26
ATOM     26  C   UNL     1     -10.261   4.679 130.169  0.00  0.00    +0.000 C 
ATOM     27  O   UNL     1     -11.491   4.710 129.990  0.00  0.00    +0.000 OA
BRANCH  26  28
ATOM     28  C   UNL     1      -9.551   5.978 129.573  0.00  0.00    +0.000 C 
BRANCH  28  29
ATOM     29  O   UNL     1      -9.540   5.943 128.121  0.00  0.00    +0.000 OA
ATOM     30  H   UNL     1      -8.931   5.228 127.842  0.00  0.00    +0.000 HD
ENDBRANCH  28  29
ENDBRANCH  26  28
ENDBRANCH   4  26
BRANCH   8  31
ATOM     31  O   UNL     1      -8.637   2.973 128.388  0.00  0.00    +0.000 OA
ATOM     32  H   UNL     1      -8.679   3.874 128.037  0.00  0.00    +0.000 HD
ENDBRANCH   8  31
TORSDOF 6
ENDMDL
MODEL 8
REMARK VINA RESULT:      -7.4      2.022      6.390
REMARK  Name = Triamcinolone
REMARK  8 active torsions:
REMARK  status: ('A' for Active; 'I' for Inactive)
REMARK    1  A    between atoms: C_4  and  O_5
REMARK    2  A    between atoms: C_6  and  O_7
REMARK    3  A    between atoms: C_6  and  C_8
REMARK    4  A    between atoms: C_8  and  C_10
REMARK    5  A    between atoms: C_10  and  O_11
REMARK    6  A    between atoms: C_12  and  C_13
REMARK    7  A    between atoms: C_15  and  O_16
REMARK    8  A    between atoms: C_29  and  C_30
REMARK                            x       y       z     vdW  Elec       q    Type
REMARK                         _______ _______ _______ _____ _____    ______ ____
ROOT
ATOM      1  C   UNL     1      -5.043  -1.255 128.145  0.00  0.00    +0.000 C 
ATOM      2  C   UNL     1      -5.493   0.100 128.052  0.00  0.00    +0.000 C 
ATOM      3  C   UNL     1      -6.587  -0.729 128.716  0.00  0.00    +0.000 C 
ATOM      4  C   UNL     1      -5.993  -2.649 129.267  0.00  0.00    +0.000 C 
ATOM      5  C   UNL     1      -5.782  -1.487 129.880  0.00  0.00    +0.000 C 
ATOM      6  C   UNL     1      -4.903  -1.008 130.969  0.00  0.00    +0.000 C 
ATOM      7  C   UNL     1      -7.630  -1.864 130.055  0.00  0.00    +0.000 C 
ATOM      8  C   UNL     1      -8.216  -2.666 128.484  0.00  0.00    +0.000 C 
ATOM      9  C   UNL     1      -7.481  -2.288 126.903  0.00  0.00    +0.000 C 
ATOM     10  F   UNL     1      -7.338  -0.902 126.855  0.00  0.00    +0.000 F 
ATOM     11  C   UNL     1      -5.834  -2.286 126.850  0.00  0.00    +0.000 C 
ATOM     12  C   UNL     1      -5.422  -1.557 125.552  0.00  0.00    +0.000 C 
ATOM     13  C   UNL     1      -6.218  -2.047 124.385  0.00  0.00    +0.000 C 
ATOM     14  C   UNL     1      -7.602  -1.474 124.526  0.00  0.00    +0.000 C 
ATOM     15  C   UNL     1      -8.285  -0.883 123.517  0.00  0.00    +0.000 C 
ATOM     16  C   UNL     1      -8.298  -2.045 122.649  0.00  0.00    +0.000 C 
ATOM     17  O   UNL     1      -7.532  -2.218 121.725  0.00  0.00    +0.000 OA
ATOM     18  C   UNL     1      -9.319  -2.966 123.266  0.00  0.00    +0.000 C 
ATOM     19  C   UNL     1      -9.351  -3.093 124.659  0.00  0.00    +0.000 C 
ATOM     20  C   UNL     1      -8.494  -2.078 125.602  0.00  0.00    +0.000 C 
ATOM     21  C   UNL     1      -9.306  -0.677 126.026  0.00  0.00    +0.000 C 
ENDROOT
BRANCH   3  22
ATOM     22  O   UNL     1      -8.007  -0.072 128.480  0.00  0.00    +0.000 OA
ATOM     23  H   UNL     1      -8.122   0.472 127.687  0.00  0.00    +0.000 HD
ENDBRANCH   3  22
BRANCH   4  24
ATOM     24  O   UNL     1      -4.552  -3.138 129.074  0.00  0.00    +0.000 OA
ATOM     25  H   UNL     1      -4.407  -3.776 128.365  0.00  0.00    +0.000 HD
ENDBRANCH   4  24
BRANCH   4  26
ATOM     26  C   UNL     1      -6.086  -3.681 130.796  0.00  0.00    +0.000 C 
ATOM     27  O   UNL     1      -5.715  -4.867 130.849  0.00  0.00    +0.000 OA
BRANCH  26  28
ATOM     28  C   UNL     1      -6.747  -3.214 132.170  0.00  0.00    +0.000 C 
BRANCH  28  29
ATOM     29  O   UNL     1      -5.907  -3.572 133.300  0.00  0.00    +0.000 OA
ATOM     30  H   UNL     1      -6.341  -4.311 133.775  0.00  0.00    +0.000 HD
ENDBRANCH  28  29
ENDBRANCH  26  28
ENDBRANCH   4  26
BRANCH   8  31
ATOM     31  O   UNL     1      -8.146  -4.084 128.719  0.00  0.00    +0.000 OA
ATOM     32  H   UNL     1      -9.020  -4.491 128.632  0.00  0.00    +0.000 HD
ENDBRANCH   8  31
TORSDOF 6
ENDMDL
MODEL 9
REMARK VINA RESULT:      -7.2      8.160      9.455
REMARK  Name = Triamcinolone
REMARK  8 active torsions:
REMARK  status: ('A' for Active; 'I' for Inactive)
REMARK    1  A    between atoms: C_4  and  O_5
REMARK    2  A    between atoms: C_6  and  O_7
REMARK    3  A    between atoms: C_6  and  C_8
REMARK    4  A    between atoms: C_8  and  C_10
REMARK    5  A    between atoms: C_10  and  O_11
REMARK    6  A    between atoms: C_12  and  C_13
REMARK    7  A    between atoms: C_15  and  O_16
REMARK    8  A    between atoms: C_29  and  C_30
REMARK                            x       y       z     vdW  Elec       q    Type
REMARK                         _______ _______ _______ _____ _____    ______ ____
ROOT
ATOM      1  C   UNL     1      -6.450   5.518 130.614  0.00  0.00    +0.000 C 
ATOM      2  C   UNL     1      -5.960   4.173 130.615  0.00  0.00    +0.000 C 
ATOM      3  C   UNL     1      -7.321   4.192 131.301  0.00  0.00    +0.000 C 
ATOM      4  C   UNL     1      -8.363   5.984 131.089  0.00  0.00    +0.000 C 
ATOM      5  C   UNL     1      -8.231   4.974 130.234  0.00  0.00    +0.000 C 
ATOM      6  C   UNL     1      -8.494   4.764 128.793  0.00  0.00    +0.000 C 
ATOM      7  C   UNL     1      -9.328   4.349 131.646  0.00  0.00    +0.000 C 
ATOM      8  C   UNL     1      -8.707   5.080 133.238  0.00  0.00    +0.000 C 
ATOM      9  C   UNL     1      -6.983   5.465 133.488  0.00  0.00    +0.000 C 
ATOM     10  F   UNL     1      -6.261   4.375 133.003  0.00  0.00    +0.000 F 
ATOM     11  C   UNL     1      -6.237   6.282 132.267  0.00  0.00    +0.000 C 
ATOM     12  C   UNL     1      -4.715   6.150 132.497  0.00  0.00    +0.000 C 
ATOM     13  C   UNL     1      -4.360   6.428 133.922  0.00  0.00    +0.000 C 
ATOM     14  C   UNL     1      -4.805   5.235 134.725  0.00  0.00    +0.000 C 
ATOM     15  C   UNL     1      -4.040   4.621 135.658  0.00  0.00    +0.000 C 
ATOM     16  C   UNL     1      -3.888   5.784 136.511  0.00  0.00    +0.000 C 
ATOM     17  O   UNL     1      -2.913   6.506 136.517  0.00  0.00    +0.000 OA
ATOM     18  C   UNL     1      -5.222   5.928 137.196  0.00  0.00    +0.000 C 
ATOM     19  C   UNL     1      -6.385   5.716 136.448  0.00  0.00    +0.000 C 
ATOM     20  C   UNL     1      -6.301   5.074 134.953  0.00  0.00    +0.000 C 
ATOM     21  C   UNL     1      -6.351   3.402 134.915  0.00  0.00    +0.000 C 
ENDROOT
BRANCH   3  22
ATOM     22  O   UNL     1      -7.447   2.994 132.326  0.00  0.00    +0.000 OA
ATOM     23  H   UNL     1      -7.572   3.215 133.260  0.00  0.00    +0.000 HD
ENDBRANCH   3  22
BRANCH   4  24
ATOM     24  O   UNL     1      -7.816   7.145 130.249  0.00  0.00    +0.000 OA
ATOM     25  H   UNL     1      -6.863   7.292 130.289  0.00  0.00    +0.000 HD
ENDBRANCH   4  24
BRANCH   4  26
ATOM     26  C   UNL     1     -10.066   6.479 130.571  0.00  0.00    +0.000 C 
ATOM     27  O   UNL     1     -10.333   7.566 130.031  0.00  0.00    +0.000 OA
BRANCH  26  28
ATOM     28  C   UNL     1     -11.386   5.630 130.857  0.00  0.00    +0.000 C 
BRANCH  28  29
ATOM     29  O   UNL     1     -12.148   6.207 131.951  0.00  0.00    +0.000 OA
ATOM     30  H   UNL     1     -12.440   5.474 132.533  0.00  0.00    +0.000 HD
ENDBRANCH  28  29
ENDBRANCH  26  28
ENDBRANCH   4  26
BRANCH   8  31
ATOM     31  O   UNL     1      -9.500   6.261 133.461  0.00  0.00    +0.000 OA
ATOM     32  H   UNL     1     -10.154   6.110 134.158  0.00  0.00    +0.000 HD
ENDBRANCH   8  31
TORSDOF 6
ENDMDL
