MODEL 1
REMARK VINA RESULT:      -9.6      0.000      0.000
REMARK  Name = Triazolam
REMARK  2 active torsions:
REMARK  status: ('A' for Active; 'I' for Inactive)
REMARK    1  A    between atoms: C_1  and  C_2
REMARK    2  A    between atoms: C_8  and  C_9
REMARK                            x       y       z     vdW  Elec       q    Type
REMARK                         _______ _______ _______ _____ _____    ______ ____
ROOT
ATOM      1  C   UNL     1      -6.985  -2.123 124.038  0.00  0.00    +0.000 C 
ATOM      2  C   UNL     1      -8.155  -1.271 123.710  0.00  0.00    +0.000 A 
ATOM      3  N   UNL     1      -9.294  -1.725 123.225  0.00  0.00    +0.000 NA
ATOM      4  N   UNL     1     -10.084  -0.655 122.908  0.00  0.00    +0.000 NA
ATOM      5  C   UNL     1      -9.414   0.441 123.191  0.00  0.00    +0.000 A 
ATOM      6  C   UNL     1      -9.873   1.839 123.042  0.00  0.00    +0.000 C 
ATOM      7  N   UNL     1      -8.995   2.549 122.120  0.00  0.00    +0.000 NA
ATOM      8  C   UNL     1      -7.766   2.758 122.425  0.00  0.00    +0.000 C 
ATOM      9  C   UNL     1      -7.073   2.312 123.684  0.00  0.00    +0.000 A 
ATOM     10  C   UNL     1      -7.240   1.032 124.245  0.00  0.00    +0.000 A 
ATOM     11  C   UNL     1      -6.478   0.665 125.367  0.00  0.00    +0.000 A 
ATOM     12  C   UNL     1      -5.541   1.537 125.915  0.00  0.00    +0.000 A 
ATOM     13  C   UNL     1      -5.380   2.801 125.366  0.00  0.00    +0.000 A 
ATOM     14 CL   UNL     1      -4.247   3.887 126.064  0.00  0.00    +0.000 Cl
ATOM     15  C   UNL     1      -6.138   3.192 124.264  0.00  0.00    +0.000 A 
ATOM     16  N   UNL     1      -8.193   0.114 123.736  0.00  0.00    +0.000 N 
ENDROOT
BRANCH   8  17
ATOM     17  C   UNL     1      -6.939   3.499 121.433  0.00  0.00    +0.000 A 
ATOM     18  C   UNL     1      -5.588   3.729 121.733  0.00  0.00    +0.000 A 
ATOM     19  C   UNL     1      -4.841   4.597 120.939  0.00  0.00    +0.000 A 
ATOM     20  C   UNL     1      -5.408   5.147 119.789  0.00  0.00    +0.000 A 
ATOM     21  C   UNL     1      -6.718   4.823 119.428  0.00  0.00    +0.000 A 
ATOM     22  C   UNL     1      -7.504   4.035 120.271  0.00  0.00    +0.000 A 
ATOM     23 CL   UNL     1      -9.179   3.872 119.880  0.00  0.00    +0.000 Cl
ENDBRANCH   8  17
TORSDOF 1
ENDMDL
MODEL 2
REMARK VINA RESULT:      -9.4      2.780      5.504
REMARK  Name = Triazolam
REMARK  2 active torsions:
REMARK  status: ('A' for Active; 'I' for Inactive)
REMARK    1  A    between atoms: C_1  and  C_2
REMARK    2  A    between atoms: C_8  and  C_9
REMARK                            x       y       z     vdW  Elec       q    Type
REMARK                         _______ _______ _______ _____ _____    ______ ____
ROOT
ATOM      1  C   UNL     1      -2.942   3.460 126.242  0.00  0.00    +0.000 C 
ATOM      2  C   UNL     1      -4.281   3.355 126.872  0.00  0.00    +0.000 A 
ATOM      3  N   UNL     1      -4.487   3.262 128.171  0.00  0.00    +0.000 NA
ATOM      4  N   UNL     1      -5.820   3.037 128.380  0.00  0.00    +0.000 NA
ATOM      5  C   UNL     1      -6.410   2.981 127.205  0.00  0.00    +0.000 A 
ATOM      6  C   UNL     1      -7.849   2.781 126.931  0.00  0.00    +0.000 C 
ATOM      7  N   UNL     1      -8.037   1.570 126.142  0.00  0.00    +0.000 NA
ATOM      8  C   UNL     1      -7.579   1.498 124.945  0.00  0.00    +0.000 C 
ATOM      9  C   UNL     1      -6.804   2.567 124.223  0.00  0.00    +0.000 A 
ATOM     10  C   UNL     1      -5.775   3.314 124.824  0.00  0.00    +0.000 A 
ATOM     11  C   UNL     1      -5.038   4.224 124.047  0.00  0.00    +0.000 A 
ATOM     12  C   UNL     1      -5.291   4.377 122.687  0.00  0.00    +0.000 A 
ATOM     13  C   UNL     1      -6.309   3.645 122.094  0.00  0.00    +0.000 A 
ATOM     14 CL   UNL     1      -6.642   3.859 120.422  0.00  0.00    +0.000 Cl
ATOM     15  C   UNL     1      -7.065   2.750 122.850  0.00  0.00    +0.000 A 
ATOM     16  N   UNL     1      -5.489   3.209 126.208  0.00  0.00    +0.000 N 
ENDROOT
BRANCH   8  17
ATOM     17  C   UNL     1      -7.821   0.230 124.203  0.00  0.00    +0.000 A 
ATOM     18  C   UNL     1      -6.762  -0.682 124.083  0.00  0.00    +0.000 A 
ATOM     19  C   UNL     1      -6.881  -1.771 123.221  0.00  0.00    +0.000 A 
ATOM     20  C   UNL     1      -8.089  -2.008 122.566  0.00  0.00    +0.000 A 
ATOM     21  C   UNL     1      -9.182  -1.164 122.779  0.00  0.00    +0.000 A 
ATOM     22  C   UNL     1      -9.039  -0.016 123.561  0.00  0.00    +0.000 A 
ATOM     23 CL   UNL     1     -10.356   1.102 123.588  0.00  0.00    +0.000 Cl
ENDBRANCH   8  17
TORSDOF 1
ENDMDL
MODEL 3
REMARK VINA RESULT:      -9.4      8.534      9.659
REMARK  Name = Triazolam
REMARK  2 active torsions:
REMARK  status: ('A' for Active; 'I' for Inactive)
REMARK    1  A    between atoms: C_1  and  C_2
REMARK    2  A    between atoms: C_8  and  C_9
REMARK                            x       y       z     vdW  Elec       q    Type
REMARK                         _______ _______ _______ _____ _____    ______ ____
ROOT
ATOM      1  C   UNL     1      -9.982   2.073 131.793  0.00  0.00    +0.000 C 
ATOM      2  C   UNL     1     -10.158   3.414 131.183  0.00  0.00    +0.000 A 
ATOM      3  N   UNL     1     -10.955   3.670 130.165  0.00  0.00    +0.000 NA
ATOM      4  N   UNL     1     -10.757   4.967 129.779  0.00  0.00    +0.000 NA
ATOM      5  C   UNL     1      -9.831   5.484 130.557  0.00  0.00    +0.000 A 
ATOM      6  C   UNL     1      -9.305   6.866 130.533  0.00  0.00    +0.000 C 
ATOM      7  N   UNL     1      -7.873   6.843 130.264  0.00  0.00    +0.000 NA
ATOM      8  C   UNL     1      -7.062   6.321 131.111  0.00  0.00    +0.000 C 
ATOM      9  C   UNL     1      -7.435   5.668 132.414  0.00  0.00    +0.000 A 
ATOM     10  C   UNL     1      -8.521   4.784 132.552  0.00  0.00    +0.000 A 
ATOM     11  C   UNL     1      -8.738   4.143 133.783  0.00  0.00    +0.000 A 
ATOM     12  C   UNL     1      -7.879   4.347 134.860  0.00  0.00    +0.000 A 
ATOM     13  C   UNL     1      -6.811   5.223 134.727  0.00  0.00    +0.000 A 
ATOM     14 CL   UNL     1      -5.772   5.498 136.067  0.00  0.00    +0.000 Cl
ATOM     15  C   UNL     1      -6.588   5.883 133.520  0.00  0.00    +0.000 A 
ATOM     16  N   UNL     1      -9.435   4.556 131.492  0.00  0.00    +0.000 N 
ENDROOT
BRANCH   8  17
ATOM     17  C   UNL     1      -5.614   6.347 130.765  0.00  0.00    +0.000 A 
ATOM     18  C   UNL     1      -4.970   7.591 130.693  0.00  0.00    +0.000 A 
ATOM     19  C   UNL     1      -3.682   7.673 130.167  0.00  0.00    +0.000 A 
ATOM     20  C   UNL     1      -2.999   6.509 129.817  0.00  0.00    +0.000 A 
ATOM     21  C   UNL     1      -3.599   5.261 130.001  0.00  0.00    +0.000 A 
ATOM     22  C   UNL     1      -4.924   5.176 130.432  0.00  0.00    +0.000 A 
ATOM     23 CL   UNL     1      -5.674   3.620 130.410  0.00  0.00    +0.000 Cl
ENDBRANCH   8  17
TORSDOF 1
ENDMDL
MODEL 4
REMARK VINA RESULT:      -9.1      3.401      6.577
REMARK  Name = Triazolam
REMARK  2 active torsions:
REMARK  status: ('A' for Active; 'I' for Inactive)
REMARK    1  A    between atoms: C_1  and  C_2
REMARK    2  A    between atoms: C_8  and  C_9
REMARK                            x       y       z     vdW  Elec       q    Type
REMARK                         _______ _______ _______ _____ _____    ______ ____
ROOT
ATOM      1  C   UNL     1      -9.968   1.219 123.898  0.00  0.00    +0.000 C 
ATOM      2  C   UNL     1      -9.252  -0.009 123.473  0.00  0.00    +0.000 A 
ATOM      3  N   UNL     1      -9.762  -0.932 122.682  0.00  0.00    +0.000 NA
ATOM      4  N   UNL     1      -8.884  -1.980 122.622  0.00  0.00    +0.000 NA
ATOM      5  C   UNL     1      -7.855  -1.690 123.388  0.00  0.00    +0.000 A 
ATOM      6  C   UNL     1      -6.645  -2.510 123.616  0.00  0.00    +0.000 C 
ATOM      7  N   UNL     1      -6.533  -2.838 125.032  0.00  0.00    +0.000 NA
ATOM      8  C   UNL     1      -6.330  -1.912 125.898  0.00  0.00    +0.000 C 
ATOM      9  C   UNL     1      -6.213  -0.439 125.615  0.00  0.00    +0.000 A 
ATOM     10  C   UNL     1      -7.066   0.248 124.732  0.00  0.00    +0.000 A 
ATOM     11  C   UNL     1      -6.948   1.642 124.602  0.00  0.00    +0.000 A 
ATOM     12  C   UNL     1      -6.020   2.357 125.355  0.00  0.00    +0.000 A 
ATOM     13  C   UNL     1      -5.175   1.681 126.222  0.00  0.00    +0.000 A 
ATOM     14 CL   UNL     1      -4.009   2.561 127.126  0.00  0.00    +0.000 Cl
ATOM     15  C   UNL     1      -5.262   0.295 126.353  0.00  0.00    +0.000 A 
ATOM     16  N   UNL     1      -8.014  -0.435 123.930  0.00  0.00    +0.000 N 
ENDROOT
BRANCH   8  17
ATOM     17  C   UNL     1      -6.217  -2.332 127.322  0.00  0.00    +0.000 A 
ATOM     18  C   UNL     1      -4.945  -2.333 127.915  0.00  0.00    +0.000 A 
ATOM     19  C   UNL     1      -4.767  -2.919 129.167  0.00  0.00    +0.000 A 
ATOM     20  C   UNL     1      -5.870  -3.402 129.870  0.00  0.00    +0.000 A 
ATOM     21  C   UNL     1      -7.153  -3.292 129.328  0.00  0.00    +0.000 A 
ATOM     22  C   UNL     1      -7.327  -2.799 128.033  0.00  0.00    +0.000 A 
ATOM     23 CL   UNL     1      -8.906  -2.913 127.340  0.00  0.00    +0.000 Cl
ENDBRANCH   8  17
TORSDOF 1
ENDMDL
MODEL 5
REMARK VINA RESULT:      -8.7      3.421      6.662
REMARK  Name = Triazolam
REMARK  2 active torsions:
REMARK  status: ('A' for Active; 'I' for Inactive)
REMARK    1  A    between atoms: C_1  and  C_2
REMARK    2  A    between atoms: C_8  and  C_9
REMARK                            x       y       z     vdW  Elec       q    Type
REMARK                         _______ _______ _______ _____ _____    ______ ____
ROOT
ATOM      1  C   UNL     1      -3.322   2.835 126.609  0.00  0.00    +0.000 C 
ATOM      2  C   UNL     1      -4.319   2.397 127.617  0.00  0.00    +0.000 A 
ATOM      3  N   UNL     1      -4.047   2.185 128.889  0.00  0.00    +0.000 NA
ATOM      4  N   UNL     1      -5.159   1.656 129.484  0.00  0.00    +0.000 NA
ATOM      5  C   UNL     1      -6.093   1.539 128.566  0.00  0.00    +0.000 A 
ATOM      6  C   UNL     1      -7.474   1.040 128.745  0.00  0.00    +0.000 C 
ATOM      7  N   UNL     1      -7.686  -0.134 127.908  0.00  0.00    +0.000 NA
ATOM      8  C   UNL     1      -7.660  -0.031 126.629  0.00  0.00    +0.000 C 
ATOM      9  C   UNL     1      -7.398   1.224 125.842  0.00  0.00    +0.000 A 
ATOM     10  C   UNL     1      -6.387   2.145 126.172  0.00  0.00    +0.000 A 
ATOM     11  C   UNL     1      -6.148   3.240 125.325  0.00  0.00    +0.000 A 
ATOM     12  C   UNL     1      -6.876   3.413 124.150  0.00  0.00    +0.000 A 
ATOM     13  C   UNL     1      -7.876   2.508 123.827  0.00  0.00    +0.000 A 
ATOM     14 CL   UNL     1      -8.795   2.741 122.394  0.00  0.00    +0.000 Cl
ATOM     15  C   UNL     1      -8.143   1.424 124.662  0.00  0.00    +0.000 A 
ATOM     16  N   UNL     1      -5.631   2.025 127.364  0.00  0.00    +0.000 N 
ENDROOT
BRANCH   8  17
ATOM     17  C   UNL     1      -7.896  -1.276 125.845  0.00  0.00    +0.000 A 
ATOM     18  C   UNL     1      -9.178  -1.847 125.876  0.00  0.00    +0.000 A 
ATOM     19  C   UNL     1      -9.381  -3.116 125.337  0.00  0.00    +0.000 A 
ATOM     20  C   UNL     1      -8.339  -3.765 124.675  0.00  0.00    +0.000 A 
ATOM     21  C   UNL     1      -7.095  -3.142 124.543  0.00  0.00    +0.000 A 
ATOM     22  C   UNL     1      -6.855  -1.916 125.166  0.00  0.00    +0.000 A 
ATOM     23 CL   UNL     1      -5.233  -1.321 125.161  0.00  0.00    +0.000 Cl
ENDBRANCH   8  17
TORSDOF 1
ENDMDL
MODEL 6
REMARK VINA RESULT:      -8.5      4.695      6.863
REMARK  Name = Triazolam
REMARK  2 active torsions:
REMARK  status: ('A' for Active; 'I' for Inactive)
REMARK    1  A    between atoms: C_1  and  C_2
REMARK    2  A    between atoms: C_8  and  C_9
REMARK                            x       y       z     vdW  Elec       q    Type
REMARK                         _______ _______ _______ _____ _____    ______ ____
ROOT
ATOM      1  C   UNL     1      -6.064   4.898 130.796  0.00  0.00    +0.000 C 
ATOM      2  C   UNL     1      -6.898   4.817 129.571  0.00  0.00    +0.000 A 
ATOM      3  N   UNL     1      -8.175   5.136 129.519  0.00  0.00    +0.000 NA
ATOM      4  N   UNL     1      -8.652   4.803 128.280  0.00  0.00    +0.000 NA
ATOM      5  C   UNL     1      -7.662   4.272 127.596  0.00  0.00    +0.000 A 
ATOM      6  C   UNL     1      -7.694   3.786 126.199  0.00  0.00    +0.000 C 
ATOM      7  N   UNL     1      -7.364   2.367 126.165  0.00  0.00    +0.000 NA
ATOM      8  C   UNL     1      -6.193   1.965 126.504  0.00  0.00    +0.000 C 
ATOM      9  C   UNL     1      -5.060   2.830 126.986  0.00  0.00    +0.000 A 
ATOM     10  C   UNL     1      -5.227   3.877 127.912  0.00  0.00    +0.000 A 
ATOM     11  C   UNL     1      -4.099   4.570 128.382  0.00  0.00    +0.000 A 
ATOM     12  C   UNL     1      -2.817   4.220 127.967  0.00  0.00    +0.000 A 
ATOM     13  C   UNL     1      -2.651   3.192 127.050  0.00  0.00    +0.000 A 
ATOM     14 CL   UNL     1      -1.071   2.783 126.516  0.00  0.00    +0.000 Cl
ATOM     15  C   UNL     1      -3.758   2.503 126.557  0.00  0.00    +0.000 A 
ATOM     16  N   UNL     1      -6.512   4.284 128.351  0.00  0.00    +0.000 N 
ENDROOT
BRANCH   8  17
ATOM     17  C   UNL     1      -5.932   0.501 126.432  0.00  0.00    +0.000 A 
ATOM     18  C   UNL     1      -5.946  -0.115 125.171  0.00  0.00    +0.000 A 
ATOM     19  C   UNL     1      -5.922  -1.505 125.080  0.00  0.00    +0.000 A 
ATOM     20  C   UNL     1      -5.774  -2.274 126.235  0.00  0.00    +0.000 A 
ATOM     21  C   UNL     1      -5.640  -1.653 127.479  0.00  0.00    +0.000 A 
ATOM     22  C   UNL     1      -5.765  -0.267 127.589  0.00  0.00    +0.000 A 
ATOM     23 CL   UNL     1      -5.827   0.407 129.179  0.00  0.00    +0.000 Cl
ENDBRANCH   8  17
TORSDOF 1
ENDMDL
MODEL 7
REMARK VINA RESULT:      -8.5      4.565      6.365
REMARK  Name = Triazolam
REMARK  2 active torsions:
REMARK  status: ('A' for Active; 'I' for Inactive)
REMARK    1  A    between atoms: C_1  and  C_2
REMARK    2  A    between atoms: C_8  and  C_9
REMARK                            x       y       z     vdW  Elec       q    Type
REMARK                         _______ _______ _______ _____ _____    ______ ____
ROOT
ATOM      1  C   UNL     1      -9.388   3.109 129.627  0.00  0.00    +0.000 C 
ATOM      2  C   UNL     1      -8.140   3.312 128.852  0.00  0.00    +0.000 A 
ATOM      3  N   UNL     1      -7.693   4.487 128.456  0.00  0.00    +0.000 NA
ATOM      4  N   UNL     1      -6.606   4.284 127.650  0.00  0.00    +0.000 NA
ATOM      5  C   UNL     1      -6.410   2.987 127.553  0.00  0.00    +0.000 A 
ATOM      6  C   UNL     1      -5.337   2.293 126.810  0.00  0.00    +0.000 C 
ATOM      7  N   UNL     1      -5.923   1.429 125.792  0.00  0.00    +0.000 NA
ATOM      8  C   UNL     1      -6.635   0.417 126.133  0.00  0.00    +0.000 C 
ATOM      9  C   UNL     1      -6.981   0.004 127.538  0.00  0.00    +0.000 A 
ATOM     10  C   UNL     1      -7.374   0.916 128.536  0.00  0.00    +0.000 A 
ATOM     11  C   UNL     1      -7.774   0.433 129.793  0.00  0.00    +0.000 A 
ATOM     12  C   UNL     1      -7.815  -0.934 130.058  0.00  0.00    +0.000 A 
ATOM     13  C   UNL     1      -7.423  -1.833 129.077  0.00  0.00    +0.000 A 
ATOM     14 CL   UNL     1      -7.443  -3.516 129.417  0.00  0.00    +0.000 Cl
ATOM     15  C   UNL     1      -7.005  -1.375 127.828  0.00  0.00    +0.000 A 
ATOM     16  N   UNL     1      -7.333   2.316 128.323  0.00  0.00    +0.000 N 
ENDROOT
BRANCH   8  17
ATOM     17  C   UNL     1      -7.189  -0.422 125.034  0.00  0.00    +0.000 A 
ATOM     18  C   UNL     1      -6.299  -1.202 124.281  0.00  0.00    +0.000 A 
ATOM     19  C   UNL     1      -6.743  -1.828 123.117  0.00  0.00    +0.000 A 
ATOM     20  C   UNL     1      -8.091  -1.765 122.766  0.00  0.00    +0.000 A 
ATOM     21  C   UNL     1      -8.999  -1.086 123.583  0.00  0.00    +0.000 A 
ATOM     22  C   UNL     1      -8.545  -0.373 124.694  0.00  0.00    +0.000 A 
ATOM     23 CL   UNL     1      -9.683   0.634 125.517  0.00  0.00    +0.000 Cl
ENDBRANCH   8  17
TORSDOF 1
ENDMDL
MODEL 8
REMARK VINA RESULT:      -8.4      9.785     11.306
REMARK  Name = Triazolam
REMARK  2 active torsions:
REMARK  status: ('A' for Active; 'I' for Inactive)
REMARK    1  A    between atoms: C_1  and  C_2
REMARK    2  A    between atoms: C_8  and  C_9
REMARK                            x       y       z     vdW  Elec       q    Type
REMARK                         _______ _______ _______ _____ _____    ______ ____
ROOT
ATOM      1  C   UNL     1      -9.277   3.091 133.337  0.00  0.00    +0.000 C 
ATOM      2  C   UNL     1      -8.956   4.190 132.393  0.00  0.00    +0.000 A 
ATOM      3  N   UNL     1      -9.487   4.321 131.194  0.00  0.00    +0.000 NA
ATOM      4  N   UNL     1      -8.857   5.353 130.554  0.00  0.00    +0.000 NA
ATOM      5  C   UNL     1      -7.939   5.831 131.364  0.00  0.00    +0.000 A 
ATOM      6  C   UNL     1      -7.025   6.968 131.117  0.00  0.00    +0.000 C 
ATOM      7  N   UNL     1      -5.643   6.511 131.183  0.00  0.00    +0.000 NA
ATOM      8  C   UNL     1      -5.154   6.081 132.289  0.00  0.00    +0.000 C 
ATOM      9  C   UNL     1      -5.885   5.959 133.598  0.00  0.00    +0.000 A 
ATOM     10  C   UNL     1      -7.194   5.455 133.707  0.00  0.00    +0.000 A 
ATOM     11  C   UNL     1      -7.765   5.284 134.980  0.00  0.00    +0.000 A 
ATOM     12  C   UNL     1      -7.045   5.580 136.135  0.00  0.00    +0.000 A 
ATOM     13  C   UNL     1      -5.757   6.083 136.029  0.00  0.00    +0.000 A 
ATOM     14 CL   UNL     1      -4.883   6.478 137.454  0.00  0.00    +0.000 Cl
ATOM     15  C   UNL     1      -5.178   6.277 134.775  0.00  0.00    +0.000 A 
ATOM     16  N   UNL     1      -7.975   5.155 132.563  0.00  0.00    +0.000 N 
ENDROOT
BRANCH   8  17
ATOM     17  C   UNL     1      -3.731   5.643 132.275  0.00  0.00    +0.000 A 
ATOM     18  C   UNL     1      -3.452   4.284 132.486  0.00  0.00    +0.000 A 
ATOM     19  C   UNL     1      -2.136   3.873 132.694  0.00  0.00    +0.000 A 
ATOM     20  C   UNL     1      -1.095   4.794 132.583  0.00  0.00    +0.000 A 
ATOM     21  C   UNL     1      -1.367   6.124 132.253  0.00  0.00    +0.000 A 
ATOM     22  C   UNL     1      -2.687   6.564 132.144  0.00  0.00    +0.000 A 
ATOM     23 CL   UNL     1      -2.952   8.263 131.972  0.00  0.00    +0.000 Cl
ENDBRANCH   8  17
TORSDOF 1
ENDMDL
MODEL 9
REMARK VINA RESULT:      -8.4      8.414     10.498
REMARK  Name = Triazolam
REMARK  2 active torsions:
REMARK  status: ('A' for Active; 'I' for Inactive)
REMARK    1  A    between atoms: C_1  and  C_2
REMARK    2  A    between atoms: C_8  and  C_9
REMARK                            x       y       z     vdW  Elec       q    Type
REMARK                         _______ _______ _______ _____ _____    ______ ____
ROOT
ATOM      1  C   UNL     1      -2.266   6.855 128.176  0.00  0.00    +0.000 C 
ATOM      2  C   UNL     1      -2.647   5.449 128.457  0.00  0.00    +0.000 A 
ATOM      3  N   UNL     1      -2.656   4.486 127.558  0.00  0.00    +0.000 NA
ATOM      4  N   UNL     1      -3.195   3.366 128.131  0.00  0.00    +0.000 NA
ATOM      5  C   UNL     1      -3.520   3.663 129.371  0.00  0.00    +0.000 A 
ATOM      6  C   UNL     1      -4.109   2.763 130.386  0.00  0.00    +0.000 C 
ATOM      7  N   UNL     1      -5.401   3.284 130.813  0.00  0.00    +0.000 NA
ATOM      8  C   UNL     1      -5.474   4.398 131.447  0.00  0.00    +0.000 C 
ATOM      9  C   UNL     1      -4.322   5.297 131.801  0.00  0.00    +0.000 A 
ATOM     10  C   UNL     1      -3.278   5.602 130.908  0.00  0.00    +0.000 A 
ATOM     11  C   UNL     1      -2.293   6.530 131.289  0.00  0.00    +0.000 A 
ATOM     12  C   UNL     1      -2.350   7.172 132.523  0.00  0.00    +0.000 A 
ATOM     13  C   UNL     1      -3.375   6.868 133.406  0.00  0.00    +0.000 A 
ATOM     14 CL   UNL     1      -3.425   7.637 134.941  0.00  0.00    +0.000 Cl
ATOM     15  C   UNL     1      -4.353   5.937 133.057  0.00  0.00    +0.000 A 
ATOM     16  N   UNL     1      -3.165   4.963 129.648  0.00  0.00    +0.000 N 
ENDROOT
BRANCH   8  17
ATOM     17  C   UNL     1      -6.831   4.855 131.858  0.00  0.00    +0.000 A 
ATOM     18  C   UNL     1      -7.429   5.897 131.132  0.00  0.00    +0.000 A 
ATOM     19  C   UNL     1      -8.593   6.494 131.613  0.00  0.00    +0.000 A 
ATOM     20  C   UNL     1      -9.216   5.984 132.752  0.00  0.00    +0.000 A 
ATOM     21  C   UNL     1      -8.682   4.869 133.405  0.00  0.00    +0.000 A 
ATOM     22  C   UNL     1      -7.464   4.329 132.989  0.00  0.00    +0.000 A 
ATOM     23 CL   UNL     1      -6.749   3.110 133.983  0.00  0.00    +0.000 Cl
ENDBRANCH   8  17
TORSDOF 1
ENDMDL
