MODEL 1
REMARK VINA RESULT:      -7.4      0.000      0.000
REMARK  Name = Triclocarban
REMARK  2 active torsions:
REMARK  status: ('A' for Active; 'I' for Inactive)
REMARK    1  A    between atoms: C_5  and  N_6
REMARK    2  A    between atoms: N_9  and  C_10
REMARK                            x       y       z     vdW  Elec       q    Type
REMARK                         _______ _______ _______ _____ _____    ______ ____
ROOT
ATOM      1  N   UNL     1      -9.559   4.169 133.073  0.00  0.00    +0.000 N 
ATOM      2  C   UNL     1      -9.994   5.335 132.449  0.00  0.00    +0.000 C 
ATOM      3  O   UNL     1      -9.425   6.423 132.564  0.00  0.00    +0.000 OA
ATOM      4  N   UNL     1     -11.147   5.244 131.677  0.00  0.00    +0.000 N 
ATOM      5  H   UNL     1     -10.086   3.314 132.950  0.00  0.00    +0.000 HD
ATOM      6  H   UNL     1     -11.802   4.499 131.864  0.00  0.00    +0.000 HD
ENDROOT
BRANCH   4   7
ATOM      7  C   UNL     1     -11.642   6.426 131.024  0.00  0.00    +0.000 A 
ATOM      8  C   UNL     1     -11.101   6.839 129.793  0.00  0.00    +0.000 A 
ATOM      9  C   UNL     1     -11.533   8.008 129.151  0.00  0.00    +0.000 A 
ATOM     10 CL   UNL     1     -10.801   8.415 127.638  0.00  0.00    +0.000 Cl
ATOM     11  C   UNL     1     -12.526   8.790 129.737  0.00  0.00    +0.000 A 
ATOM     12 CL   UNL     1     -13.129  10.230 128.995  0.00  0.00    +0.000 Cl
ATOM     13  C   UNL     1     -13.072   8.396 130.965  0.00  0.00    +0.000 A 
ATOM     14  C   UNL     1     -12.645   7.211 131.600  0.00  0.00    +0.000 A 
ENDBRANCH   4   7
BRANCH   1  19
ATOM     15 CL   UNL     1      -4.573   3.987 136.415  0.00  0.00    +0.000 Cl
ATOM     16  C   UNL     1      -6.006   4.006 135.463  0.00  0.00    +0.000 A 
ATOM     17  C   UNL     1      -6.257   3.018 134.511  0.00  0.00    +0.000 A 
ATOM     18  C   UNL     1      -7.432   3.060 133.721  0.00  0.00    +0.000 A 
ATOM     19  C   UNL     1      -8.368   4.095 133.884  0.00  0.00    +0.000 A 
ATOM     20  C   UNL     1      -8.078   5.054 134.867  0.00  0.00    +0.000 A 
ATOM     21  C   UNL     1      -6.921   5.022 135.645  0.00  0.00    +0.000 A 
ENDBRANCH   1  19
TORSDOF 2
ENDMDL
MODEL 2
REMARK VINA RESULT:      -7.1      3.840      7.926
REMARK  Name = Triclocarban
REMARK  2 active torsions:
REMARK  status: ('A' for Active; 'I' for Inactive)
REMARK    1  A    between atoms: C_5  and  N_6
REMARK    2  A    between atoms: N_9  and  C_10
REMARK                            x       y       z     vdW  Elec       q    Type
REMARK                         _______ _______ _______ _____ _____    ______ ____
ROOT
ATOM      1  N   UNL     1      -9.609   5.866 131.254  0.00  0.00    +0.000 N 
ATOM      2  C   UNL     1      -9.494   4.523 130.907  0.00  0.00    +0.000 C 
ATOM      3  O   UNL     1     -10.192   3.977 130.049  0.00  0.00    +0.000 OA
ATOM      4  N   UNL     1      -8.546   3.773 131.596  0.00  0.00    +0.000 N 
ATOM      5  H   UNL     1      -9.016   6.243 131.981  0.00  0.00    +0.000 HD
ATOM      6  H   UNL     1      -8.247   4.085 132.508  0.00  0.00    +0.000 HD
ENDROOT
BRANCH   4   7
ATOM      7  C   UNL     1      -8.400   2.378 131.281  0.00  0.00    +0.000 A 
ATOM      8  C   UNL     1      -7.536   1.966 130.250  0.00  0.00    +0.000 A 
ATOM      9  C   UNL     1      -7.403   0.618 129.892  0.00  0.00    +0.000 A 
ATOM     10 CL   UNL     1      -6.307   0.227 128.613  0.00  0.00    +0.000 Cl
ATOM     11  C   UNL     1      -8.138  -0.352 130.570  0.00  0.00    +0.000 A 
ATOM     12 CL   UNL     1      -8.008  -2.036 130.204  0.00  0.00    +0.000 Cl
ATOM     13  C   UNL     1      -9.006   0.040 131.596  0.00  0.00    +0.000 A 
ATOM     14  C   UNL     1      -9.127   1.397 131.962  0.00  0.00    +0.000 A 
ENDBRANCH   4   7
BRANCH   1  19
ATOM     15 CL   UNL     1     -13.512   9.567 128.583  0.00  0.00    +0.000 Cl
ATOM     16  C   UNL     1     -12.371   8.530 129.346  0.00  0.00    +0.000 A 
ATOM     17  C   UNL     1     -11.074   8.392 128.852  0.00  0.00    +0.000 A 
ATOM     18  C   UNL     1     -10.152   7.519 129.479  0.00  0.00    +0.000 A 
ATOM     19  C   UNL     1     -10.526   6.778 130.614  0.00  0.00    +0.000 A 
ATOM     20  C   UNL     1     -11.835   6.967 131.083  0.00  0.00    +0.000 A 
ATOM     21  C   UNL     1     -12.750   7.821 130.467  0.00  0.00    +0.000 A 
ENDBRANCH   1  19
TORSDOF 2
ENDMDL
MODEL 3
REMARK VINA RESULT:      -6.9      3.843      8.082
REMARK  Name = Triclocarban
REMARK  2 active torsions:
REMARK  status: ('A' for Active; 'I' for Inactive)
REMARK    1  A    between atoms: C_5  and  N_6
REMARK    2  A    between atoms: N_9  and  C_10
REMARK                            x       y       z     vdW  Elec       q    Type
REMARK                         _______ _______ _______ _____ _____    ______ ____
ROOT
ATOM      1  N   UNL     1      -9.214   5.970 130.344  0.00  0.00    +0.000 N 
ATOM      2  C   UNL     1      -7.920   6.401 130.617  0.00  0.00    +0.000 C 
ATOM      3  O   UNL     1      -7.554   7.574 130.511  0.00  0.00    +0.000 OA
ATOM      4  N   UNL     1      -7.003   5.432 131.010  0.00  0.00    +0.000 N 
ATOM      5  H   UNL     1      -9.441   4.989 130.435  0.00  0.00    +0.000 HD
ATOM      6  H   UNL     1      -7.169   4.470 130.753  0.00  0.00    +0.000 HD
ENDROOT
BRANCH   4   7
ATOM      7  C   UNL     1      -5.649   5.828 131.291  0.00  0.00    +0.000 A 
ATOM      8  C   UNL     1      -4.684   5.843 130.267  0.00  0.00    +0.000 A 
ATOM      9  C   UNL     1      -3.348   6.184 130.517  0.00  0.00    +0.000 A 
ATOM     10 CL   UNL     1      -2.250   6.174 129.181  0.00  0.00    +0.000 Cl
ATOM     11  C   UNL     1      -2.952   6.523 131.809  0.00  0.00    +0.000 A 
ATOM     12 CL   UNL     1      -1.329   6.980 132.190  0.00  0.00    +0.000 Cl
ATOM     13  C   UNL     1      -3.898   6.509 132.840  0.00  0.00    +0.000 A 
ATOM     14  C   UNL     1      -5.245   6.178 132.583  0.00  0.00    +0.000 A 
ENDBRANCH   4   7
BRANCH   1  19
ATOM     15 CL   UNL     1     -13.575   9.756 128.695  0.00  0.00    +0.000 Cl
ATOM     16  C   UNL     1     -12.349   8.649 129.175  0.00  0.00    +0.000 A 
ATOM     17  C   UNL     1     -12.456   7.917 130.357  0.00  0.00    +0.000 A 
ATOM     18  C   UNL     1     -11.428   7.025 130.749  0.00  0.00    +0.000 A 
ATOM     19  C   UNL     1     -10.283   6.857 129.951  0.00  0.00    +0.000 A 
ATOM     20  C   UNL     1     -10.232   7.601 128.762  0.00  0.00    +0.000 A 
ATOM     21  C   UNL     1     -11.238   8.486 128.373  0.00  0.00    +0.000 A 
ENDBRANCH   1  19
TORSDOF 2
ENDMDL
MODEL 4
REMARK VINA RESULT:      -6.8      9.518     12.241
REMARK  Name = Triclocarban
REMARK  2 active torsions:
REMARK  status: ('A' for Active; 'I' for Inactive)
REMARK    1  A    between atoms: C_5  and  N_6
REMARK    2  A    between atoms: N_9  and  C_10
REMARK                            x       y       z     vdW  Elec       q    Type
REMARK                         _______ _______ _______ _____ _____    ______ ____
ROOT
ATOM      1  N   UNL     1      -7.786   2.831 124.036  0.00  0.00    +0.000 N 
ATOM      2  C   UNL     1      -7.927   1.503 124.429  0.00  0.00    +0.000 C 
ATOM      3  O   UNL     1      -7.930   0.555 123.640  0.00  0.00    +0.000 OA
ATOM      4  N   UNL     1      -8.091   1.263 125.789  0.00  0.00    +0.000 N 
ATOM      5  H   UNL     1      -7.811   3.561 124.735  0.00  0.00    +0.000 HD
ATOM      6  H   UNL     1      -8.451   2.002 126.375  0.00  0.00    +0.000 HD
ENDROOT
BRANCH   4   7
ATOM      7  C   UNL     1      -8.253  -0.093 126.241  0.00  0.00    +0.000 A 
ATOM      8  C   UNL     1      -7.439  -0.604 127.268  0.00  0.00    +0.000 A 
ATOM      9  C   UNL     1      -7.544  -1.932 127.703  0.00  0.00    +0.000 A 
ATOM     10 CL   UNL     1      -6.495  -2.449 128.977  0.00  0.00    +0.000 Cl
ATOM     11  C   UNL     1      -8.479  -2.779 127.111  0.00  0.00    +0.000 A 
ATOM     12 CL   UNL     1      -8.686  -4.421 127.611  0.00  0.00    +0.000 Cl
ATOM     13  C   UNL     1      -9.294  -2.288 126.085  0.00  0.00    +0.000 A 
ATOM     14  C   UNL     1      -9.194  -0.947 125.660  0.00  0.00    +0.000 A 
ENDBRANCH   4   7
BRANCH   1  19
ATOM     15 CL   UNL     1      -6.868   4.636 118.382  0.00  0.00    +0.000 Cl
ATOM     16  C   UNL     1      -7.152   4.095 119.990  0.00  0.00    +0.000 A 
ATOM     17  C   UNL     1      -8.439   3.803 120.440  0.00  0.00    +0.000 A 
ATOM     18  C   UNL     1      -8.658   3.378 121.774  0.00  0.00    +0.000 A 
ATOM     19  C   UNL     1      -7.582   3.240 122.667  0.00  0.00    +0.000 A 
ATOM     20  C   UNL     1      -6.305   3.527 122.160  0.00  0.00    +0.000 A 
ATOM     21  C   UNL     1      -6.083   3.952 120.850  0.00  0.00    +0.000 A 
ENDBRANCH   1  19
TORSDOF 2
ENDMDL
MODEL 5
REMARK VINA RESULT:      -6.7      3.976      4.829
REMARK  Name = Triclocarban
REMARK  2 active torsions:
REMARK  status: ('A' for Active; 'I' for Inactive)
REMARK    1  A    between atoms: C_5  and  N_6
REMARK    2  A    between atoms: N_9  and  C_10
REMARK                            x       y       z     vdW  Elec       q    Type
REMARK                         _______ _______ _______ _____ _____    ______ ____
ROOT
ATOM      1  N   UNL     1      -7.911   3.270 130.306  0.00  0.00    +0.000 N 
ATOM      2  C   UNL     1      -8.987   4.077 129.950  0.00  0.00    +0.000 C 
ATOM      3  O   UNL     1     -10.051   3.639 129.505  0.00  0.00    +0.000 OA
ATOM      4  N   UNL     1      -8.820   5.450 130.093  0.00  0.00    +0.000 N 
ATOM      5  H   UNL     1      -7.060   3.698 130.646  0.00  0.00    +0.000 HD
ATOM      6  H   UNL     1      -7.885   5.830 130.094  0.00  0.00    +0.000 HD
ENDROOT
BRANCH   4   7
ATOM      7  C   UNL     1      -9.900   6.326 129.726  0.00  0.00    +0.000 A 
ATOM      8  C   UNL     1     -10.881   6.682 130.669  0.00  0.00    +0.000 A 
ATOM      9  C   UNL     1     -11.968   7.499 130.332  0.00  0.00    +0.000 A 
ATOM     10 CL   UNL     1     -13.110   7.877 131.574  0.00  0.00    +0.000 Cl
ATOM     11  C   UNL     1     -12.091   7.981 129.030  0.00  0.00    +0.000 A 
ATOM     12 CL   UNL     1     -13.389   9.015 128.544  0.00  0.00    +0.000 Cl
ATOM     13  C   UNL     1     -11.127   7.632 128.078  0.00  0.00    +0.000 A 
ATOM     14  C   UNL     1     -10.026   6.821 128.425  0.00  0.00    +0.000 A 
ENDBRANCH   4   7
BRANCH   1  19
ATOM     15 CL   UNL     1      -8.092  -2.719 129.911  0.00  0.00    +0.000 Cl
ATOM     16  C   UNL     1      -8.028  -1.007 130.055  0.00  0.00    +0.000 A 
ATOM     17  C   UNL     1      -8.466  -0.359 131.210  0.00  0.00    +0.000 A 
ATOM     18  C   UNL     1      -8.425   1.053 131.305  0.00  0.00    +0.000 A 
ATOM     19  C   UNL     1      -7.939   1.829 130.238  0.00  0.00    +0.000 A 
ATOM     20  C   UNL     1      -7.493   1.129 129.106  0.00  0.00    +0.000 A 
ATOM     21  C   UNL     1      -7.535  -0.261 129.004  0.00  0.00    +0.000 A 
ENDBRANCH   1  19
TORSDOF 2
ENDMDL
MODEL 6
REMARK VINA RESULT:      -6.6      7.759      9.327
REMARK  Name = Triclocarban
REMARK  2 active torsions:
REMARK  status: ('A' for Active; 'I' for Inactive)
REMARK    1  A    between atoms: C_5  and  N_6
REMARK    2  A    between atoms: N_9  and  C_10
REMARK                            x       y       z     vdW  Elec       q    Type
REMARK                         _______ _______ _______ _____ _____    ______ ____
ROOT
ATOM      1  N   UNL     1      -7.700  -1.034 130.557  0.00  0.00    +0.000 N 
ATOM      2  C   UNL     1      -7.508  -0.945 129.182  0.00  0.00    +0.000 C 
ATOM      3  O   UNL     1      -7.649   0.098 128.539  0.00  0.00    +0.000 OA
ATOM      4  N   UNL     1      -7.158  -2.116 128.518  0.00  0.00    +0.000 N 
ATOM      5  H   UNL     1      -7.584  -1.927 131.018  0.00  0.00    +0.000 HD
ATOM      6  H   UNL     1      -7.393  -3.004 128.937  0.00  0.00    +0.000 HD
ENDROOT
BRANCH   4   7
ATOM      7  C   UNL     1      -6.961  -2.076 127.094  0.00  0.00    +0.000 A 
ATOM      8  C   UNL     1      -7.969  -2.529 126.222  0.00  0.00    +0.000 A 
ATOM      9  C   UNL     1      -7.792  -2.542 124.832  0.00  0.00    +0.000 A 
ATOM     10 CL   UNL     1      -9.101  -3.114 123.858  0.00  0.00    +0.000 Cl
ATOM     11  C   UNL     1      -6.592  -2.094 124.285  0.00  0.00    +0.000 A 
ATOM     12 CL   UNL     1      -6.309  -2.054 122.580  0.00  0.00    +0.000 Cl
ATOM     13  C   UNL     1      -5.577  -1.644 125.138  0.00  0.00    +0.000 A 
ATOM     14  C   UNL     1      -5.763  -1.620 126.536  0.00  0.00    +0.000 A 
ENDBRANCH   4   7
BRANCH   1  19
ATOM     15 CL   UNL     1      -9.173   3.722 133.915  0.00  0.00    +0.000 Cl
ATOM     16  C   UNL     1      -8.733   2.349 132.979  0.00  0.00    +0.000 A 
ATOM     17  C   UNL     1      -7.415   1.894 132.934  0.00  0.00    +0.000 A 
ATOM     18  C   UNL     1      -7.065   0.773 132.141  0.00  0.00    +0.000 A 
ATOM     19  C   UNL     1      -8.040   0.096 131.389  0.00  0.00    +0.000 A 
ATOM     20  C   UNL     1      -9.354   0.580 131.483  0.00  0.00    +0.000 A 
ATOM     21  C   UNL     1      -9.704   1.687 132.256  0.00  0.00    +0.000 A 
ENDBRANCH   1  19
TORSDOF 2
ENDMDL
MODEL 7
REMARK VINA RESULT:      -6.5     10.173     10.759
REMARK  Name = Triclocarban
REMARK  2 active torsions:
REMARK  status: ('A' for Active; 'I' for Inactive)
REMARK    1  A    between atoms: C_5  and  N_6
REMARK    2  A    between atoms: N_9  and  C_10
REMARK                            x       y       z     vdW  Elec       q    Type
REMARK                         _______ _______ _______ _____ _____    ______ ____
ROOT
ATOM      1  N   UNL     1      -6.063  -2.612 130.712  0.00  0.00    +0.000 N 
ATOM      2  C   UNL     1      -6.690  -2.963 129.520  0.00  0.00    +0.000 C 
ATOM      3  O   UNL     1      -7.267  -4.039 129.343  0.00  0.00    +0.000 OA
ATOM      4  N   UNL     1      -6.631  -2.040 128.482  0.00  0.00    +0.000 N 
ATOM      5  H   UNL     1      -5.592  -1.719 130.781  0.00  0.00    +0.000 HD
ATOM      6  H   UNL     1      -5.887  -1.358 128.476  0.00  0.00    +0.000 HD
ENDROOT
BRANCH   4   7
ATOM      7  C   UNL     1      -7.254  -2.364 127.226  0.00  0.00    +0.000 A 
ATOM      8  C   UNL     1      -6.482  -2.484 126.057  0.00  0.00    +0.000 A 
ATOM      9  C   UNL     1      -7.064  -2.757 124.812  0.00  0.00    +0.000 A 
ATOM     10 CL   UNL     1      -6.015  -2.889 123.443  0.00  0.00    +0.000 Cl
ATOM     11  C   UNL     1      -8.444  -2.921 124.716  0.00  0.00    +0.000 A 
ATOM     12 CL   UNL     1      -9.232  -3.287 123.222  0.00  0.00    +0.000 Cl
ATOM     13  C   UNL     1      -9.228  -2.800 125.870  0.00  0.00    +0.000 A 
ATOM     14  C   UNL     1      -8.638  -2.538 127.123  0.00  0.00    +0.000 A 
ENDBRANCH   4   7
BRANCH   1  19
ATOM     15 CL   UNL     1      -6.051  -6.203 135.525  0.00  0.00    +0.000 Cl
ATOM     16  C   UNL     1      -6.057  -5.148 134.167  0.00  0.00    +0.000 A 
ATOM     17  C   UNL     1      -6.971  -4.100 134.067  0.00  0.00    +0.000 A 
ATOM     18  C   UNL     1      -6.976  -3.252 132.933  0.00  0.00    +0.000 A 
ATOM     19  C   UNL     1      -6.058  -3.450 131.887  0.00  0.00    +0.000 A 
ATOM     20  C   UNL     1      -5.147  -4.506 132.043  0.00  0.00    +0.000 A 
ATOM     21  C   UNL     1      -5.140  -5.348 133.155  0.00  0.00    +0.000 A 
ENDBRANCH   1  19
TORSDOF 2
ENDMDL
MODEL 8
REMARK VINA RESULT:      -6.5      7.938      8.662
REMARK  Name = Triclocarban
REMARK  2 active torsions:
REMARK  status: ('A' for Active; 'I' for Inactive)
REMARK    1  A    between atoms: C_5  and  N_6
REMARK    2  A    between atoms: N_9  and  C_10
REMARK                            x       y       z     vdW  Elec       q    Type
REMARK                         _______ _______ _______ _____ _____    ______ ____
ROOT
ATOM      1  N   UNL     1      -4.996   3.661 127.034  0.00  0.00    +0.000 N 
ATOM      2  C   UNL     1      -5.708   3.918 125.867  0.00  0.00    +0.000 C 
ATOM      3  O   UNL     1      -6.150   5.030 125.567  0.00  0.00    +0.000 OA
ATOM      4  N   UNL     1      -5.937   2.840 125.019  0.00  0.00    +0.000 N 
ATOM      5  H   UNL     1      -4.678   2.720 127.226  0.00  0.00    +0.000 HD
ATOM      6  H   UNL     1      -5.917   1.906 125.401  0.00  0.00    +0.000 HD
ENDROOT
BRANCH   4   7
ATOM      7  C   UNL     1      -6.680   3.054 123.806  0.00  0.00    +0.000 A 
ATOM      8  C   UNL     1      -6.054   3.608 122.674  0.00  0.00    +0.000 A 
ATOM      9  C   UNL     1      -6.760   3.867 121.492  0.00  0.00    +0.000 A 
ATOM     10 CL   UNL     1      -5.885   4.544 120.162  0.00  0.00    +0.000 Cl
ATOM     11  C   UNL     1      -8.119   3.570 121.421  0.00  0.00    +0.000 A 
ATOM     12 CL   UNL     1      -9.051   3.835 119.989  0.00  0.00    +0.000 Cl
ATOM     13  C   UNL     1      -8.759   3.022 122.539  0.00  0.00    +0.000 A 
ATOM     14  C   UNL     1      -8.043   2.750 123.722  0.00  0.00    +0.000 A 
ENDBRANCH   4   7
BRANCH   1  19
ATOM     15 CL   UNL     1      -3.706   7.930 131.057  0.00  0.00    +0.000 Cl
ATOM     16  C   UNL     1      -4.043   6.701 129.901  0.00  0.00    +0.000 A 
ATOM     17  C   UNL     1      -3.319   6.606 128.713  0.00  0.00    +0.000 A 
ATOM     18  C   UNL     1      -3.622   5.600 127.762  0.00  0.00    +0.000 A 
ATOM     19  C   UNL     1      -4.656   4.678 128.000  0.00  0.00    +0.000 A 
ATOM     20  C   UNL     1      -5.341   4.804 129.218  0.00  0.00    +0.000 A 
ATOM     21  C   UNL     1      -5.052   5.795 130.157  0.00  0.00    +0.000 A 
ENDBRANCH   1  19
TORSDOF 2
ENDMDL
MODEL 9
REMARK VINA RESULT:      -6.5      8.532     10.331
REMARK  Name = Triclocarban
REMARK  2 active torsions:
REMARK  status: ('A' for Active; 'I' for Inactive)
REMARK    1  A    between atoms: C_5  and  N_6
REMARK    2  A    between atoms: N_9  and  C_10
REMARK                            x       y       z     vdW  Elec       q    Type
REMARK                         _______ _______ _______ _____ _____    ______ ____
ROOT
ATOM      1  N   UNL     1      -5.445  -0.566 127.390  0.00  0.00    +0.000 N 
ATOM      2  C   UNL     1      -5.062   0.771 127.322  0.00  0.00    +0.000 C 
ATOM      3  O   UNL     1      -5.427   1.540 126.430  0.00  0.00    +0.000 OA
ATOM      4  N   UNL     1      -4.204   1.232 128.315  0.00  0.00    +0.000 N 
ATOM      5  H   UNL     1      -5.092  -1.145 128.141  0.00  0.00    +0.000 HD
ATOM      6  H   UNL     1      -3.626   0.567 128.807  0.00  0.00    +0.000 HD
ENDROOT
BRANCH   4   7
ATOM      7  C   UNL     1      -3.771   2.603 128.279  0.00  0.00    +0.000 A 
ATOM      8  C   UNL     1      -4.396   3.570 129.087  0.00  0.00    +0.000 A 
ATOM      9  C   UNL     1      -4.025   4.920 129.045  0.00  0.00    +0.000 A 
ATOM     10 CL   UNL     1      -4.858   6.019 130.089  0.00  0.00    +0.000 Cl
ATOM     11  C   UNL     1      -3.009   5.330 128.184  0.00  0.00    +0.000 A 
ATOM     12 CL   UNL     1      -2.477   6.972 128.094  0.00  0.00    +0.000 Cl
ATOM     13  C   UNL     1      -2.380   4.381 127.368  0.00  0.00    +0.000 A 
ATOM     14  C   UNL     1      -2.747   3.021 127.424  0.00  0.00    +0.000 A 
ENDBRANCH   4   7
BRANCH   1  19
ATOM     15 CL   UNL     1      -9.258  -3.212 123.580  0.00  0.00    +0.000 Cl
ATOM     16  C   UNL     1      -8.150  -2.441 124.645  0.00  0.00    +0.000 A 
ATOM     17  C   UNL     1      -6.780  -2.436 124.387  0.00  0.00    +0.000 A 
ATOM     18  C   UNL     1      -5.878  -1.813 125.285  0.00  0.00    +0.000 A 
ATOM     19  C   UNL     1      -6.348  -1.185 126.451  0.00  0.00    +0.000 A 
ATOM     20  C   UNL     1      -7.737  -1.201 126.656  0.00  0.00    +0.000 A 
ATOM     21  C   UNL     1      -8.630  -1.817 125.779  0.00  0.00    +0.000 A 
ENDBRANCH   1  19
TORSDOF 2
ENDMDL
