MODEL 1
REMARK VINA RESULT:      -5.5      0.000      0.000
REMARK  Name = Triclofos
REMARK  5 active torsions:
REMARK  status: ('A' for Active; 'I' for Inactive)
REMARK    1  A    between atoms: O_1  and  P_2
REMARK    2  A    between atoms: P_2  and  O_3
REMARK    3  A    between atoms: P_2  and  O_5
REMARK    4  A    between atoms: O_5  and  C_6
REMARK    5  A    between atoms: C_6  and  C_7
REMARK                            x       y       z     vdW  Elec       q    Type
REMARK                         _______ _______ _______ _____ _____    ______ ____
ROOT
ATOM      1  P   UNL     1     -10.916   7.356 126.643  0.00  0.00    +0.000 P 
ATOM      2  O   UNL     1      -9.718   6.480 126.300  0.00  0.00    +0.000 OA
ENDROOT
BRANCH   1   3
ATOM      3  O   UNL     1     -10.665   8.091 125.097  0.00  0.00    +0.000 OA
ATOM      4  H   UNL     1      -9.849   8.623 125.106  0.00  0.00    +0.000 HD
ENDBRANCH   1   3
BRANCH   1   5
ATOM      5  O   UNL     1     -12.268   6.735 125.994  0.00  0.00    +0.000 OA
ATOM      6  H   UNL     1     -12.995   7.020 126.542  0.00  0.00    +0.000 HD
ENDBRANCH   1   5
BRANCH   1   7
ATOM      7  O   UNL     1     -11.168   6.621 128.188  0.00  0.00    +0.000 OA
BRANCH   7   8
ATOM      8  C   UNL     1     -11.231   7.539 129.297  0.00  0.00    +0.000 C 
BRANCH   8   9
ATOM      9  C   UNL     1     -12.645   7.931 129.714  0.00  0.00    +0.000 C 
ATOM     10 CL   UNL     1     -12.886   7.624 131.462  0.00  0.00    +0.000 Cl
ATOM     11 CL   UNL     1     -12.964   9.649 129.356  0.00  0.00    +0.000 Cl
ATOM     12 CL   UNL     1     -13.820   6.923 128.797  0.00  0.00    +0.000 Cl
ENDBRANCH   8   9
ENDBRANCH   7   8
ENDBRANCH   1   7
TORSDOF 5
ENDMDL
MODEL 2
REMARK VINA RESULT:      -5.5      0.020      1.598
REMARK  Name = Triclofos
REMARK  5 active torsions:
REMARK  status: ('A' for Active; 'I' for Inactive)
REMARK    1  A    between atoms: O_1  and  P_2
REMARK    2  A    between atoms: P_2  and  O_3
REMARK    3  A    between atoms: P_2  and  O_5
REMARK    4  A    between atoms: O_5  and  C_6
REMARK    5  A    between atoms: C_6  and  C_7
REMARK                            x       y       z     vdW  Elec       q    Type
REMARK                         _______ _______ _______ _____ _____    ______ ____
ROOT
ATOM      1  P   UNL     1     -10.905   7.355 126.635  0.00  0.00    +0.000 P 
ATOM      2  O   UNL     1      -9.709   6.479 126.285  0.00  0.00    +0.000 OA
ENDROOT
BRANCH   1   3
ATOM      3  O   UNL     1     -10.665   8.087 125.086  0.00  0.00    +0.000 OA
ATOM      4  H   UNL     1     -10.589   7.403 124.398  0.00  0.00    +0.000 HD
ENDBRANCH   1   3
BRANCH   1   5
ATOM      5  O   UNL     1     -12.261   6.733 125.999  0.00  0.00    +0.000 OA
ATOM      6  H   UNL     1     -12.719   7.449 125.566  0.00  0.00    +0.000 HD
ENDBRANCH   1   5
BRANCH   1   7
ATOM      7  O   UNL     1     -11.144   6.623 128.184  0.00  0.00    +0.000 OA
BRANCH   7   8
ATOM      8  C   UNL     1     -11.230   7.545 129.288  0.00  0.00    +0.000 C 
BRANCH   8   9
ATOM      9  C   UNL     1     -12.654   7.892 129.712  0.00  0.00    +0.000 C 
ATOM     10 CL   UNL     1     -13.835   6.919 128.781  0.00  0.00    +0.000 Cl
ATOM     11 CL   UNL     1     -12.888   7.614 131.458  0.00  0.00    +0.000 Cl
ATOM     12 CL   UNL     1     -12.956   9.631 129.360  0.00  0.00    +0.000 Cl
ENDBRANCH   8   9
ENDBRANCH   7   8
ENDBRANCH   1   7
TORSDOF 5
ENDMDL
MODEL 3
REMARK VINA RESULT:      -5.1      1.755      2.404
REMARK  Name = Triclofos
REMARK  5 active torsions:
REMARK  status: ('A' for Active; 'I' for Inactive)
REMARK    1  A    between atoms: O_1  and  P_2
REMARK    2  A    between atoms: P_2  and  O_3
REMARK    3  A    between atoms: P_2  and  O_5
REMARK    4  A    between atoms: O_5  and  C_6
REMARK    5  A    between atoms: C_6  and  C_7
REMARK                            x       y       z     vdW  Elec       q    Type
REMARK                         _______ _______ _______ _____ _____    ______ ____
ROOT
ATOM      1  P   UNL     1     -11.041   7.325 126.716  0.00  0.00    +0.000 P 
ATOM      2  O   UNL     1      -9.811   6.488 126.389  0.00  0.00    +0.000 OA
ENDROOT
BRANCH   1   3
ATOM      3  O   UNL     1     -10.744   8.126 125.212  0.00  0.00    +0.000 OA
ATOM      4  H   UNL     1      -9.829   8.459 125.182  0.00  0.00    +0.000 HD
ENDBRANCH   1   3
BRANCH   1   5
ATOM      5  O   UNL     1     -12.352   6.704 125.990  0.00  0.00    +0.000 OA
ATOM      6  H   UNL     1     -12.311   6.965 125.074  0.00  0.00    +0.000 HD
ENDBRANCH   1   5
BRANCH   1   7
ATOM      7  O   UNL     1     -11.338   6.525 128.221  0.00  0.00    +0.000 OA
BRANCH   7   8
ATOM      8  C   UNL     1     -10.658   7.092 129.358  0.00  0.00    +0.000 C 
BRANCH   8   9
ATOM      9  C   UNL     1     -10.886   6.345 130.668  0.00  0.00    +0.000 C 
ATOM     10 CL   UNL     1     -11.241   4.620 130.346  0.00  0.00    +0.000 Cl
ATOM     11 CL   UNL     1      -9.464   6.477 131.736  0.00  0.00    +0.000 Cl
ATOM     12 CL   UNL     1     -12.306   7.065 131.507  0.00  0.00    +0.000 Cl
ENDBRANCH   8   9
ENDBRANCH   7   8
ENDBRANCH   1   7
TORSDOF 5
ENDMDL
MODEL 4
REMARK VINA RESULT:      -4.9      3.186      4.410
REMARK  Name = Triclofos
REMARK  5 active torsions:
REMARK  status: ('A' for Active; 'I' for Inactive)
REMARK    1  A    between atoms: O_1  and  P_2
REMARK    2  A    between atoms: P_2  and  O_3
REMARK    3  A    between atoms: P_2  and  O_5
REMARK    4  A    between atoms: O_5  and  C_6
REMARK    5  A    between atoms: C_6  and  C_7
REMARK                            x       y       z     vdW  Elec       q    Type
REMARK                         _______ _______ _______ _____ _____    ______ ____
ROOT
ATOM      1  P   UNL     1     -10.951   6.138 131.211  0.00  0.00    +0.000 P 
ATOM      2  O   UNL     1     -12.370   6.479 131.648  0.00  0.00    +0.000 OA
ENDROOT
BRANCH   1   3
ATOM      3  O   UNL     1     -10.515   6.377 132.868  0.00  0.00    +0.000 OA
ATOM      4  H   UNL     1     -11.299   6.623 133.391  0.00  0.00    +0.000 HD
ENDBRANCH   1   3
BRANCH   1   5
ATOM      5  O   UNL     1     -10.642   4.568 131.481  0.00  0.00    +0.000 OA
ATOM      6  H   UNL     1     -11.158   4.311 132.241  0.00  0.00    +0.000 HD
ENDBRANCH   1   5
BRANCH   1   7
ATOM      7  O   UNL     1     -11.387   5.899 129.554  0.00  0.00    +0.000 OA
BRANCH   7   8
ATOM      8  C   UNL     1     -12.571   6.601 129.128  0.00  0.00    +0.000 C 
BRANCH   8   9
ATOM      9  C   UNL     1     -12.319   7.697 128.097  0.00  0.00    +0.000 C 
ATOM     10 CL   UNL     1     -13.501   9.027 128.302  0.00  0.00    +0.000 Cl
ATOM     11 CL   UNL     1     -10.661   8.339 128.238  0.00  0.00    +0.000 Cl
ATOM     12 CL   UNL     1     -12.532   7.004 126.451  0.00  0.00    +0.000 Cl
ENDBRANCH   8   9
ENDBRANCH   7   8
ENDBRANCH   1   7
TORSDOF 5
ENDMDL
MODEL 5
REMARK VINA RESULT:      -4.9      3.141      4.409
REMARK  Name = Triclofos
REMARK  5 active torsions:
REMARK  status: ('A' for Active; 'I' for Inactive)
REMARK    1  A    between atoms: O_1  and  P_2
REMARK    2  A    between atoms: P_2  and  O_3
REMARK    3  A    between atoms: P_2  and  O_5
REMARK    4  A    between atoms: O_5  and  C_6
REMARK    5  A    between atoms: C_6  and  C_7
REMARK                            x       y       z     vdW  Elec       q    Type
REMARK                         _______ _______ _______ _____ _____    ______ ____
ROOT
ATOM      1  P   UNL     1     -10.810   5.754 131.203  0.00  0.00    +0.000 P 
ATOM      2  O   UNL     1      -9.844   6.930 131.265  0.00  0.00    +0.000 OA
ENDROOT
BRANCH   1   3
ATOM      3  O   UNL     1     -10.493   5.564 132.893  0.00  0.00    +0.000 OA
ATOM      4  H   UNL     1      -9.835   4.860 133.035  0.00  0.00    +0.000 HD
ENDBRANCH   1   3
BRANCH   1   5
ATOM      5  O   UNL     1     -12.295   6.225 131.657  0.00  0.00    +0.000 OA
ATOM      6  H   UNL     1     -12.283   6.302 132.607  0.00  0.00    +0.000 HD
ENDBRANCH   1   5
BRANCH   1   7
ATOM      7  O   UNL     1     -11.128   5.944 129.513  0.00  0.00    +0.000 OA
BRANCH   7   8
ATOM      8  C   UNL     1     -12.361   6.618 129.196  0.00  0.00    +0.000 C 
BRANCH   8   9
ATOM      9  C   UNL     1     -12.233   7.704 128.133  0.00  0.00    +0.000 C 
ATOM     10 CL   UNL     1     -12.515   7.016 126.504  0.00  0.00    +0.000 Cl
ATOM     11 CL   UNL     1     -13.385   9.033 128.432  0.00  0.00    +0.000 Cl
ATOM     12 CL   UNL     1     -10.562   8.369 128.182  0.00  0.00    +0.000 Cl
ENDBRANCH   8   9
ENDBRANCH   7   8
ENDBRANCH   1   7
TORSDOF 5
ENDMDL
MODEL 6
REMARK VINA RESULT:      -4.7      2.782      3.291
REMARK  Name = Triclofos
REMARK  5 active torsions:
REMARK  status: ('A' for Active; 'I' for Inactive)
REMARK    1  A    between atoms: O_1  and  P_2
REMARK    2  A    between atoms: P_2  and  O_3
REMARK    3  A    between atoms: P_2  and  O_5
REMARK    4  A    between atoms: O_5  and  C_6
REMARK    5  A    between atoms: C_6  and  C_7
REMARK                            x       y       z     vdW  Elec       q    Type
REMARK                         _______ _______ _______ _____ _____    ______ ____
ROOT
ATOM      1  P   UNL     1     -10.832   7.321 127.363  0.00  0.00    +0.000 P 
ATOM      2  O   UNL     1      -9.786   6.379 126.780  0.00  0.00    +0.000 OA
ENDROOT
BRANCH   1   3
ATOM      3  O   UNL     1     -11.801   6.891 125.996  0.00  0.00    +0.000 OA
ATOM      4  H   UNL     1     -12.195   6.010 126.126  0.00  0.00    +0.000 HD
ENDBRANCH   1   3
BRANCH   1   5
ATOM      5  O   UNL     1     -11.911   6.486 128.240  0.00  0.00    +0.000 OA
ATOM      6  H   UNL     1     -11.688   6.623 129.158  0.00  0.00    +0.000 HD
ENDBRANCH   1   5
BRANCH   1   7
ATOM      7  O   UNL     1      -9.862   7.751 128.730  0.00  0.00    +0.000 OA
BRANCH   7   8
ATOM      8  C   UNL     1     -10.398   7.352 130.007  0.00  0.00    +0.000 C 
BRANCH   8   9
ATOM      9  C   UNL     1      -9.505   6.401 130.798  0.00  0.00    +0.000 C 
ATOM     10 CL   UNL     1      -7.851   7.075 130.940  0.00  0.00    +0.000 Cl
ATOM     11 CL   UNL     1     -10.172   6.099 132.423  0.00  0.00    +0.000 Cl
ATOM     12 CL   UNL     1      -9.401   4.836 129.917  0.00  0.00    +0.000 Cl
ENDBRANCH   8   9
ENDBRANCH   7   8
ENDBRANCH   1   7
TORSDOF 5
ENDMDL
MODEL 7
REMARK VINA RESULT:      -4.5      9.382     10.114
REMARK  Name = Triclofos
REMARK  5 active torsions:
REMARK  status: ('A' for Active; 'I' for Inactive)
REMARK    1  A    between atoms: O_1  and  P_2
REMARK    2  A    between atoms: P_2  and  O_3
REMARK    3  A    between atoms: P_2  and  O_5
REMARK    4  A    between atoms: O_5  and  C_6
REMARK    5  A    between atoms: C_6  and  C_7
REMARK                            x       y       z     vdW  Elec       q    Type
REMARK                         _______ _______ _______ _____ _____    ______ ____
ROOT
ATOM      1  P   UNL     1      -9.598   1.199 124.417  0.00  0.00    +0.000 P 
ATOM      2  O   UNL     1      -8.737   1.407 123.177  0.00  0.00    +0.000 OA
ENDROOT
BRANCH   1   3
ATOM      3  O   UNL     1      -9.484   2.912 124.633  0.00  0.00    +0.000 OA
ATOM      4  H   UNL     1      -8.792   3.124 125.284  0.00  0.00    +0.000 HD
ENDBRANCH   1   3
BRANCH   1   5
ATOM      5  O   UNL     1     -11.159   1.467 124.067  0.00  0.00    +0.000 OA
ATOM      6  H   UNL     1     -11.251   1.374 123.122  0.00  0.00    +0.000 HD
ENDBRANCH   1   5
BRANCH   1   7
ATOM      7  O   UNL     1      -9.711  -0.514 124.201  0.00  0.00    +0.000 OA
BRANCH   7   8
ATOM      8  C   UNL     1      -8.476  -1.234 124.379  0.00  0.00    +0.000 C 
BRANCH   8   9
ATOM      9  C   UNL     1      -8.644  -2.737 124.580  0.00  0.00    +0.000 C 
ATOM     10 CL   UNL     1      -7.065  -3.566 124.421  0.00  0.00    +0.000 Cl
ATOM     11 CL   UNL     1      -9.353  -3.095 126.177  0.00  0.00    +0.000 Cl
ATOM     12 CL   UNL     1      -9.744  -3.372 123.305  0.00  0.00    +0.000 Cl
ENDBRANCH   8   9
ENDBRANCH   7   8
ENDBRANCH   1   7
TORSDOF 5
ENDMDL
MODEL 8
REMARK VINA RESULT:      -4.4      2.922      3.709
REMARK  Name = Triclofos
REMARK  5 active torsions:
REMARK  status: ('A' for Active; 'I' for Inactive)
REMARK    1  A    between atoms: O_1  and  P_2
REMARK    2  A    between atoms: P_2  and  O_3
REMARK    3  A    between atoms: P_2  and  O_5
REMARK    4  A    between atoms: O_5  and  C_6
REMARK    5  A    between atoms: C_6  and  C_7
REMARK                            x       y       z     vdW  Elec       q    Type
REMARK                         _______ _______ _______ _____ _____    ______ ____
ROOT
ATOM      1  P   UNL     1     -10.692   5.049 130.439  0.00  0.00    +0.000 P 
ATOM      2  O   UNL     1     -11.404   3.735 130.143  0.00  0.00    +0.000 OA
ENDROOT
BRANCH   1   3
ATOM      3  O   UNL     1      -9.314   4.074 130.820  0.00  0.00    +0.000 OA
ATOM      4  H   UNL     1      -9.396   3.714 131.721  0.00  0.00    +0.000 HD
ENDBRANCH   1   3
BRANCH   1   5
ATOM      5  O   UNL     1      -9.843   5.531 129.143  0.00  0.00    +0.000 OA
ATOM      6  H   UNL     1     -10.272   6.312 128.805  0.00  0.00    +0.000 HD
ENDBRANCH   1   5
BRANCH   1   7
ATOM      7  O   UNL     1     -12.070   6.023 130.058  0.00  0.00    +0.000 OA
BRANCH   7   8
ATOM      8  C   UNL     1     -11.856   7.445 130.154  0.00  0.00    +0.000 C 
BRANCH   8   9
ATOM      9  C   UNL     1     -12.249   8.229 128.905  0.00  0.00    +0.000 C 
ATOM     10 CL   UNL     1     -13.030   9.775 129.361  0.00  0.00    +0.000 Cl
ATOM     11 CL   UNL     1     -10.827   8.553 127.879  0.00  0.00    +0.000 Cl
ATOM     12 CL   UNL     1     -13.433   7.257 127.960  0.00  0.00    +0.000 Cl
ENDBRANCH   8   9
ENDBRANCH   7   8
ENDBRANCH   1   7
TORSDOF 5
ENDMDL
MODEL 9
REMARK VINA RESULT:      -4.2     10.576     11.277
REMARK  Name = Triclofos
REMARK  5 active torsions:
REMARK  status: ('A' for Active; 'I' for Inactive)
REMARK    1  A    between atoms: O_1  and  P_2
REMARK    2  A    between atoms: P_2  and  O_3
REMARK    3  A    between atoms: P_2  and  O_5
REMARK    4  A    between atoms: O_5  and  C_6
REMARK    5  A    between atoms: C_6  and  C_7
REMARK                            x       y       z     vdW  Elec       q    Type
REMARK                         _______ _______ _______ _____ _____    ______ ____
ROOT
ATOM      1  P   UNL     1      -9.281  -0.067 123.273  0.00  0.00    +0.000 P 
ATOM      2  O   UNL     1      -9.646  -1.517 122.982  0.00  0.00    +0.000 OA
ENDROOT
BRANCH   1   3
ATOM      3  O   UNL     1     -10.798   0.332 122.543  0.00  0.00    +0.000 OA
ATOM      4  H   UNL     1     -11.357  -0.462 122.471  0.00  0.00    +0.000 HD
ENDBRANCH   1   3
BRANCH   1   5
ATOM      5  O   UNL     1      -9.960   0.414 124.665  0.00  0.00    +0.000 OA
ATOM      6  H   UNL     1     -10.699   0.971 124.436  0.00  0.00    +0.000 HD
ENDBRANCH   1   5
BRANCH   1   7
ATOM      7  O   UNL     1      -7.764  -0.466 124.002  0.00  0.00    +0.000 OA
BRANCH   7   8
ATOM      8  C   UNL     1      -6.955  -1.397 123.256  0.00  0.00    +0.000 C 
BRANCH   8   9
ATOM      9  C   UNL     1      -6.296  -2.481 124.103  0.00  0.00    +0.000 C 
ATOM     10 CL   UNL     1      -4.885  -3.171 123.243  0.00  0.00    +0.000 Cl
ATOM     11 CL   UNL     1      -5.779  -1.833 125.683  0.00  0.00    +0.000 Cl
ATOM     12 CL   UNL     1      -7.486  -3.801 124.384  0.00  0.00    +0.000 Cl
ENDBRANCH   8   9
ENDBRANCH   7   8
ENDBRANCH   1   7
TORSDOF 5
ENDMDL
