MODEL 1
REMARK VINA RESULT:      -3.2      0.000      0.000
REMARK  Name = Trichloroethylene
REMARK  0 active torsions:
REMARK  status: ('A' for Active; 'I' for Inactive)
REMARK                            x       y       z     vdW  Elec       q    Type
REMARK                         _______ _______ _______ _____ _____    ______ ____
ROOT
ATOM      1 CL   UNL     1     -10.501   8.411 127.915  0.00  0.00    +0.000 Cl
ATOM      2  C   UNL     1     -11.265   7.813 129.330  0.00  0.00    +0.000 C 
ATOM      3  C   UNL     1     -12.311   8.369 129.947  0.00  0.00    +0.000 C 
ATOM      4 CL   UNL     1     -13.075   9.817 129.401  0.00  0.00    +0.000 Cl
ATOM      5 CL   UNL     1     -12.957   7.623 131.368  0.00  0.00    +0.000 Cl
ENDROOT
TORSDOF 0
ENDMDL
MODEL 2
REMARK VINA RESULT:      -3.1      0.654      2.803
REMARK  Name = Trichloroethylene
REMARK  0 active torsions:
REMARK  status: ('A' for Active; 'I' for Inactive)
REMARK                            x       y       z     vdW  Elec       q    Type
REMARK                         _______ _______ _______ _____ _____    ______ ____
ROOT
ATOM      1 CL   UNL     1     -12.903   7.461 131.410  0.00  0.00    +0.000 Cl
ATOM      2  C   UNL     1     -11.786   7.622 130.118  0.00  0.00    +0.000 C 
ATOM      3  C   UNL     1     -11.894   8.472 129.093  0.00  0.00    +0.000 C 
ATOM      4 CL   UNL     1     -13.213   9.569 128.905  0.00  0.00    +0.000 Cl
ATOM      5 CL   UNL     1     -10.665   8.500 127.875  0.00  0.00    +0.000 Cl
ENDROOT
TORSDOF 0
ENDMDL
MODEL 3
REMARK VINA RESULT:      -3.0      1.829      2.531
REMARK  Name = Trichloroethylene
REMARK  0 active torsions:
REMARK  status: ('A' for Active; 'I' for Inactive)
REMARK                            x       y       z     vdW  Elec       q    Type
REMARK                         _______ _______ _______ _____ _____    ______ ____
ROOT
ATOM      1 CL   UNL     1     -12.872   6.838 126.735  0.00  0.00    +0.000 Cl
ATOM      2  C   UNL     1     -13.244   7.941 127.995  0.00  0.00    +0.000 C 
ATOM      3  C   UNL     1     -12.368   8.718 128.637  0.00  0.00    +0.000 C 
ATOM      4 CL   UNL     1     -10.678   8.731 128.290  0.00  0.00    +0.000 Cl
ATOM      5 CL   UNL     1     -12.925   9.778 129.887  0.00  0.00    +0.000 Cl
ENDROOT
TORSDOF 0
ENDMDL
MODEL 4
REMARK VINA RESULT:      -2.9      1.360      2.257
REMARK  Name = Trichloroethylene
REMARK  0 active torsions:
REMARK  status: ('A' for Active; 'I' for Inactive)
REMARK                            x       y       z     vdW  Elec       q    Type
REMARK                         _______ _______ _______ _____ _____    ______ ____
ROOT
ATOM      1 CL   UNL     1      -9.705   7.215 130.220  0.00  0.00    +0.000 Cl
ATOM      2  C   UNL     1     -10.901   7.997 129.271  0.00  0.00    +0.000 C 
ATOM      3  C   UNL     1     -12.178   8.179 129.617  0.00  0.00    +0.000 C 
ATOM      4 CL   UNL     1     -12.841   7.637 131.116  0.00  0.00    +0.000 Cl
ATOM      5 CL   UNL     1     -13.248   8.996 128.530  0.00  0.00    +0.000 Cl
ENDROOT
TORSDOF 0
ENDMDL
MODEL 5
REMARK VINA RESULT:      -2.9      2.041      2.857
REMARK  Name = Trichloroethylene
REMARK  0 active torsions:
REMARK  status: ('A' for Active; 'I' for Inactive)
REMARK                            x       y       z     vdW  Elec       q    Type
REMARK                         _______ _______ _______ _____ _____    ______ ____
ROOT
ATOM      1 CL   UNL     1     -13.217   6.801 128.761  0.00  0.00    +0.000 Cl
ATOM      2  C   UNL     1     -11.740   6.717 129.629  0.00  0.00    +0.000 C 
ATOM      3  C   UNL     1     -10.643   7.435 129.377  0.00  0.00    +0.000 C 
ATOM      4 CL   UNL     1     -10.539   8.591 128.100  0.00  0.00    +0.000 Cl
ATOM      5 CL   UNL     1      -9.237   7.219 130.363  0.00  0.00    +0.000 Cl
ENDROOT
TORSDOF 0
ENDMDL
MODEL 6
REMARK VINA RESULT:      -2.9      1.204      2.574
REMARK  Name = Trichloroethylene
REMARK  0 active torsions:
REMARK  status: ('A' for Active; 'I' for Inactive)
REMARK                            x       y       z     vdW  Elec       q    Type
REMARK                         _______ _______ _______ _____ _____    ______ ____
ROOT
ATOM      1 CL   UNL     1     -11.984   6.204 130.467  0.00  0.00    +0.000 Cl
ATOM      2  C   UNL     1     -12.692   7.766 130.434  0.00  0.00    +0.000 C 
ATOM      3  C   UNL     1     -12.391   8.743 129.575  0.00  0.00    +0.000 C 
ATOM      4 CL   UNL     1     -11.209   8.579 128.329  0.00  0.00    +0.000 Cl
ATOM      5 CL   UNL     1     -13.212  10.262 129.689  0.00  0.00    +0.000 Cl
ENDROOT
TORSDOF 0
ENDMDL
MODEL 7
REMARK VINA RESULT:      -2.8      1.885      2.408
REMARK  Name = Trichloroethylene
REMARK  0 active torsions:
REMARK  status: ('A' for Active; 'I' for Inactive)
REMARK                            x       y       z     vdW  Elec       q    Type
REMARK                         _______ _______ _______ _____ _____    ______ ____
ROOT
ATOM      1 CL   UNL     1      -8.942   7.175 130.577  0.00  0.00    +0.000 Cl
ATOM      2  C   UNL     1     -10.634   7.059 130.323  0.00  0.00    +0.000 C 
ATOM      3  C   UNL     1     -11.315   7.629 129.325  0.00  0.00    +0.000 C 
ATOM      4 CL   UNL     1     -10.575   8.599 128.105  0.00  0.00    +0.000 Cl
ATOM      5 CL   UNL     1     -13.027   7.402 129.223  0.00  0.00    +0.000 Cl
ENDROOT
TORSDOF 0
ENDMDL
MODEL 8
REMARK VINA RESULT:      -2.8      1.446      2.028
REMARK  Name = Trichloroethylene
REMARK  0 active torsions:
REMARK  status: ('A' for Active; 'I' for Inactive)
REMARK                            x       y       z     vdW  Elec       q    Type
REMARK                         _______ _______ _______ _____ _____    ______ ____
ROOT
ATOM      1 CL   UNL     1     -10.740   8.468 127.863  0.00  0.00    +0.000 Cl
ATOM      2  C   UNL     1     -11.725   8.488 129.267  0.00  0.00    +0.000 C 
ATOM      3  C   UNL     1     -11.966   7.447 130.068  0.00  0.00    +0.000 C 
ATOM      4 CL   UNL     1     -11.305   5.875 129.804  0.00  0.00    +0.000 Cl
ATOM      5 CL   UNL     1     -12.987   7.652 131.450  0.00  0.00    +0.000 Cl
ENDROOT
TORSDOF 0
ENDMDL
MODEL 9
REMARK VINA RESULT:      -2.7     12.805     13.625
REMARK  Name = Trichloroethylene
REMARK  0 active torsions:
REMARK  status: ('A' for Active; 'I' for Inactive)
REMARK                            x       y       z     vdW  Elec       q    Type
REMARK                         _______ _______ _______ _____ _____    ______ ____
ROOT
ATOM      1 CL   UNL     1      -4.989  -2.953 123.573  0.00  0.00    +0.000 Cl
ATOM      2  C   UNL     1      -6.442  -2.155 123.130  0.00  0.00    +0.000 C 
ATOM      3  C   UNL     1      -7.673  -2.509 123.505  0.00  0.00    +0.000 C 
ATOM      4 CL   UNL     1      -8.003  -3.862 124.523  0.00  0.00    +0.000 Cl
ATOM      5 CL   UNL     1      -9.030  -1.582 122.961  0.00  0.00    +0.000 Cl
ENDROOT
TORSDOF 0
ENDMDL
