MODEL 1
REMARK VINA RESULT:      -7.4      0.000      0.000
REMARK  Name = Triclabendazole
REMARK  4 active torsions:
REMARK  status: ('A' for Active; 'I' for Inactive)
REMARK    1  A    between atoms: C_1  and  S_2
REMARK    2  A    between atoms: S_2  and  C_3
REMARK    3  A    between atoms: C_11  and  O_12
REMARK    4  A    between atoms: O_12  and  C_13
REMARK                            x       y       z     vdW  Elec       q    Type
REMARK                         _______ _______ _______ _____ _____    ______ ____
ROOT
ATOM      1  C   UNL     1      -8.726  -1.713 125.718  0.00  0.00    +0.000 A 
ATOM      2  N   UNL     1      -9.007  -1.321 124.498  0.00  0.00    +0.000 NA
ATOM      3  C   UNL     1      -8.752   0.039 124.492  0.00  0.00    +0.000 A 
ATOM      4  C   UNL     1      -8.303   0.451 125.737  0.00  0.00    +0.000 A 
ATOM      5  N   UNL     1      -8.306  -0.682 126.505  0.00  0.00    +0.000 N 
ATOM      6  C   UNL     1      -7.981   1.767 126.040  0.00  0.00    +0.000 A 
ATOM      7  C   UNL     1      -8.174   2.732 125.042  0.00  0.00    +0.000 A 
ATOM      8 CL   UNL     1      -7.989   4.339 125.665  0.00  0.00    +0.000 Cl
ATOM      9  C   UNL     1      -8.557   2.366 123.734  0.00  0.00    +0.000 A 
ATOM     10  C   UNL     1      -8.868   1.004 123.469  0.00  0.00    +0.000 A 
ATOM     11  H   UNL     1      -8.059  -0.750 127.479  0.00  0.00    +0.000 HD
ENDROOT
BRANCH   1  13
ATOM     12  C   UNL     1      -8.340  -2.980 128.134  0.00  0.00    +0.000 C 
ATOM     13  S   UNL     1      -8.831  -3.284 126.425  0.00  0.00    +0.000 S 
ENDBRANCH   1  13
BRANCH   9  14
ATOM     14  O   UNL     1      -8.714   3.173 122.613  0.00  0.00    +0.000 OA
BRANCH  14  15
ATOM     15  C   UNL     1      -7.629   3.504 121.832  0.00  0.00    +0.000 A 
ATOM     16  C   UNL     1      -6.332   3.451 122.361  0.00  0.00    +0.000 A 
ATOM     17  C   UNL     1      -5.267   3.995 121.641  0.00  0.00    +0.000 A 
ATOM     18  C   UNL     1      -5.474   4.470 120.346  0.00  0.00    +0.000 A 
ATOM     19  C   UNL     1      -6.743   4.391 119.761  0.00  0.00    +0.000 A 
ATOM     20 CL   UNL     1      -6.894   4.927 118.122  0.00  0.00    +0.000 Cl
ATOM     21  C   UNL     1      -7.834   3.916 120.505  0.00  0.00    +0.000 A 
ATOM     22 CL   UNL     1      -9.432   3.882 119.834  0.00  0.00    +0.000 Cl
ENDBRANCH  14  15
ENDBRANCH   9  14
TORSDOF 3
ENDMDL
MODEL 2
REMARK VINA RESULT:      -7.1      9.148     10.010
REMARK  Name = Triclabendazole
REMARK  4 active torsions:
REMARK  status: ('A' for Active; 'I' for Inactive)
REMARK    1  A    between atoms: C_1  and  S_2
REMARK    2  A    between atoms: S_2  and  C_3
REMARK    3  A    between atoms: C_11  and  O_12
REMARK    4  A    between atoms: O_12  and  C_13
REMARK                            x       y       z     vdW  Elec       q    Type
REMARK                         _______ _______ _______ _____ _____    ______ ____
ROOT
ATOM      1  C   UNL     1     -10.889   7.656 129.560  0.00  0.00    +0.000 A 
ATOM      2  N   UNL     1      -9.598   7.835 129.412  0.00  0.00    +0.000 NA
ATOM      3  C   UNL     1      -9.018   7.153 130.467  0.00  0.00    +0.000 A 
ATOM      4  C   UNL     1      -9.994   6.552 131.246  0.00  0.00    +0.000 A 
ATOM      5  N   UNL     1     -11.180   6.896 130.655  0.00  0.00    +0.000 N 
ATOM      6  C   UNL     1      -9.716   5.809 132.386  0.00  0.00    +0.000 A 
ATOM      7  C   UNL     1      -8.378   5.711 132.791  0.00  0.00    +0.000 A 
ATOM      8 CL   UNL     1      -8.238   4.993 134.363  0.00  0.00    +0.000 Cl
ATOM      9  C   UNL     1      -7.334   6.238 132.001  0.00  0.00    +0.000 A 
ATOM     10  C   UNL     1      -7.667   6.984 130.837  0.00  0.00    +0.000 A 
ATOM     11  H   UNL     1     -12.104   6.651 130.971  0.00  0.00    +0.000 HD
ENDROOT
BRANCH   1  13
ATOM     12  C   UNL     1     -13.312   6.819 128.550  0.00  0.00    +0.000 C 
ATOM     13  S   UNL     1     -12.203   8.241 128.607  0.00  0.00    +0.000 S 
ENDBRANCH   1  13
BRANCH   9  14
ATOM     14  O   UNL     1      -5.960   6.163 132.206  0.00  0.00    +0.000 OA
BRANCH  14  15
ATOM     15  C   UNL     1      -5.151   5.522 131.294  0.00  0.00    +0.000 A 
ATOM     16  C   UNL     1      -5.292   4.146 131.066  0.00  0.00    +0.000 A 
ATOM     17  C   UNL     1      -4.332   3.468 130.313  0.00  0.00    +0.000 A 
ATOM     18  C   UNL     1      -3.311   4.180 129.683  0.00  0.00    +0.000 A 
ATOM     19  C   UNL     1      -3.254   5.574 129.792  0.00  0.00    +0.000 A 
ATOM     20 CL   UNL     1      -2.004   6.386 128.913  0.00  0.00    +0.000 Cl
ATOM     21  C   UNL     1      -4.169   6.255 130.609  0.00  0.00    +0.000 A 
ATOM     22 CL   UNL     1      -4.072   7.972 130.827  0.00  0.00    +0.000 Cl
ENDBRANCH  14  15
ENDBRANCH   9  14
TORSDOF 3
ENDMDL
MODEL 3
REMARK VINA RESULT:      -7.0      4.209      7.500
REMARK  Name = Triclabendazole
REMARK  4 active torsions:
REMARK  status: ('A' for Active; 'I' for Inactive)
REMARK    1  A    between atoms: C_1  and  S_2
REMARK    2  A    between atoms: S_2  and  C_3
REMARK    3  A    between atoms: C_11  and  O_12
REMARK    4  A    between atoms: O_12  and  C_13
REMARK                            x       y       z     vdW  Elec       q    Type
REMARK                         _______ _______ _______ _____ _____    ______ ____
ROOT
ATOM      1  C   UNL     1      -6.159   4.093 121.084  0.00  0.00    +0.000 A 
ATOM      2  N   UNL     1      -5.629   3.441 122.091  0.00  0.00    +0.000 NA
ATOM      3  C   UNL     1      -6.690   2.782 122.688  0.00  0.00    +0.000 A 
ATOM      4  C   UNL     1      -7.868   3.049 122.008  0.00  0.00    +0.000 A 
ATOM      5  N   UNL     1      -7.506   3.896 120.995  0.00  0.00    +0.000 N 
ATOM      6  C   UNL     1      -9.103   2.539 122.383  0.00  0.00    +0.000 A 
ATOM      7  C   UNL     1      -9.160   1.756 123.544  0.00  0.00    +0.000 A 
ATOM      8 CL   UNL     1     -10.797   1.434 124.017  0.00  0.00    +0.000 Cl
ATOM      9  C   UNL     1      -7.987   1.389 124.238  0.00  0.00    +0.000 A 
ATOM     10  C   UNL     1      -6.743   1.929 123.810  0.00  0.00    +0.000 A 
ATOM     11  H   UNL     1      -8.117   4.315 120.314  0.00  0.00    +0.000 HD
ENDROOT
BRANCH   1  13
ATOM     12  C   UNL     1      -6.581   5.088 118.549  0.00  0.00    +0.000 C 
ATOM     13  S   UNL     1      -5.414   5.130 119.923  0.00  0.00    +0.000 S 
ENDBRANCH   1  13
BRANCH   9  14
ATOM     14  O   UNL     1      -7.852   0.561 125.348  0.00  0.00    +0.000 OA
BRANCH  14  15
ATOM     15  C   UNL     1      -8.083  -0.792 125.243  0.00  0.00    +0.000 A 
ATOM     16  C   UNL     1      -8.214  -1.394 123.984  0.00  0.00    +0.000 A 
ATOM     17  C   UNL     1      -8.664  -2.712 123.890  0.00  0.00    +0.000 A 
ATOM     18  C   UNL     1      -8.856  -3.466 125.047  0.00  0.00    +0.000 A 
ATOM     19  C   UNL     1      -8.586  -2.910 126.303  0.00  0.00    +0.000 A 
ATOM     20 CL   UNL     1      -8.773  -3.939 127.682  0.00  0.00    +0.000 Cl
ATOM     21  C   UNL     1      -8.208  -1.563 126.411  0.00  0.00    +0.000 A 
ATOM     22 CL   UNL     1      -7.945  -0.825 127.957  0.00  0.00    +0.000 Cl
ENDBRANCH  14  15
ENDBRANCH   9  14
TORSDOF 3
ENDMDL
MODEL 4
REMARK VINA RESULT:      -6.7      6.619      8.326
REMARK  Name = Triclabendazole
REMARK  4 active torsions:
REMARK  status: ('A' for Active; 'I' for Inactive)
REMARK    1  A    between atoms: C_1  and  S_2
REMARK    2  A    between atoms: S_2  and  C_3
REMARK    3  A    between atoms: C_11  and  O_12
REMARK    4  A    between atoms: O_12  and  C_13
REMARK                            x       y       z     vdW  Elec       q    Type
REMARK                         _______ _______ _______ _____ _____    ______ ____
ROOT
ATOM      1  C   UNL     1     -10.190   4.218 130.599  0.00  0.00    +0.000 A 
ATOM      2  N   UNL     1      -9.503   3.754 129.582  0.00  0.00    +0.000 NA
ATOM      3  C   UNL     1      -9.080   2.498 129.979  0.00  0.00    +0.000 A 
ATOM      4  C   UNL     1      -9.538   2.216 131.256  0.00  0.00    +0.000 A 
ATOM      5  N   UNL     1     -10.235   3.332 131.636  0.00  0.00    +0.000 N 
ATOM      6  C   UNL     1      -9.260   1.034 131.928  0.00  0.00    +0.000 A 
ATOM      7  C   UNL     1      -8.427   0.103 131.293  0.00  0.00    +0.000 A 
ATOM      8 CL   UNL     1      -7.963  -1.176 132.367  0.00  0.00    +0.000 Cl
ATOM      9  C   UNL     1      -7.989   0.299 129.965  0.00  0.00    +0.000 A 
ATOM     10  C   UNL     1      -8.307   1.523 129.314  0.00  0.00    +0.000 A 
ATOM     11  H   UNL     1     -10.687   3.487 132.521  0.00  0.00    +0.000 HD
ENDROOT
BRANCH   1  13
ATOM     12  C   UNL     1      -9.667   6.921 130.498  0.00  0.00    +0.000 C 
ATOM     13  S   UNL     1     -10.992   5.733 130.793  0.00  0.00    +0.000 S 
ENDBRANCH   1  13
BRANCH   9  14
ATOM     14  O   UNL     1      -7.233  -0.548 129.161  0.00  0.00    +0.000 OA
BRANCH  14  15
ATOM     15  C   UNL     1      -7.839  -1.554 128.442  0.00  0.00    +0.000 A 
ATOM     16  C   UNL     1      -8.299  -2.710 129.089  0.00  0.00    +0.000 A 
ATOM     17  C   UNL     1      -8.707  -3.810 128.334  0.00  0.00    +0.000 A 
ATOM     18  C   UNL     1      -8.781  -3.712 126.944  0.00  0.00    +0.000 A 
ATOM     19  C   UNL     1      -8.459  -2.509 126.305  0.00  0.00    +0.000 A 
ATOM     20 CL   UNL     1      -8.655  -2.448 124.587  0.00  0.00    +0.000 Cl
ATOM     21  C   UNL     1      -7.975  -1.423 127.050  0.00  0.00    +0.000 A 
ATOM     22 CL   UNL     1      -7.493   0.052 126.278  0.00  0.00    +0.000 Cl
ENDBRANCH  14  15
ENDBRANCH   9  14
TORSDOF 3
ENDMDL
MODEL 5
REMARK VINA RESULT:      -6.7      5.623      7.273
REMARK  Name = Triclabendazole
REMARK  4 active torsions:
REMARK  status: ('A' for Active; 'I' for Inactive)
REMARK    1  A    between atoms: C_1  and  S_2
REMARK    2  A    between atoms: S_2  and  C_3
REMARK    3  A    between atoms: C_11  and  O_12
REMARK    4  A    between atoms: O_12  and  C_13
REMARK                            x       y       z     vdW  Elec       q    Type
REMARK                         _______ _______ _______ _____ _____    ______ ____
ROOT
ATOM      1  C   UNL     1      -5.048  -4.170 131.693  0.00  0.00    +0.000 A 
ATOM      2  N   UNL     1      -6.323  -3.981 131.449  0.00  0.00    +0.000 NA
ATOM      3  C   UNL     1      -6.364  -3.369 130.208  0.00  0.00    +0.000 A 
ATOM      4  C   UNL     1      -5.080  -3.205 129.711  0.00  0.00    +0.000 A 
ATOM      5  N   UNL     1      -4.258  -3.713 130.679  0.00  0.00    +0.000 N 
ATOM      6  C   UNL     1      -4.803  -2.606 128.489  0.00  0.00    +0.000 A 
ATOM      7  C   UNL     1      -5.880  -2.096 127.752  0.00  0.00    +0.000 A 
ATOM      8 CL   UNL     1      -5.340  -1.149 126.405  0.00  0.00    +0.000 Cl
ATOM      9  C   UNL     1      -7.213  -2.297 128.170  0.00  0.00    +0.000 A 
ATOM     10  C   UNL     1      -7.449  -2.925 129.425  0.00  0.00    +0.000 A 
ATOM     11  H   UNL     1      -3.252  -3.736 130.664  0.00  0.00    +0.000 HD
ENDROOT
BRANCH   1  13
ATOM     12  C   UNL     1      -5.676  -5.413 134.071  0.00  0.00    +0.000 C 
ATOM     13  S   UNL     1      -4.278  -4.873 133.068  0.00  0.00    +0.000 S 
ENDBRANCH   1  13
BRANCH   9  14
ATOM     14  O   UNL     1      -8.393  -1.935 127.529  0.00  0.00    +0.000 OA
BRANCH  14  15
ATOM     15  C   UNL     1      -8.605  -2.275 126.211  0.00  0.00    +0.000 A 
ATOM     16  C   UNL     1      -8.422  -3.595 125.781  0.00  0.00    +0.000 A 
ATOM     17  C   UNL     1      -8.423  -3.885 124.415  0.00  0.00    +0.000 A 
ATOM     18  C   UNL     1      -8.736  -2.887 123.493  0.00  0.00    +0.000 A 
ATOM     19  C   UNL     1      -9.062  -1.599 123.932  0.00  0.00    +0.000 A 
ATOM     20 CL   UNL     1      -9.516  -0.443 122.727  0.00  0.00    +0.000 Cl
ATOM     21  C   UNL     1      -8.988  -1.280 125.296  0.00  0.00    +0.000 A 
ATOM     22 CL   UNL     1      -9.307   0.328 125.861  0.00  0.00    +0.000 Cl
ENDBRANCH  14  15
ENDBRANCH   9  14
TORSDOF 3
ENDMDL
MODEL 6
REMARK VINA RESULT:      -6.6      8.741      9.925
REMARK  Name = Triclabendazole
REMARK  4 active torsions:
REMARK  status: ('A' for Active; 'I' for Inactive)
REMARK    1  A    between atoms: C_1  and  S_2
REMARK    2  A    between atoms: S_2  and  C_3
REMARK    3  A    between atoms: C_11  and  O_12
REMARK    4  A    between atoms: O_12  and  C_13
REMARK                            x       y       z     vdW  Elec       q    Type
REMARK                         _______ _______ _______ _____ _____    ______ ____
ROOT
ATOM      1  C   UNL     1      -4.959   5.923 131.829  0.00  0.00    +0.000 A 
ATOM      2  N   UNL     1      -5.897   6.829 131.682  0.00  0.00    +0.000 NA
ATOM      3  C   UNL     1      -7.077   6.112 131.590  0.00  0.00    +0.000 A 
ATOM      4  C   UNL     1      -6.823   4.753 131.695  0.00  0.00    +0.000 A 
ATOM      5  N   UNL     1      -5.465   4.656 131.835  0.00  0.00    +0.000 N 
ATOM      6  C   UNL     1      -7.812   3.780 131.624  0.00  0.00    +0.000 A 
ATOM      7  C   UNL     1      -9.126   4.202 131.380  0.00  0.00    +0.000 A 
ATOM      8 CL   UNL     1     -10.175   2.863 131.049  0.00  0.00    +0.000 Cl
ATOM      9  C   UNL     1      -9.458   5.574 131.337  0.00  0.00    +0.000 A 
ATOM     10  C   UNL     1      -8.412   6.533 131.424  0.00  0.00    +0.000 A 
ATOM     11  H   UNL     1      -4.926   3.809 131.914  0.00  0.00    +0.000 HD
ENDROOT
BRANCH   1  13
ATOM     12  C   UNL     1      -3.032   7.892 131.774  0.00  0.00    +0.000 C 
ATOM     13  S   UNL     1      -3.252   6.115 131.991  0.00  0.00    +0.000 S 
ENDBRANCH   1  13
BRANCH   9  14
ATOM     14  O   UNL     1     -10.708   6.165 131.188  0.00  0.00    +0.000 OA
BRANCH  14  15
ATOM     15  C   UNL     1     -11.029   6.839 130.031  0.00  0.00    +0.000 A 
ATOM     16  C   UNL     1     -10.335   6.578 128.842  0.00  0.00    +0.000 A 
ATOM     17  C   UNL     1     -10.513   7.414 127.738  0.00  0.00    +0.000 A 
ATOM     18  C   UNL     1     -11.475   8.423 127.777  0.00  0.00    +0.000 A 
ATOM     19  C   UNL     1     -12.273   8.592 128.915  0.00  0.00    +0.000 A 
ATOM     20 CL   UNL     1     -13.497   9.813 128.850  0.00  0.00    +0.000 Cl
ATOM     21  C   UNL     1     -12.047   7.807 130.057  0.00  0.00    +0.000 A 
ATOM     22 CL   UNL     1     -12.965   8.047 131.507  0.00  0.00    +0.000 Cl
ENDBRANCH  14  15
ENDBRANCH   9  14
TORSDOF 3
ENDMDL
MODEL 7
REMARK VINA RESULT:      -6.6      8.466      9.461
REMARK  Name = Triclabendazole
REMARK  4 active torsions:
REMARK  status: ('A' for Active; 'I' for Inactive)
REMARK    1  A    between atoms: C_1  and  S_2
REMARK    2  A    between atoms: S_2  and  C_3
REMARK    3  A    between atoms: C_11  and  O_12
REMARK    4  A    between atoms: O_12  and  C_13
REMARK                            x       y       z     vdW  Elec       q    Type
REMARK                         _______ _______ _______ _____ _____    ______ ____
ROOT
ATOM      1  C   UNL     1     -11.757   6.529 129.613  0.00  0.00    +0.000 A 
ATOM      2  N   UNL     1     -10.632   6.144 129.060  0.00  0.00    +0.000 NA
ATOM      3  C   UNL     1      -9.784   5.877 130.121  0.00  0.00    +0.000 A 
ATOM      4  C   UNL     1     -10.434   6.102 131.324  0.00  0.00    +0.000 A 
ATOM      5  N   UNL     1     -11.687   6.528 130.976  0.00  0.00    +0.000 N 
ATOM      6  C   UNL     1      -9.831   5.934 132.564  0.00  0.00    +0.000 A 
ATOM      7  C   UNL     1      -8.479   5.567 132.588  0.00  0.00    +0.000 A 
ATOM      8 CL   UNL     1      -7.819   5.668 134.188  0.00  0.00    +0.000 Cl
ATOM      9  C   UNL     1      -7.785   5.252 131.400  0.00  0.00    +0.000 A 
ATOM     10  C   UNL     1      -8.446   5.431 130.154  0.00  0.00    +0.000 A 
ATOM     11  H   UNL     1     -12.424   6.806 131.602  0.00  0.00    +0.000 HD
ENDROOT
BRANCH   1  13
ATOM     12  C   UNL     1     -12.922   8.758 128.488  0.00  0.00    +0.000 C 
ATOM     13  S   UNL     1     -13.237   7.026 128.878  0.00  0.00    +0.000 S 
ENDBRANCH   1  13
BRANCH   9  14
ATOM     14  O   UNL     1      -6.479   4.797 131.246  0.00  0.00    +0.000 OA
BRANCH  14  15
ATOM     15  C   UNL     1      -5.518   5.608 130.686  0.00  0.00    +0.000 A 
ATOM     16  C   UNL     1      -5.455   6.968 131.019  0.00  0.00    +0.000 A 
ATOM     17  C   UNL     1      -4.628   7.823 130.288  0.00  0.00    +0.000 A 
ATOM     18  C   UNL     1      -3.772   7.301 129.318  0.00  0.00    +0.000 A 
ATOM     19  C   UNL     1      -3.729   5.922 129.084  0.00  0.00    +0.000 A 
ATOM     20 CL   UNL     1      -2.581   5.351 127.922  0.00  0.00    +0.000 Cl
ATOM     21  C   UNL     1      -4.611   5.065 129.760  0.00  0.00    +0.000 A 
ATOM     22 CL   UNL     1      -4.637   3.363 129.433  0.00  0.00    +0.000 Cl
ENDBRANCH  14  15
ENDBRANCH   9  14
TORSDOF 3
ENDMDL
MODEL 8
REMARK VINA RESULT:      -6.5      4.196      7.354
REMARK  Name = Triclabendazole
REMARK  4 active torsions:
REMARK  status: ('A' for Active; 'I' for Inactive)
REMARK    1  A    between atoms: C_1  and  S_2
REMARK    2  A    between atoms: S_2  and  C_3
REMARK    3  A    between atoms: C_11  and  O_12
REMARK    4  A    between atoms: O_12  and  C_13
REMARK                            x       y       z     vdW  Elec       q    Type
REMARK                         _______ _______ _______ _____ _____    ______ ____
ROOT
ATOM      1  C   UNL     1      -7.548   4.023 120.286  0.00  0.00    +0.000 A 
ATOM      2  N   UNL     1      -8.575   3.481 120.897  0.00  0.00    +0.000 NA
ATOM      3  C   UNL     1      -8.106   3.145 122.155  0.00  0.00    +0.000 A 
ATOM      4  C   UNL     1      -6.774   3.507 122.285  0.00  0.00    +0.000 A 
ATOM      5  N   UNL     1      -6.437   4.055 121.077  0.00  0.00    +0.000 N 
ATOM      6  C   UNL     1      -6.027   3.281 123.433  0.00  0.00    +0.000 A 
ATOM      7  C   UNL     1      -6.647   2.603 124.492  0.00  0.00    +0.000 A 
ATOM      8 CL   UNL     1      -5.507   2.165 125.723  0.00  0.00    +0.000 Cl
ATOM      9  C   UNL     1      -8.019   2.274 124.448  0.00  0.00    +0.000 A 
ATOM     10  C   UNL     1      -8.746   2.534 123.254  0.00  0.00    +0.000 A 
ATOM     11  H   UNL     1      -5.534   4.406 120.807  0.00  0.00    +0.000 HD
ENDROOT
BRANCH   1  13
ATOM     12  C   UNL     1      -5.889   5.605 118.756  0.00  0.00    +0.000 C 
ATOM     13  S   UNL     1      -7.421   4.655 118.685  0.00  0.00    +0.000 S 
ENDBRANCH   1  13
BRANCH   9  14
ATOM     14  O   UNL     1      -8.807   1.682 125.429  0.00  0.00    +0.000 OA
BRANCH  14  15
ATOM     15  C   UNL     1      -8.604   0.368 125.790  0.00  0.00    +0.000 A 
ATOM     16  C   UNL     1      -8.819  -0.662 124.865  0.00  0.00    +0.000 A 
ATOM     17  C   UNL     1      -8.826  -1.990 125.296  0.00  0.00    +0.000 A 
ATOM     18  C   UNL     1      -8.491  -2.295 126.615  0.00  0.00    +0.000 A 
ATOM     19  C   UNL     1      -8.135  -1.275 127.505  0.00  0.00    +0.000 A 
ATOM     20 CL   UNL     1      -7.655  -1.747 129.099  0.00  0.00    +0.000 Cl
ATOM     21  C   UNL     1      -8.199   0.067 127.101  0.00  0.00    +0.000 A 
ATOM     22 CL   UNL     1      -7.842   1.355 128.204  0.00  0.00    +0.000 Cl
ENDBRANCH  14  15
ENDBRANCH   9  14
TORSDOF 3
ENDMDL
MODEL 9
REMARK VINA RESULT:      -6.5      7.456      8.625
REMARK  Name = Triclabendazole
REMARK  4 active torsions:
REMARK  status: ('A' for Active; 'I' for Inactive)
REMARK    1  A    between atoms: C_1  and  S_2
REMARK    2  A    between atoms: S_2  and  C_3
REMARK    3  A    between atoms: C_11  and  O_12
REMARK    4  A    between atoms: O_12  and  C_13
REMARK                            x       y       z     vdW  Elec       q    Type
REMARK                         _______ _______ _______ _____ _____    ______ ____
ROOT
ATOM      1  C   UNL     1      -7.111   0.941 131.612  0.00  0.00    +0.000 A 
ATOM      2  N   UNL     1      -8.158   1.174 130.857  0.00  0.00    +0.000 NA
ATOM      3  C   UNL     1      -8.173   2.547 130.682  0.00  0.00    +0.000 A 
ATOM      4  C   UNL     1      -7.103   3.129 131.344  0.00  0.00    +0.000 A 
ATOM      5  N   UNL     1      -6.446   2.087 131.938  0.00  0.00    +0.000 N 
ATOM      6  C   UNL     1      -6.865   4.497 131.362  0.00  0.00    +0.000 A 
ATOM      7  C   UNL     1      -7.790   5.329 130.718  0.00  0.00    +0.000 A 
ATOM      8 CL   UNL     1      -7.496   7.002 131.068  0.00  0.00    +0.000 Cl
ATOM      9  C   UNL     1      -8.858   4.793 129.966  0.00  0.00    +0.000 A 
ATOM     10  C   UNL     1      -9.057   3.385 129.969  0.00  0.00    +0.000 A 
ATOM     11  H   UNL     1      -5.630   2.145 132.524  0.00  0.00    +0.000 HD
ENDROOT
BRANCH   1  13
ATOM     12  C   UNL     1      -4.722  -0.377 132.002  0.00  0.00    +0.000 C 
ATOM     13  S   UNL     1      -6.503  -0.552 132.228  0.00  0.00    +0.000 S 
ENDBRANCH   1  13
BRANCH   9  14
ATOM     14  O   UNL     1      -9.811   5.461 129.205  0.00  0.00    +0.000 OA
BRANCH  14  15
ATOM     15  C   UNL     1     -10.726   6.297 129.806  0.00  0.00    +0.000 A 
ATOM     16  C   UNL     1     -11.168   6.043 131.111  0.00  0.00    +0.000 A 
ATOM     17  C   UNL     1     -12.249   6.759 131.628  0.00  0.00    +0.000 A 
ATOM     18  C   UNL     1     -12.799   7.811 130.897  0.00  0.00    +0.000 A 
ATOM     19  C   UNL     1     -12.264   8.160 129.652  0.00  0.00    +0.000 A 
ATOM     20 CL   UNL     1     -12.954   9.529 128.848  0.00  0.00    +0.000 Cl
ATOM     21  C   UNL     1     -11.228   7.397 129.092  0.00  0.00    +0.000 A 
ATOM     22 CL   UNL     1     -10.599   7.756 127.517  0.00  0.00    +0.000 Cl
ENDBRANCH  14  15
ENDBRANCH   9  14
TORSDOF 3
ENDMDL
