MODEL 1
REMARK VINA RESULT:      -7.2      0.000      0.000
REMARK  Name = Trichlormethiazide
REMARK  3 active torsions:
REMARK  status: ('A' for Active; 'I' for Inactive)
REMARK    1  A    between atoms: N_1  and  S_2
REMARK    2  A    between atoms: S_2  and  C_5
REMARK    3  A    between atoms: C_11  and  C_18
REMARK                            x       y       z     vdW  Elec       q    Type
REMARK                         _______ _______ _______ _____ _____    ______ ____
ROOT
ATOM      1  C   UNL     1      -7.372   3.284 125.350  0.00  0.00    +0.000 A 
ATOM      2  C   UNL     1      -6.248   2.466 125.489  0.00  0.00    +0.000 A 
ATOM      3 CL   UNL     1      -4.746   2.938 126.189  0.00  0.00    +0.000 Cl
ATOM      4  C   UNL     1      -6.302   1.132 125.047  0.00  0.00    +0.000 A 
ATOM      5  C   UNL     1      -7.434   0.604 124.417  0.00  0.00    +0.000 A 
ATOM      6  N   UNL     1      -7.503  -0.768 124.181  0.00  0.00    +0.000 N 
ATOM      7  C   UNL     1      -8.405  -1.246 123.137  0.00  0.00    +0.000 C 
ATOM      8  N   UNL     1      -9.728  -0.822 123.568  0.00  0.00    +0.000 NA
ATOM      9  S   UNL     1      -9.951   0.829 123.415  0.00  0.00    +0.000 S 
ATOM     10  O   UNL     1      -9.878   1.167 122.018  0.00  0.00    +0.000 OA
ATOM     11  O   UNL     1     -11.089   1.156 124.249  0.00  0.00    +0.000 OA
ATOM     12  C   UNL     1      -8.506   1.471 124.199  0.00  0.00    +0.000 A 
ATOM     13  C   UNL     1      -8.497   2.795 124.660  0.00  0.00    +0.000 A 
ATOM     14  H   UNL     1      -6.620  -1.273 124.241  0.00  0.00    +0.000 HD
ATOM     15  H   UNL     1      -9.992  -1.136 124.499  0.00  0.00    +0.000 HD
ENDROOT
BRANCH   1  16
ATOM     16  S   UNL     1      -7.483   4.915 126.038  0.00  0.00    +0.000 S 
ATOM     17  O   UNL     1      -6.864   4.898 127.341  0.00  0.00    +0.000 OA
ATOM     18  O   UNL     1      -8.783   5.502 125.829  0.00  0.00    +0.000 OA
BRANCH  16  19
ATOM     19  N   UNL     1      -6.457   5.795 125.023  0.00  0.00    +0.000 NA
ATOM     20  H   UNL     1      -5.871   6.395 125.613  0.00  0.00    +0.000 HD
ATOM     21  H   UNL     1      -6.980   6.371 124.364  0.00  0.00    +0.000 HD
ENDBRANCH  16  19
ENDBRANCH   1  16
BRANCH   7  22
ATOM     22  C   UNL     1      -8.332  -2.798 123.016  0.00  0.00    +0.000 C 
ATOM     23 CL   UNL     1      -7.165  -3.513 124.155  0.00  0.00    +0.000 Cl
ATOM     24 CL   UNL     1      -9.946  -3.532 123.281  0.00  0.00    +0.000 Cl
ENDBRANCH   7  22
TORSDOF 3
ENDMDL
MODEL 2
REMARK VINA RESULT:      -7.1      8.352     10.003
REMARK  Name = Trichlormethiazide
REMARK  3 active torsions:
REMARK  status: ('A' for Active; 'I' for Inactive)
REMARK    1  A    between atoms: N_1  and  S_2
REMARK    2  A    between atoms: S_2  and  C_5
REMARK    3  A    between atoms: C_11  and  C_18
REMARK                            x       y       z     vdW  Elec       q    Type
REMARK                         _______ _______ _______ _____ _____    ______ ____
ROOT
ATOM      1  C   UNL     1     -10.750   6.932 129.728  0.00  0.00    +0.000 A 
ATOM      2  C   UNL     1     -11.582   6.906 130.850  0.00  0.00    +0.000 A 
ATOM      3 CL   UNL     1     -13.243   7.364 130.876  0.00  0.00    +0.000 Cl
ATOM      4  C   UNL     1     -11.070   6.465 132.083  0.00  0.00    +0.000 A 
ATOM      5  C   UNL     1      -9.730   6.098 132.241  0.00  0.00    +0.000 A 
ATOM      6  N   UNL     1      -9.328   5.484 133.426  0.00  0.00    +0.000 N 
ATOM      7  C   UNL     1      -7.914   5.541 133.790  0.00  0.00    +0.000 C 
ATOM      8  N   UNL     1      -7.225   4.860 132.705  0.00  0.00    +0.000 NA
ATOM      9  S   UNL     1      -7.202   5.765 131.298  0.00  0.00    +0.000 S 
ATOM     10  O   UNL     1      -6.441   6.963 131.543  0.00  0.00    +0.000 OA
ATOM     11  O   UNL     1      -6.890   4.834 130.232  0.00  0.00    +0.000 OA
ATOM     12  C   UNL     1      -8.896   6.230 131.129  0.00  0.00    +0.000 A 
ATOM     13  C   UNL     1      -9.383   6.632 129.878  0.00  0.00    +0.000 A 
ATOM     14  H   UNL     1      -9.972   5.573 134.212  0.00  0.00    +0.000 HD
ATOM     15  H   UNL     1      -7.553   3.915 132.520  0.00  0.00    +0.000 HD
ENDROOT
BRANCH   1  16
ATOM     16  S   UNL     1     -11.332   7.288 128.090  0.00  0.00    +0.000 S 
ATOM     17  O   UNL     1     -11.338   8.720 127.915  0.00  0.00    +0.000 OA
ATOM     18  O   UNL     1     -12.474   6.481 127.736  0.00  0.00    +0.000 OA
BRANCH  16  19
ATOM     19  N   UNL     1     -10.077   6.684 127.132  0.00  0.00    +0.000 NA
ATOM     20  H   UNL     1      -9.200   6.808 127.648  0.00  0.00    +0.000 HD
ATOM     21  H   UNL     1     -10.018   7.170 126.237  0.00  0.00    +0.000 HD
ENDBRANCH  16  19
ENDBRANCH   1  16
BRANCH   7  22
ATOM     22  C   UNL     1      -7.668   4.813 135.146  0.00  0.00    +0.000 C 
ATOM     23 CL   UNL     1      -6.159   3.867 135.145  0.00  0.00    +0.000 Cl
ATOM     24 CL   UNL     1      -7.631   5.988 136.499  0.00  0.00    +0.000 Cl
ENDBRANCH   7  22
TORSDOF 3
ENDMDL
MODEL 3
REMARK VINA RESULT:      -6.9      8.554      9.396
REMARK  Name = Trichlormethiazide
REMARK  3 active torsions:
REMARK  status: ('A' for Active; 'I' for Inactive)
REMARK    1  A    between atoms: N_1  and  S_2
REMARK    2  A    between atoms: S_2  and  C_5
REMARK    3  A    between atoms: C_11  and  C_18
REMARK                            x       y       z     vdW  Elec       q    Type
REMARK                         _______ _______ _______ _____ _____    ______ ____
ROOT
ATOM      1  C   UNL     1      -7.797   4.816 132.431  0.00  0.00    +0.000 A 
ATOM      2  C   UNL     1      -7.070   5.925 131.992  0.00  0.00    +0.000 A 
ATOM      3 CL   UNL     1      -5.451   6.304 132.444  0.00  0.00    +0.000 Cl
ATOM      4  C   UNL     1      -7.662   6.832 131.095  0.00  0.00    +0.000 A 
ATOM      5  C   UNL     1      -8.985   6.691 130.662  0.00  0.00    +0.000 A 
ATOM      6  N   UNL     1      -9.451   7.500 129.627  0.00  0.00    +0.000 N 
ATOM      7  C   UNL     1     -10.893   7.703 129.504  0.00  0.00    +0.000 C 
ATOM      8  N   UNL     1     -11.436   6.372 129.281  0.00  0.00    +0.000 NA
ATOM      9  S   UNL     1     -11.391   5.426 130.660  0.00  0.00    +0.000 S 
ATOM     10  O   UNL     1     -12.246   6.027 131.649  0.00  0.00    +0.000 OA
ATOM     11  O   UNL     1     -11.544   4.058 130.208  0.00  0.00    +0.000 OA
ATOM     12  C   UNL     1      -9.722   5.632 131.194  0.00  0.00    +0.000 A 
ATOM     13  C   UNL     1      -9.150   4.691 132.063  0.00  0.00    +0.000 A 
ATOM     14  H   UNL     1      -8.888   8.324 129.420  0.00  0.00    +0.000 HD
ATOM     15  H   UNL     1     -11.033   5.876 128.490  0.00  0.00    +0.000 HD
ENDROOT
BRANCH   1  16
ATOM     16  S   UNL     1      -7.094   3.513 133.408  0.00  0.00    +0.000 S 
ATOM     17  O   UNL     1      -7.009   3.970 134.774  0.00  0.00    +0.000 OA
ATOM     18  O   UNL     1      -5.972   2.890 132.750  0.00  0.00    +0.000 OA
BRANCH  16  19
ATOM     19  N   UNL     1      -8.312   2.342 133.361  0.00  0.00    +0.000 NA
ATOM     20  H   UNL     1      -8.618   2.245 132.387  0.00  0.00    +0.000 HD
ATOM     21  H   UNL     1      -9.107   2.600 133.945  0.00  0.00    +0.000 HD
ENDBRANCH  16  19
ENDBRANCH   1  16
BRANCH   7  22
ATOM     22  C   UNL     1     -11.213   8.641 128.301  0.00  0.00    +0.000 C 
ATOM     23 CL   UNL     1     -10.893   7.866 126.730  0.00  0.00    +0.000 Cl
ATOM     24 CL   UNL     1     -12.920   9.185 128.359  0.00  0.00    +0.000 Cl
ENDBRANCH   7  22
TORSDOF 3
ENDMDL
MODEL 4
REMARK VINA RESULT:      -6.9      3.495      5.737
REMARK  Name = Trichlormethiazide
REMARK  3 active torsions:
REMARK  status: ('A' for Active; 'I' for Inactive)
REMARK    1  A    between atoms: N_1  and  S_2
REMARK    2  A    between atoms: S_2  and  C_5
REMARK    3  A    between atoms: C_11  and  C_18
REMARK                            x       y       z     vdW  Elec       q    Type
REMARK                         _______ _______ _______ _____ _____    ______ ____
ROOT
ATOM      1  C   UNL     1      -8.081  -1.843 124.952  0.00  0.00    +0.000 A 
ATOM      2  C   UNL     1      -6.810  -1.813 124.374  0.00  0.00    +0.000 A 
ATOM      3 CL   UNL     1      -5.630  -3.065 124.484  0.00  0.00    +0.000 Cl
ATOM      4  C   UNL     1      -6.417  -0.694 123.619  0.00  0.00    +0.000 A 
ATOM      5  C   UNL     1      -7.242   0.426 123.468  0.00  0.00    +0.000 A 
ATOM      6  N   UNL     1      -6.886   1.414 122.551  0.00  0.00    +0.000 N 
ATOM      7  C   UNL     1      -7.441   2.753 122.727  0.00  0.00    +0.000 C 
ATOM      8  N   UNL     1      -8.881   2.574 122.620  0.00  0.00    +0.000 NA
ATOM      9  S   UNL     1      -9.529   1.810 123.959  0.00  0.00    +0.000 S 
ATOM     10  O   UNL     1      -9.334   2.660 125.104  0.00  0.00    +0.000 OA
ATOM     11  O   UNL     1     -10.831   1.324 123.548  0.00  0.00    +0.000 OA
ATOM     12  C   UNL     1      -8.465   0.414 124.139  0.00  0.00    +0.000 A 
ATOM     13  C   UNL     1      -8.900  -0.701 124.871  0.00  0.00    +0.000 A 
ATOM     14  H   UNL     1      -5.917   1.396 122.233  0.00  0.00    +0.000 HD
ATOM     15  H   UNL     1      -9.190   2.123 121.763  0.00  0.00    +0.000 HD
ENDROOT
BRANCH   1  16
ATOM     16  S   UNL     1      -8.751  -3.271 125.763  0.00  0.00    +0.000 S 
ATOM     17  O   UNL     1      -8.215  -4.446 125.121  0.00  0.00    +0.000 OA
ATOM     18  O   UNL     1     -10.163  -3.132 126.022  0.00  0.00    +0.000 OA
BRANCH  16  19
ATOM     19  N   UNL     1      -8.033  -3.179 127.290  0.00  0.00    +0.000 NA
ATOM     20  H   UNL     1      -7.024  -3.319 127.171  0.00  0.00    +0.000 HD
ATOM     21  H   UNL     1      -8.403  -3.885 127.925  0.00  0.00    +0.000 HD
ENDBRANCH  16  19
ENDBRANCH   1  16
BRANCH   7  22
ATOM     22  C   UNL     1      -6.918   3.715 121.617  0.00  0.00    +0.000 C 
ATOM     23 CL   UNL     1      -5.415   3.128 120.864  0.00  0.00    +0.000 Cl
ATOM     24 CL   UNL     1      -8.163   3.958 120.351  0.00  0.00    +0.000 Cl
ENDBRANCH   7  22
TORSDOF 3
ENDMDL
MODEL 5
REMARK VINA RESULT:      -6.8      7.464      8.850
REMARK  Name = Trichlormethiazide
REMARK  3 active torsions:
REMARK  status: ('A' for Active; 'I' for Inactive)
REMARK    1  A    between atoms: N_1  and  S_2
REMARK    2  A    between atoms: S_2  and  C_5
REMARK    3  A    between atoms: C_11  and  C_18
REMARK                            x       y       z     vdW  Elec       q    Type
REMARK                         _______ _______ _______ _____ _____    ______ ____
ROOT
ATOM      1  C   UNL     1     -11.545   6.826 129.422  0.00  0.00    +0.000 A 
ATOM      2  C   UNL     1     -11.815   6.995 130.782  0.00  0.00    +0.000 A 
ATOM      3 CL   UNL     1     -13.103   7.932 131.440  0.00  0.00    +0.000 Cl
ATOM      4  C   UNL     1     -11.001   6.357 131.736  0.00  0.00    +0.000 A 
ATOM      5  C   UNL     1      -9.888   5.593 131.368  0.00  0.00    +0.000 A 
ATOM      6  N   UNL     1      -9.241   4.826 132.336  0.00  0.00    +0.000 N 
ATOM      7  C   UNL     1      -7.855   4.434 132.094  0.00  0.00    +0.000 C 
ATOM      8  N   UNL     1      -7.902   3.634 130.880  0.00  0.00    +0.000 NA
ATOM      9  S   UNL     1      -8.187   4.561 129.516  0.00  0.00    +0.000 S 
ATOM     10  O   UNL     1      -7.075   5.457 129.340  0.00  0.00    +0.000 OA
ATOM     11  O   UNL     1      -8.628   3.636 128.492  0.00  0.00    +0.000 OA
ATOM     12  C   UNL     1      -9.581   5.524 130.009  0.00  0.00    +0.000 A 
ATOM     13  C   UNL     1     -10.392   6.119 129.032  0.00  0.00    +0.000 A 
ATOM     14  H   UNL     1      -9.450   5.065 133.305  0.00  0.00    +0.000 HD
ATOM     15  H   UNL     1      -8.541   2.843 130.917  0.00  0.00    +0.000 HD
ENDROOT
BRANCH   1  16
ATOM     16  S   UNL     1     -12.608   7.425 128.136  0.00  0.00    +0.000 S 
ATOM     17  O   UNL     1     -12.509   8.864 128.102  0.00  0.00    +0.000 OA
ATOM     18  O   UNL     1     -13.887   6.759 128.137  0.00  0.00    +0.000 OA
BRANCH  16  19
ATOM     19  N   UNL     1     -11.837   6.851 126.745  0.00  0.00    +0.000 NA
ATOM     20  H   UNL     1     -11.777   5.831 126.818  0.00  0.00    +0.000 HD
ATOM     21  H   UNL     1     -10.900   7.242 126.645  0.00  0.00    +0.000 HD
ENDBRANCH  16  19
ENDBRANCH   1  16
BRANCH   7  22
ATOM     22  C   UNL     1      -7.305   3.596 133.288  0.00  0.00    +0.000 C 
ATOM     23 CL   UNL     1      -7.834   4.233 134.865  0.00  0.00    +0.000 Cl
ATOM     24 CL   UNL     1      -7.804   1.881 133.143  0.00  0.00    +0.000 Cl
ENDBRANCH   7  22
TORSDOF 3
ENDMDL
MODEL 6
REMARK VINA RESULT:      -6.4      2.514      6.209
REMARK  Name = Trichlormethiazide
REMARK  3 active torsions:
REMARK  status: ('A' for Active; 'I' for Inactive)
REMARK    1  A    between atoms: N_1  and  S_2
REMARK    2  A    between atoms: S_2  and  C_5
REMARK    3  A    between atoms: C_11  and  C_18
REMARK                            x       y       z     vdW  Elec       q    Type
REMARK                         _______ _______ _______ _____ _____    ______ ____
ROOT
ATOM      1  C   UNL     1      -8.440   1.350 124.578  0.00  0.00    +0.000 A 
ATOM      2  C   UNL     1      -7.963   0.489 125.568  0.00  0.00    +0.000 A 
ATOM      3 CL   UNL     1      -8.684  -1.007 126.028  0.00  0.00    +0.000 Cl
ATOM      4  C   UNL     1      -6.790   0.820 126.270  0.00  0.00    +0.000 A 
ATOM      5  C   UNL     1      -6.106   2.020 126.046  0.00  0.00    +0.000 A 
ATOM      6  N   UNL     1      -4.850   2.204 126.622  0.00  0.00    +0.000 N 
ATOM      7  C   UNL     1      -4.364   3.570 126.800  0.00  0.00    +0.000 C 
ATOM      8  N   UNL     1      -4.298   4.118 125.454  0.00  0.00    +0.000 NA
ATOM      9  S   UNL     1      -5.813   4.427 124.816  0.00  0.00    +0.000 S 
ATOM     10  O   UNL     1      -6.440   5.448 125.614  0.00  0.00    +0.000 OA
ATOM     11  O   UNL     1      -5.625   4.545 123.384  0.00  0.00    +0.000 OA
ATOM     12  C   UNL     1      -6.660   2.909 125.124  0.00  0.00    +0.000 A 
ATOM     13  C   UNL     1      -7.808   2.592 124.383  0.00  0.00    +0.000 A 
ATOM     14  H   UNL     1      -4.613   1.568 127.383  0.00  0.00    +0.000 HD
ATOM     15  H   UNL     1      -3.736   3.575 124.802  0.00  0.00    +0.000 HD
ENDROOT
BRANCH   1  16
ATOM     16  S   UNL     1      -9.794   0.948 123.505  0.00  0.00    +0.000 S 
ATOM     17  O   UNL     1     -11.021   1.313 124.171  0.00  0.00    +0.000 OA
ATOM     18  O   UNL     1      -9.629  -0.346 122.888  0.00  0.00    +0.000 OA
BRANCH  16  19
ATOM     19  N   UNL     1      -9.580   2.048 122.240  0.00  0.00    +0.000 NA
ATOM     20  H   UNL     1      -8.578   2.087 122.024  0.00  0.00    +0.000 HD
ATOM     21  H   UNL     1      -9.913   2.979 122.488  0.00  0.00    +0.000 HD
ENDBRANCH  16  19
ENDBRANCH   1  16
BRANCH   7  22
ATOM     22  C   UNL     1      -2.955   3.569 127.467  0.00  0.00    +0.000 C 
ATOM     23 CL   UNL     1      -1.689   2.946 126.381  0.00  0.00    +0.000 Cl
ATOM     24 CL   UNL     1      -2.511   5.217 128.015  0.00  0.00    +0.000 Cl
ENDBRANCH   7  22
TORSDOF 3
ENDMDL
MODEL 7
REMARK VINA RESULT:      -6.4      2.544      6.467
REMARK  Name = Trichlormethiazide
REMARK  3 active torsions:
REMARK  status: ('A' for Active; 'I' for Inactive)
REMARK    1  A    between atoms: N_1  and  S_2
REMARK    2  A    between atoms: S_2  and  C_5
REMARK    3  A    between atoms: C_11  and  C_18
REMARK                            x       y       z     vdW  Elec       q    Type
REMARK                         _______ _______ _______ _____ _____    ______ ____
ROOT
ATOM      1  C   UNL     1      -7.385  -0.330 124.637  0.00  0.00    +0.000 A 
ATOM      2  C   UNL     1      -6.343  -1.085 125.179  0.00  0.00    +0.000 A 
ATOM      3 CL   UNL     1      -6.214  -2.803 125.120  0.00  0.00    +0.000 Cl
ATOM      4  C   UNL     1      -5.278  -0.434 125.826  0.00  0.00    +0.000 A 
ATOM      5  C   UNL     1      -5.251   0.955 125.996  0.00  0.00    +0.000 A 
ATOM      6  N   UNL     1      -4.086   1.560 126.465  0.00  0.00    +0.000 N 
ATOM      7  C   UNL     1      -4.192   2.877 127.088  0.00  0.00    +0.000 C 
ATOM      8  N   UNL     1      -4.727   3.738 126.044  0.00  0.00    +0.000 NA
ATOM      9  S   UNL     1      -6.342   3.430 125.730  0.00  0.00    +0.000 S 
ATOM     10  O   UNL     1      -7.100   3.746 126.912  0.00  0.00    +0.000 OA
ATOM     11  O   UNL     1      -6.614   4.020 124.435  0.00  0.00    +0.000 OA
ATOM     12  C   UNL     1      -6.353   1.677 125.536  0.00  0.00    +0.000 A 
ATOM     13  C   UNL     1      -7.413   1.061 124.855  0.00  0.00    +0.000 A 
ATOM     14  H   UNL     1      -3.408   0.937 126.905  0.00  0.00    +0.000 HD
ATOM     15  H   UNL     1      -4.188   3.745 125.182  0.00  0.00    +0.000 HD
ENDROOT
BRANCH   1  16
ATOM     16  S   UNL     1      -8.677  -1.024 123.640  0.00  0.00    +0.000 S 
ATOM     17  O   UNL     1      -8.067  -1.817 122.600  0.00  0.00    +0.000 OA
ATOM     18  O   UNL     1      -9.709  -0.061 123.345  0.00  0.00    +0.000 OA
BRANCH  16  19
ATOM     19  N   UNL     1      -9.407  -2.107 124.714  0.00  0.00    +0.000 NA
ATOM     20  H   UNL     1     -10.059  -1.576 125.300  0.00  0.00    +0.000 HD
ATOM     21  H   UNL     1      -8.719  -2.574 125.304  0.00  0.00    +0.000 HD
ENDBRANCH  16  19
ENDBRANCH   1  16
BRANCH   7  22
ATOM     22  C   UNL     1      -2.793   3.378 127.555  0.00  0.00    +0.000 C 
ATOM     23 CL   UNL     1      -1.493   2.912 126.430  0.00  0.00    +0.000 Cl
ATOM     24 CL   UNL     1      -2.791   5.158 127.760  0.00  0.00    +0.000 Cl
ENDBRANCH   7  22
TORSDOF 3
ENDMDL
MODEL 8
REMARK VINA RESULT:      -6.2      3.381      4.731
REMARK  Name = Trichlormethiazide
REMARK  3 active torsions:
REMARK  status: ('A' for Active; 'I' for Inactive)
REMARK    1  A    between atoms: N_1  and  S_2
REMARK    2  A    between atoms: S_2  and  C_5
REMARK    3  A    between atoms: C_11  and  C_18
REMARK                            x       y       z     vdW  Elec       q    Type
REMARK                         _______ _______ _______ _____ _____    ______ ____
ROOT
ATOM      1  C   UNL     1      -3.969   4.656 127.647  0.00  0.00    +0.000 A 
ATOM      2  C   UNL     1      -3.392   3.594 126.947  0.00  0.00    +0.000 A 
ATOM      3 CL   UNL     1      -1.722   3.167 126.972  0.00  0.00    +0.000 Cl
ATOM      4  C   UNL     1      -4.203   2.766 126.150  0.00  0.00    +0.000 A 
ATOM      5  C   UNL     1      -5.572   3.002 125.990  0.00  0.00    +0.000 A 
ATOM      6  N   UNL     1      -6.358   2.041 125.355  0.00  0.00    +0.000 N 
ATOM      7  C   UNL     1      -7.626   2.463 124.766  0.00  0.00    +0.000 C 
ATOM      8  N   UNL     1      -8.402   2.973 125.886  0.00  0.00    +0.000 NA
ATOM      9  S   UNL     1      -7.831   4.446 126.439  0.00  0.00    +0.000 S 
ATOM     10  O   UNL     1      -7.992   5.417 125.389  0.00  0.00    +0.000 OA
ATOM     11  O   UNL     1      -8.390   4.615 127.766  0.00  0.00    +0.000 OA
ATOM     12  C   UNL     1      -6.105   4.129 126.618  0.00  0.00    +0.000 A 
ATOM     13  C   UNL     1      -5.330   4.953 127.447  0.00  0.00    +0.000 A 
ATOM     14  H   UNL     1      -5.851   1.342 124.812  0.00  0.00    +0.000 HD
ATOM     15  H   UNL     1      -8.517   2.319 126.657  0.00  0.00    +0.000 HD
ENDROOT
BRANCH   1  16
ATOM     16  S   UNL     1      -3.083   5.645 128.823  0.00  0.00    +0.000 S 
ATOM     17  O   UNL     1      -2.112   6.436 128.107  0.00  0.00    +0.000 OA
ATOM     18  O   UNL     1      -2.721   4.892 129.999  0.00  0.00    +0.000 OA
BRANCH  16  19
ATOM     19  N   UNL     1      -4.280   6.711 129.359  0.00  0.00    +0.000 NA
ATOM     20  H   UNL     1      -4.962   6.825 128.602  0.00  0.00    +0.000 HD
ATOM     21  H   UNL     1      -3.892   7.621 129.608  0.00  0.00    +0.000 HD
ENDBRANCH  16  19
ENDBRANCH   1  16
BRANCH   7  22
ATOM     22  C   UNL     1      -8.349   1.256 124.096  0.00  0.00    +0.000 C 
ATOM     23 CL   UNL     1      -9.516   1.769 122.852  0.00  0.00    +0.000 Cl
ATOM     24 CL   UNL     1      -7.160   0.130 123.368  0.00  0.00    +0.000 Cl
ENDBRANCH   7  22
TORSDOF 3
ENDMDL
MODEL 9
REMARK VINA RESULT:      -6.2      9.112     10.582
REMARK  Name = Trichlormethiazide
REMARK  3 active torsions:
REMARK  status: ('A' for Active; 'I' for Inactive)
REMARK    1  A    between atoms: N_1  and  S_2
REMARK    2  A    between atoms: S_2  and  C_5
REMARK    3  A    between atoms: C_11  and  C_18
REMARK                            x       y       z     vdW  Elec       q    Type
REMARK                         _______ _______ _______ _____ _____    ______ ____
ROOT
ATOM      1  C   UNL     1      -7.412   6.284 131.781  0.00  0.00    +0.000 A 
ATOM      2  C   UNL     1      -6.894   5.803 132.985  0.00  0.00    +0.000 A 
ATOM      3 CL   UNL     1      -7.821   5.175 134.296  0.00  0.00    +0.000 Cl
ATOM      4  C   UNL     1      -5.502   5.797 133.189  0.00  0.00    +0.000 A 
ATOM      5  C   UNL     1      -4.612   6.311 132.240  0.00  0.00    +0.000 A 
ATOM      6  N   UNL     1      -3.244   6.100 132.406  0.00  0.00    +0.000 N 
ATOM      7  C   UNL     1      -2.317   7.004 131.730  0.00  0.00    +0.000 C 
ATOM      8  N   UNL     1      -2.603   6.837 130.314  0.00  0.00    +0.000 NA
ATOM      9  S   UNL     1      -4.062   7.528 129.872  0.00  0.00    +0.000 S 
ATOM     10  O   UNL     1      -3.969   8.950 130.078  0.00  0.00    +0.000 OA
ATOM     11  O   UNL     1      -4.413   6.935 128.597  0.00  0.00    +0.000 OA
ATOM     12  C   UNL     1      -5.162   6.879 131.089  0.00  0.00    +0.000 A 
ATOM     13  C   UNL     1      -6.542   6.868 130.842  0.00  0.00    +0.000 A 
ATOM     14  H   UNL     1      -2.950   5.812 133.339  0.00  0.00    +0.000 HD
ATOM     15  H   UNL     1      -2.543   5.878 129.979  0.00  0.00    +0.000 HD
ENDROOT
BRANCH   1  16
ATOM     16  S   UNL     1      -9.127   6.166 131.341  0.00  0.00    +0.000 S 
ATOM     17  O   UNL     1      -9.911   6.661 132.446  0.00  0.00    +0.000 OA
ATOM     18  O   UNL     1      -9.435   4.911 130.701  0.00  0.00    +0.000 OA
BRANCH  16  19
ATOM     19  N   UNL     1      -9.252   7.310 130.103  0.00  0.00    +0.000 NA
ATOM     20  H   UNL     1      -9.811   6.898 129.349  0.00  0.00    +0.000 HD
ATOM     21  H   UNL     1      -8.336   7.578 129.742  0.00  0.00    +0.000 HD
ENDBRANCH  16  19
ENDBRANCH   1  16
BRANCH   7  22
ATOM     22  C   UNL     1      -0.842   6.615 132.047  0.00  0.00    +0.000 C 
ATOM     23 CL   UNL     1      -0.102   7.688 133.261  0.00  0.00    +0.000 Cl
ATOM     24 CL   UNL     1      -0.741   4.917 132.613  0.00  0.00    +0.000 Cl
ENDBRANCH   7  22
TORSDOF 3
ENDMDL
