MODEL 1
REMARK VINA RESULT:      -6.8      0.000      0.000
REMARK  Name = Triclosan
REMARK  3 active torsions:
REMARK  status: ('A' for Active; 'I' for Inactive)
REMARK    1  A    between atoms: O_1  and  C_2
REMARK    2  A    between atoms: C_8  and  O_9
REMARK    3  A    between atoms: O_9  and  C_10
REMARK                            x       y       z     vdW  Elec       q    Type
REMARK                         _______ _______ _______ _____ _____    ______ ____
ROOT
ATOM      1  C   UNL     1     -10.064   4.361 131.071  0.00  0.00    +0.000 A 
ATOM      2  C   UNL     1      -8.973   4.304 131.938  0.00  0.00    +0.000 A 
ATOM      3  C   UNL     1      -8.048   5.344 131.943  0.00  0.00    +0.000 A 
ATOM      4 CL   UNL     1      -6.663   5.229 132.956  0.00  0.00    +0.000 Cl
ATOM      5  C   UNL     1      -8.222   6.447 131.114  0.00  0.00    +0.000 A 
ATOM      6  C   UNL     1      -9.358   6.534 130.298  0.00  0.00    +0.000 A 
ATOM      7  C   UNL     1     -10.305   5.496 130.282  0.00  0.00    +0.000 A 
ENDROOT
BRANCH   1   8
ATOM      8  O   UNL     1     -10.865   3.253 131.004  0.00  0.00    +0.000 OA
ATOM      9  H   UNL     1     -11.215   3.056 131.886  0.00  0.00    +0.000 HD
ENDBRANCH   1   8
BRANCH   7  10
ATOM     10  O   UNL     1     -11.407   5.732 129.473  0.00  0.00    +0.000 OA
BRANCH  10  11
ATOM     11  C   UNL     1     -12.006   6.972 129.498  0.00  0.00    +0.000 A 
ATOM     12  C   UNL     1     -12.131   7.811 128.377  0.00  0.00    +0.000 A 
ATOM     13 CL   UNL     1     -11.654   7.321 126.787  0.00  0.00    +0.000 Cl
ATOM     14  C   UNL     1     -12.610   9.114 128.532  0.00  0.00    +0.000 A 
ATOM     15  C   UNL     1     -13.060   9.540 129.781  0.00  0.00    +0.000 A 
ATOM     16 CL   UNL     1     -13.662  11.142 129.965  0.00  0.00    +0.000 Cl
ATOM     17  C   UNL     1     -13.034   8.680 130.877  0.00  0.00    +0.000 A 
ATOM     18  C   UNL     1     -12.503   7.395 130.738  0.00  0.00    +0.000 A 
ENDBRANCH  10  11
ENDBRANCH   7  10
TORSDOF 3
ENDMDL
MODEL 2
REMARK VINA RESULT:      -6.7      1.875      5.978
REMARK  Name = Triclosan
REMARK  3 active torsions:
REMARK  status: ('A' for Active; 'I' for Inactive)
REMARK    1  A    between atoms: O_1  and  C_2
REMARK    2  A    between atoms: C_8  and  O_9
REMARK    3  A    between atoms: O_9  and  C_10
REMARK                            x       y       z     vdW  Elec       q    Type
REMARK                         _______ _______ _______ _____ _____    ______ ____
ROOT
ATOM      1  C   UNL     1     -10.653   6.803 128.955  0.00  0.00    +0.000 A 
ATOM      2  C   UNL     1     -11.280   8.040 128.812  0.00  0.00    +0.000 A 
ATOM      3  C   UNL     1     -12.283   8.406 129.705  0.00  0.00    +0.000 A 
ATOM      4 CL   UNL     1     -13.109   9.896 129.475  0.00  0.00    +0.000 Cl
ATOM      5  C   UNL     1     -12.639   7.560 130.751  0.00  0.00    +0.000 A 
ATOM      6  C   UNL     1     -11.955   6.351 130.933  0.00  0.00    +0.000 A 
ATOM      7  C   UNL     1     -10.937   5.967 130.045  0.00  0.00    +0.000 A 
ENDROOT
BRANCH   1   8
ATOM      8  O   UNL     1      -9.775   6.432 127.972  0.00  0.00    +0.000 OA
ATOM      9  H   UNL     1      -8.868   6.530 128.298  0.00  0.00    +0.000 HD
ENDBRANCH   1   8
BRANCH   7  10
ATOM     10  O   UNL     1     -10.305   4.775 130.370  0.00  0.00    +0.000 OA
BRANCH  10  11
ATOM     11  C   UNL     1      -9.560   4.703 131.527  0.00  0.00    +0.000 A 
ATOM     12  C   UNL     1      -9.450   3.552 132.325  0.00  0.00    +0.000 A 
ATOM     13 CL   UNL     1     -10.147   2.033 131.872  0.00  0.00    +0.000 Cl
ATOM     14  C   UNL     1      -8.802   3.619 133.560  0.00  0.00    +0.000 A 
ATOM     15  C   UNL     1      -8.177   4.804 133.948  0.00  0.00    +0.000 A 
ATOM     16 CL   UNL     1      -7.368   4.879 135.465  0.00  0.00    +0.000 Cl
ATOM     17  C   UNL     1      -8.194   5.921 133.116  0.00  0.00    +0.000 A 
ATOM     18  C   UNL     1      -8.889   5.874 131.905  0.00  0.00    +0.000 A 
ENDBRANCH  10  11
ENDBRANCH   7  10
TORSDOF 3
ENDMDL
MODEL 3
REMARK VINA RESULT:      -6.6      1.695      5.834
REMARK  Name = Triclosan
REMARK  3 active torsions:
REMARK  status: ('A' for Active; 'I' for Inactive)
REMARK    1  A    between atoms: O_1  and  C_2
REMARK    2  A    between atoms: C_8  and  O_9
REMARK    3  A    between atoms: O_9  and  C_10
REMARK                            x       y       z     vdW  Elec       q    Type
REMARK                         _______ _______ _______ _____ _____    ______ ____
ROOT
ATOM      1  C   UNL     1     -12.135   6.907 130.691  0.00  0.00    +0.000 A 
ATOM      2  C   UNL     1     -12.812   8.126 130.700  0.00  0.00    +0.000 A 
ATOM      3  C   UNL     1     -12.622   9.021 129.651  0.00  0.00    +0.000 A 
ATOM      4 CL   UNL     1     -13.396  10.556 129.708  0.00  0.00    +0.000 Cl
ATOM      5  C   UNL     1     -11.788   8.694 128.587  0.00  0.00    +0.000 A 
ATOM      6  C   UNL     1     -11.168   7.439 128.547  0.00  0.00    +0.000 A 
ATOM      7  C   UNL     1     -11.351   6.520 129.594  0.00  0.00    +0.000 A 
ENDROOT
BRANCH   1   8
ATOM      8  O   UNL     1     -12.247   6.124 131.808  0.00  0.00    +0.000 OA
ATOM      9  H   UNL     1     -12.549   5.239 131.552  0.00  0.00    +0.000 HD
ENDBRANCH   1   8
BRANCH   7  10
ATOM     10  O   UNL     1     -10.726   5.296 129.404  0.00  0.00    +0.000 OA
BRANCH  10  11
ATOM     11  C   UNL     1     -10.021   4.732 130.444  0.00  0.00    +0.000 A 
ATOM     12  C   UNL     1      -8.957   5.363 131.110  0.00  0.00    +0.000 A 
ATOM     13 CL   UNL     1      -8.485   6.995 130.779  0.00  0.00    +0.000 Cl
ATOM     14  C   UNL     1      -8.200   4.652 132.045  0.00  0.00    +0.000 A 
ATOM     15  C   UNL     1      -8.572   3.353 132.389  0.00  0.00    +0.000 A 
ATOM     16 CL   UNL     1      -7.645   2.486 133.551  0.00  0.00    +0.000 Cl
ATOM     17  C   UNL     1      -9.688   2.756 131.807  0.00  0.00    +0.000 A 
ATOM     18  C   UNL     1     -10.413   3.443 130.831  0.00  0.00    +0.000 A 
ENDBRANCH  10  11
ENDBRANCH   7  10
TORSDOF 3
ENDMDL
MODEL 4
REMARK VINA RESULT:      -6.6      2.299      6.318
REMARK  Name = Triclosan
REMARK  3 active torsions:
REMARK  status: ('A' for Active; 'I' for Inactive)
REMARK    1  A    between atoms: O_1  and  C_2
REMARK    2  A    between atoms: C_8  and  O_9
REMARK    3  A    between atoms: O_9  and  C_10
REMARK                            x       y       z     vdW  Elec       q    Type
REMARK                         _______ _______ _______ _____ _____    ______ ____
ROOT
ATOM      1  C   UNL     1     -11.597   6.652 131.183  0.00  0.00    +0.000 A 
ATOM      2  C   UNL     1     -12.563   7.278 130.396  0.00  0.00    +0.000 A 
ATOM      3  C   UNL     1     -12.166   8.011 129.281  0.00  0.00    +0.000 A 
ATOM      4 CL   UNL     1     -13.354   8.848 128.361  0.00  0.00    +0.000 Cl
ATOM      5  C   UNL     1     -10.821   8.094 128.934  0.00  0.00    +0.000 A 
ATOM      6  C   UNL     1      -9.862   7.403 129.686  0.00  0.00    +0.000 A 
ATOM      7  C   UNL     1     -10.244   6.655 130.812  0.00  0.00    +0.000 A 
ENDROOT
BRANCH   1   8
ATOM      8  O   UNL     1     -12.025   6.063 132.343  0.00  0.00    +0.000 OA
ATOM      9  H   UNL     1     -12.970   5.865 132.273  0.00  0.00    +0.000 HD
ENDBRANCH   1   8
BRANCH   7  10
ATOM     10  O   UNL     1      -9.206   5.977 131.434  0.00  0.00    +0.000 OA
BRANCH  10  11
ATOM     11  C   UNL     1      -9.287   4.609 131.578  0.00  0.00    +0.000 A 
ATOM     12  C   UNL     1      -9.069   3.929 132.788  0.00  0.00    +0.000 A 
ATOM     13 CL   UNL     1      -8.797   4.752 134.286  0.00  0.00    +0.000 Cl
ATOM     14  C   UNL     1      -9.017   2.533 132.803  0.00  0.00    +0.000 A 
ATOM     15  C   UNL     1      -9.284   1.820 131.635  0.00  0.00    +0.000 A 
ATOM     16 CL   UNL     1      -9.230   0.100 131.660  0.00  0.00    +0.000 Cl
ATOM     17  C   UNL     1      -9.600   2.485 130.453  0.00  0.00    +0.000 A 
ATOM     18  C   UNL     1      -9.599   3.882 130.421  0.00  0.00    +0.000 A 
ENDBRANCH  10  11
ENDBRANCH   7  10
TORSDOF 3
ENDMDL
MODEL 5
REMARK VINA RESULT:      -6.6      9.076     11.173
REMARK  Name = Triclosan
REMARK  3 active torsions:
REMARK  status: ('A' for Active; 'I' for Inactive)
REMARK    1  A    between atoms: O_1  and  C_2
REMARK    2  A    between atoms: C_8  and  O_9
REMARK    3  A    between atoms: O_9  and  C_10
REMARK                            x       y       z     vdW  Elec       q    Type
REMARK                         _______ _______ _______ _____ _____    ______ ____
ROOT
ATOM      1  C   UNL     1      -8.438   2.910 122.431  0.00  0.00    +0.000 A 
ATOM      2  C   UNL     1      -8.635   3.510 121.188  0.00  0.00    +0.000 A 
ATOM      3  C   UNL     1      -7.533   3.834 120.402  0.00  0.00    +0.000 A 
ATOM      4 CL   UNL     1      -7.779   4.646 118.906  0.00  0.00    +0.000 Cl
ATOM      5  C   UNL     1      -6.245   3.537 120.837  0.00  0.00    +0.000 A 
ATOM      6  C   UNL     1      -6.056   2.870 122.054  0.00  0.00    +0.000 A 
ATOM      7  C   UNL     1      -7.157   2.530 122.859  0.00  0.00    +0.000 A 
ENDROOT
BRANCH   1   8
ATOM      8  O   UNL     1      -9.541   2.740 123.223  0.00  0.00    +0.000 OA
ATOM      9  H   UNL     1     -10.237   2.298 122.714  0.00  0.00    +0.000 HD
ENDBRANCH   1   8
BRANCH   7  10
ATOM     10  O   UNL     1      -6.835   1.825 124.009  0.00  0.00    +0.000 OA
BRANCH  10  11
ATOM     11  C   UNL     1      -7.294   0.534 124.158  0.00  0.00    +0.000 A 
ATOM     12  C   UNL     1      -8.176   0.122 125.171  0.00  0.00    +0.000 A 
ATOM     13 CL   UNL     1      -8.897   1.230 126.288  0.00  0.00    +0.000 Cl
ATOM     14  C   UNL     1      -8.460  -1.235 125.337  0.00  0.00    +0.000 A 
ATOM     15  C   UNL     1      -7.949  -2.164 124.431  0.00  0.00    +0.000 A 
ATOM     16 CL   UNL     1      -8.312  -3.834 124.632  0.00  0.00    +0.000 Cl
ATOM     17  C   UNL     1      -7.156  -1.751 123.363  0.00  0.00    +0.000 A 
ATOM     18  C   UNL     1      -6.824  -0.401 123.226  0.00  0.00    +0.000 A 
ENDBRANCH  10  11
ENDBRANCH   7  10
TORSDOF 3
ENDMDL
MODEL 6
REMARK VINA RESULT:      -6.5      1.629      5.816
REMARK  Name = Triclosan
REMARK  3 active torsions:
REMARK  status: ('A' for Active; 'I' for Inactive)
REMARK    1  A    between atoms: O_1  and  C_2
REMARK    2  A    between atoms: C_8  and  O_9
REMARK    3  A    between atoms: O_9  and  C_10
REMARK                            x       y       z     vdW  Elec       q    Type
REMARK                         _______ _______ _______ _____ _____    ______ ____
ROOT
ATOM      1  C   UNL     1     -11.998   6.921 130.693  0.00  0.00    +0.000 A 
ATOM      2  C   UNL     1     -12.780   8.071 130.592  0.00  0.00    +0.000 A 
ATOM      3  C   UNL     1     -12.588   8.937 129.519  0.00  0.00    +0.000 A 
ATOM      4 CL   UNL     1     -13.498  10.394 129.443  0.00  0.00    +0.000 Cl
ATOM      5  C   UNL     1     -11.646   8.645 128.537  0.00  0.00    +0.000 A 
ATOM      6  C   UNL     1     -10.914   7.453 128.605  0.00  0.00    +0.000 A 
ATOM      7  C   UNL     1     -11.097   6.564 129.678  0.00  0.00    +0.000 A 
ENDROOT
BRANCH   1   8
ATOM      8  O   UNL     1     -12.128   6.178 131.835  0.00  0.00    +0.000 OA
ATOM      9  H   UNL     1     -12.253   5.246 131.600  0.00  0.00    +0.000 HD
ENDBRANCH   1   8
BRANCH   7  10
ATOM     10  O   UNL     1     -10.352   5.397 129.596  0.00  0.00    +0.000 OA
BRANCH  10  11
ATOM     11  C   UNL     1      -9.162   5.309 130.285  0.00  0.00    +0.000 A 
ATOM     12  C   UNL     1      -8.495   4.103 130.557  0.00  0.00    +0.000 A 
ATOM     13 CL   UNL     1      -9.034   2.578 129.939  0.00  0.00    +0.000 Cl
ATOM     14  C   UNL     1      -7.380   4.097 131.398  0.00  0.00    +0.000 A 
ATOM     15  C   UNL     1      -6.871   5.304 131.878  0.00  0.00    +0.000 A 
ATOM     16 CL   UNL     1      -5.489   5.294 132.903  0.00  0.00    +0.000 Cl
ATOM     17  C   UNL     1      -7.467   6.514 131.530  0.00  0.00    +0.000 A 
ATOM     18  C   UNL     1      -8.616   6.519 130.735  0.00  0.00    +0.000 A 
ENDBRANCH  10  11
ENDBRANCH   7  10
TORSDOF 3
ENDMDL
MODEL 7
REMARK VINA RESULT:      -6.4      1.791      6.000
REMARK  Name = Triclosan
REMARK  3 active torsions:
REMARK  status: ('A' for Active; 'I' for Inactive)
REMARK    1  A    between atoms: O_1  and  C_2
REMARK    2  A    between atoms: C_8  and  O_9
REMARK    3  A    between atoms: O_9  and  C_10
REMARK                            x       y       z     vdW  Elec       q    Type
REMARK                         _______ _______ _______ _____ _____    ______ ____
ROOT
ATOM      1  C   UNL     1     -10.321   6.485 129.212  0.00  0.00    +0.000 A 
ATOM      2  C   UNL     1     -11.066   7.628 128.921  0.00  0.00    +0.000 A 
ATOM      3  C   UNL     1     -12.049   8.048 129.812  0.00  0.00    +0.000 A 
ATOM      4 CL   UNL     1     -13.020   9.409 129.410  0.00  0.00    +0.000 Cl
ATOM      5  C   UNL     1     -12.269   7.355 130.999  0.00  0.00    +0.000 A 
ATOM      6  C   UNL     1     -11.469   6.251 131.320  0.00  0.00    +0.000 A 
ATOM      7  C   UNL     1     -10.468   5.814 130.436  0.00  0.00    +0.000 A 
ENDROOT
BRANCH   1   8
ATOM      8  O   UNL     1      -9.467   6.035 128.242  0.00  0.00    +0.000 OA
ATOM      9  H   UNL     1      -9.057   5.206 128.534  0.00  0.00    +0.000 HD
ENDBRANCH   1   8
BRANCH   7  10
ATOM     10  O   UNL     1      -9.714   4.747 130.899  0.00  0.00    +0.000 OA
BRANCH  10  11
ATOM     11  C   UNL     1      -9.005   4.883 132.073  0.00  0.00    +0.000 A 
ATOM     12  C   UNL     1      -7.946   5.789 132.255  0.00  0.00    +0.000 A 
ATOM     13 CL   UNL     1      -7.488   6.943 131.048  0.00  0.00    +0.000 Cl
ATOM     14  C   UNL     1      -7.185   5.745 133.425  0.00  0.00    +0.000 A 
ATOM     15  C   UNL     1      -7.546   4.872 134.451  0.00  0.00    +0.000 A 
ATOM     16 CL   UNL     1      -6.613   4.830 135.896  0.00  0.00    +0.000 Cl
ATOM     17  C   UNL     1      -8.656   4.042 134.319  0.00  0.00    +0.000 A 
ATOM     18  C   UNL     1      -9.387   4.043 133.128  0.00  0.00    +0.000 A 
ENDBRANCH  10  11
ENDBRANCH   7  10
TORSDOF 3
ENDMDL
MODEL 8
REMARK VINA RESULT:      -6.3      8.765      9.853
REMARK  Name = Triclosan
REMARK  3 active torsions:
REMARK  status: ('A' for Active; 'I' for Inactive)
REMARK    1  A    between atoms: O_1  and  C_2
REMARK    2  A    between atoms: C_8  and  O_9
REMARK    3  A    between atoms: O_9  and  C_10
REMARK                            x       y       z     vdW  Elec       q    Type
REMARK                         _______ _______ _______ _____ _____    ______ ____
ROOT
ATOM      1  C   UNL     1      -8.515  -2.710 124.247  0.00  0.00    +0.000 A 
ATOM      2  C   UNL     1      -7.493  -3.655 124.333  0.00  0.00    +0.000 A 
ATOM      3  C   UNL     1      -6.228  -3.339 123.847  0.00  0.00    +0.000 A 
ATOM      4 CL   UNL     1      -4.993  -4.536 123.883  0.00  0.00    +0.000 Cl
ATOM      5  C   UNL     1      -5.972  -2.083 123.307  0.00  0.00    +0.000 A 
ATOM      6  C   UNL     1      -6.983  -1.113 123.289  0.00  0.00    +0.000 A 
ATOM      7  C   UNL     1      -8.266  -1.412 123.779  0.00  0.00    +0.000 A 
ENDROOT
BRANCH   1   8
ATOM      8  O   UNL     1      -9.771  -3.117 124.609  0.00  0.00    +0.000 OA
ATOM      9  H   UNL     1      -9.994  -2.740 125.473  0.00  0.00    +0.000 HD
ENDBRANCH   1   8
BRANCH   7  10
ATOM     10  O   UNL     1      -9.156  -0.348 123.753  0.00  0.00    +0.000 OA
BRANCH  10  11
ATOM     11  C   UNL     1      -8.906   0.757 124.537  0.00  0.00    +0.000 A 
ATOM     12  C   UNL     1      -8.768   2.064 124.039  0.00  0.00    +0.000 A 
ATOM     13 CL   UNL     1      -9.026   2.460 122.374  0.00  0.00    +0.000 Cl
ATOM     14  C   UNL     1      -8.360   3.094 124.889  0.00  0.00    +0.000 A 
ATOM     15  C   UNL     1      -8.192   2.841 126.250  0.00  0.00    +0.000 A 
ATOM     16 CL   UNL     1      -7.701   4.115 127.297  0.00  0.00    +0.000 Cl
ATOM     17  C   UNL     1      -8.426   1.569 126.770  0.00  0.00    +0.000 A 
ATOM     18  C   UNL     1      -8.780   0.524 125.913  0.00  0.00    +0.000 A 
ENDBRANCH  10  11
ENDBRANCH   7  10
TORSDOF 3
ENDMDL
MODEL 9
REMARK VINA RESULT:      -6.2      8.376      9.492
REMARK  Name = Triclosan
REMARK  3 active torsions:
REMARK  status: ('A' for Active; 'I' for Inactive)
REMARK    1  A    between atoms: O_1  and  C_2
REMARK    2  A    between atoms: C_8  and  O_9
REMARK    3  A    between atoms: O_9  and  C_10
REMARK                            x       y       z     vdW  Elec       q    Type
REMARK                         _______ _______ _______ _____ _____    ______ ____
ROOT
ATOM      1  C   UNL     1      -9.286  -2.526 125.828  0.00  0.00    +0.000 A 
ATOM      2  C   UNL     1      -8.811  -3.275 126.904  0.00  0.00    +0.000 A 
ATOM      3  C   UNL     1      -8.040  -2.653 127.882  0.00  0.00    +0.000 A 
ATOM      4 CL   UNL     1      -7.388  -3.599 129.163  0.00  0.00    +0.000 Cl
ATOM      5  C   UNL     1      -7.768  -1.291 127.807  0.00  0.00    +0.000 A 
ATOM      6  C   UNL     1      -8.309  -0.529 126.763  0.00  0.00    +0.000 A 
ATOM      7  C   UNL     1      -9.094  -1.138 125.769  0.00  0.00    +0.000 A 
ENDROOT
BRANCH   1   8
ATOM      8  O   UNL     1      -9.919  -3.209 124.825  0.00  0.00    +0.000 OA
ATOM      9  H   UNL     1     -10.776  -3.529 125.145  0.00  0.00    +0.000 HD
ENDBRANCH   1   8
BRANCH   7  10
ATOM     10  O   UNL     1      -9.612  -0.262 124.825  0.00  0.00    +0.000 OA
BRANCH  10  11
ATOM     11  C   UNL     1      -8.792   0.703 124.283  0.00  0.00    +0.000 A 
ATOM     12  C   UNL     1      -7.664   0.427 123.492  0.00  0.00    +0.000 A 
ATOM     13 CL   UNL     1      -7.242  -1.176 122.995  0.00  0.00    +0.000 Cl
ATOM     14  C   UNL     1      -6.805   1.463 123.118  0.00  0.00    +0.000 A 
ATOM     15  C   UNL     1      -7.128   2.780 123.445  0.00  0.00    +0.000 A 
ATOM     16 CL   UNL     1      -6.073   4.054 122.972  0.00  0.00    +0.000 Cl
ATOM     17  C   UNL     1      -8.298   3.072 124.142  0.00  0.00    +0.000 A 
ATOM     18  C   UNL     1      -9.131   2.033 124.565  0.00  0.00    +0.000 A 
ENDBRANCH  10  11
ENDBRANCH   7  10
TORSDOF 3
ENDMDL
