MODEL 1
REMARK VINA RESULT:      -4.1      0.000      0.000
REMARK  Name = Triethylenetetramine
REMARK  9 active torsions:
REMARK  status: ('A' for Active; 'I' for Inactive)
REMARK    1  A    between atoms: N_1  and  C_2
REMARK    2  A    between atoms: C_2  and  C_3
REMARK    3  A    between atoms: C_3  and  N_4
REMARK    4  A    between atoms: N_4  and  C_5
REMARK    5  A    between atoms: C_5  and  C_6
REMARK    6  A    between atoms: C_6  and  N_7
REMARK    7  A    between atoms: N_7  and  C_8
REMARK    8  A    between atoms: C_8  and  C_9
REMARK    9  A    between atoms: C_9  and  N_10
REMARK                            x       y       z     vdW  Elec       q    Type
REMARK                         _______ _______ _______ _____ _____    ______ ____
ROOT
ATOM      1  C   UNL     1     -12.710   6.929 129.718  0.00  0.00    +0.000 C 
ENDROOT
BRANCH   1   2
ATOM      2  N   UNL     1     -11.969   5.706 129.392  0.00  0.00    +0.000 NA
ATOM      3  H   UNL     1     -12.630   4.973 129.134  0.00  0.00    +0.000 HD
BRANCH   2   4
ATOM      4  C   UNL     1     -11.183   5.272 130.550  0.00  0.00    +0.000 C 
BRANCH   4   5
ATOM      5  C   UNL     1     -10.514   6.475 131.231  0.00  0.00    +0.000 C 
BRANCH   5   6
ATOM      6  N   UNL     1     -10.530   6.330 132.686  0.00  0.00    +0.000 NA
ATOM      7  H   UNL     1      -9.834   6.954 133.091  0.00  0.00    +0.000 HD
ATOM      8  H   UNL     1     -10.253   5.384 132.937  0.00  0.00    +0.000 HD
ENDBRANCH   5   6
ENDBRANCH   4   5
ENDBRANCH   2   4
ENDBRANCH   1   2
BRANCH   1   9
ATOM      9  C   UNL     1     -12.882   7.796 128.463  0.00  0.00    +0.000 C 
BRANCH   9  10
ATOM     10  N   UNL     1     -11.939   8.916 128.489  0.00  0.00    +0.000 NA
ATOM     11  H   UNL     1     -11.809   9.222 129.453  0.00  0.00    +0.000 HD
BRANCH  10  12
ATOM     12  C   UNL     1     -10.650   8.499 127.930  0.00  0.00    +0.000 C 
BRANCH  12  13
ATOM     13  C   UNL     1     -10.855   7.705 126.631  0.00  0.00    +0.000 C 
BRANCH  13  14
ATOM     14  N   UNL     1     -10.061   6.478 126.635  0.00  0.00    +0.000 NA
ATOM     15  H   UNL     1     -10.678   5.673 126.713  0.00  0.00    +0.000 HD
ATOM     16  H   UNL     1      -9.467   6.469 127.464  0.00  0.00    +0.000 HD
ENDBRANCH  13  14
ENDBRANCH  12  13
ENDBRANCH  10  12
ENDBRANCH   9  10
ENDBRANCH   1   9
TORSDOF 9
ENDMDL
MODEL 2
REMARK VINA RESULT:      -4.0      1.010      4.345
REMARK  Name = Triethylenetetramine
REMARK  9 active torsions:
REMARK  status: ('A' for Active; 'I' for Inactive)
REMARK    1  A    between atoms: N_1  and  C_2
REMARK    2  A    between atoms: C_2  and  C_3
REMARK    3  A    between atoms: C_3  and  N_4
REMARK    4  A    between atoms: N_4  and  C_5
REMARK    5  A    between atoms: C_5  and  C_6
REMARK    6  A    between atoms: C_6  and  N_7
REMARK    7  A    between atoms: N_7  and  C_8
REMARK    8  A    between atoms: C_8  and  C_9
REMARK    9  A    between atoms: C_9  and  N_10
REMARK                            x       y       z     vdW  Elec       q    Type
REMARK                         _______ _______ _______ _____ _____    ______ ____
ROOT
ATOM      1  C   UNL     1     -12.788   8.083 129.056  0.00  0.00    +0.000 C 
ENDROOT
BRANCH   1   2
ATOM      2  N   UNL     1     -11.857   9.001 128.393  0.00  0.00    +0.000 NA
ATOM      3  H   UNL     1     -12.315   9.414 127.581  0.00  0.00    +0.000 HD
BRANCH   2   4
ATOM      4  C   UNL     1     -10.658   8.276 127.963  0.00  0.00    +0.000 C 
BRANCH   4   5
ATOM      5  C   UNL     1     -10.945   7.459 126.694  0.00  0.00    +0.000 C 
BRANCH   5   6
ATOM      6  N   UNL     1      -9.901   6.460 126.467  0.00  0.00    +0.000 NA
ATOM      7  H   UNL     1      -9.369   6.717 125.636  0.00  0.00    +0.000 HD
ATOM      8  H   UNL     1     -10.330   5.559 126.270  0.00  0.00    +0.000 HD
ENDBRANCH   5   6
ENDBRANCH   4   5
ENDBRANCH   2   4
ENDBRANCH   1   2
BRANCH   1   9
ATOM      9  C   UNL     1     -12.685   8.232 130.580  0.00  0.00    +0.000 C 
BRANCH   9  10
ATOM     10  N   UNL     1     -12.810   6.924 131.227  0.00  0.00    +0.000 NA
ATOM     11  H   UNL     1     -13.709   6.512 130.977  0.00  0.00    +0.000 HD
BRANCH  10  12
ATOM     12  C   UNL     1     -11.727   6.042 130.787  0.00  0.00    +0.000 C 
BRANCH  12  13
ATOM     13  C   UNL     1     -10.435   6.339 131.565  0.00  0.00    +0.000 C 
BRANCH  13  14
ATOM     14  N   UNL     1     -10.443   5.677 132.867  0.00  0.00    +0.000 NA
ATOM     15  H   UNL     1     -10.248   6.358 133.598  0.00  0.00    +0.000 HD
ATOM     16  H   UNL     1      -9.687   4.993 132.899  0.00  0.00    +0.000 HD
ENDBRANCH  13  14
ENDBRANCH  12  13
ENDBRANCH  10  12
ENDBRANCH   9  10
ENDBRANCH   1   9
TORSDOF 9
ENDMDL
MODEL 3
REMARK VINA RESULT:      -3.8      1.427      1.959
REMARK  Name = Triethylenetetramine
REMARK  9 active torsions:
REMARK  status: ('A' for Active; 'I' for Inactive)
REMARK    1  A    between atoms: N_1  and  C_2
REMARK    2  A    between atoms: C_2  and  C_3
REMARK    3  A    between atoms: C_3  and  N_4
REMARK    4  A    between atoms: N_4  and  C_5
REMARK    5  A    between atoms: C_5  and  C_6
REMARK    6  A    between atoms: C_6  and  N_7
REMARK    7  A    between atoms: N_7  and  C_8
REMARK    8  A    between atoms: C_8  and  C_9
REMARK    9  A    between atoms: C_9  and  N_10
REMARK                            x       y       z     vdW  Elec       q    Type
REMARK                         _______ _______ _______ _____ _____    ______ ____
ROOT
ATOM      1  C   UNL     1     -12.591   7.305 131.458  0.00  0.00    +0.000 C 
ENDROOT
BRANCH   1   2
ATOM      2  N   UNL     1     -11.998   6.023 131.851  0.00  0.00    +0.000 NA
ATOM      3  H   UNL     1     -12.144   5.879 132.850  0.00  0.00    +0.000 HD
BRANCH   2   4
ATOM      4  C   UNL     1     -10.562   6.025 131.561  0.00  0.00    +0.000 C 
BRANCH   4   5
ATOM      5  C   UNL     1     -10.136   4.694 130.924  0.00  0.00    +0.000 C 
BRANCH   5   6
ATOM      6  N   UNL     1     -11.280   4.010 130.323  0.00  0.00    +0.000 NA
ATOM      7  H   UNL     1     -12.052   4.005 130.989  0.00  0.00    +0.000 HD
ATOM      8  H   UNL     1     -11.042   3.037 130.148  0.00  0.00    +0.000 HD
ENDBRANCH   5   6
ENDBRANCH   4   5
ENDBRANCH   2   4
ENDBRANCH   1   2
BRANCH   1   9
ATOM      9  C   UNL     1     -12.900   7.308 129.955  0.00  0.00    +0.000 C 
BRANCH   9  10
ATOM     10  N   UNL     1     -12.555   8.606 129.369  0.00  0.00    +0.000 NA
ATOM     11  H   UNL     1     -11.893   9.083 129.981  0.00  0.00    +0.000 HD
BRANCH  10  12
ATOM     12  C   UNL     1     -11.952   8.415 128.048  0.00  0.00    +0.000 C 
BRANCH  12  13
ATOM     13  C   UNL     1     -12.600   7.225 127.323  0.00  0.00    +0.000 C 
BRANCH  13  14
ATOM     14  N   UNL     1     -11.727   6.716 126.267  0.00  0.00    +0.000 NA
ATOM     15  H   UNL     1     -11.111   7.460 125.945  0.00  0.00    +0.000 HD
ATOM     16  H   UNL     1     -12.297   6.444 125.466  0.00  0.00    +0.000 HD
ENDBRANCH  13  14
ENDBRANCH  12  13
ENDBRANCH  10  12
ENDBRANCH   9  10
ENDBRANCH   1   9
TORSDOF 9
ENDMDL
MODEL 4
REMARK VINA RESULT:      -3.8      1.670      3.994
REMARK  Name = Triethylenetetramine
REMARK  9 active torsions:
REMARK  status: ('A' for Active; 'I' for Inactive)
REMARK    1  A    between atoms: N_1  and  C_2
REMARK    2  A    between atoms: C_2  and  C_3
REMARK    3  A    between atoms: C_3  and  N_4
REMARK    4  A    between atoms: N_4  and  C_5
REMARK    5  A    between atoms: C_5  and  C_6
REMARK    6  A    between atoms: C_6  and  N_7
REMARK    7  A    between atoms: N_7  and  C_8
REMARK    8  A    between atoms: C_8  and  C_9
REMARK    9  A    between atoms: C_9  and  N_10
REMARK                            x       y       z     vdW  Elec       q    Type
REMARK                         _______ _______ _______ _____ _____    ______ ____
ROOT
ATOM      1  C   UNL     1     -12.769   7.142 130.425  0.00  0.00    +0.000 C 
ENDROOT
BRANCH   1   2
ATOM      2  N   UNL     1     -12.598   6.571 129.085  0.00  0.00    +0.000 NA
ATOM      3  H   UNL     1     -11.659   6.181 129.005  0.00  0.00    +0.000 HD
BRANCH   2   4
ATOM      4  C   UNL     1     -12.786   7.610 128.070  0.00  0.00    +0.000 C 
BRANCH   4   5
ATOM      5  C   UNL     1     -12.640   7.022 126.659  0.00  0.00    +0.000 C 
BRANCH   5   6
ATOM      6  N   UNL     1     -11.243   6.706 126.364  0.00  0.00    +0.000 NA
ATOM      7  H   UNL     1     -10.714   7.574 126.289  0.00  0.00    +0.000 HD
ATOM      8  H   UNL     1     -11.181   6.250 125.457  0.00  0.00    +0.000 HD
ENDBRANCH   5   6
ENDBRANCH   4   5
ENDBRANCH   2   4
ENDBRANCH   1   2
BRANCH   1   9
ATOM      9  C   UNL     1     -11.848   6.431 131.426  0.00  0.00    +0.000 C 
BRANCH   9  10
ATOM     10  N   UNL     1     -11.383   5.158 130.871  0.00  0.00    +0.000 NA
ATOM     11  H   UNL     1     -11.611   5.123 129.878  0.00  0.00    +0.000 HD
BRANCH  10  12
ATOM     12  C   UNL     1      -9.934   5.034 131.046  0.00  0.00    +0.000 C 
BRANCH  12  13
ATOM     13  C   UNL     1      -9.192   6.040 130.153  0.00  0.00    +0.000 C 
BRANCH  13  14
ATOM     14  N   UNL     1      -9.502   5.819 128.743  0.00  0.00    +0.000 NA
ATOM     15  H   UNL     1      -9.341   4.842 128.507  0.00  0.00    +0.000 HD
ATOM     16  H   UNL     1      -8.858   6.365 128.170  0.00  0.00    +0.000 HD
ENDBRANCH  13  14
ENDBRANCH  12  13
ENDBRANCH  10  12
ENDBRANCH   9  10
ENDBRANCH   1   9
TORSDOF 9
ENDMDL
MODEL 5
REMARK VINA RESULT:      -3.8      2.376      4.860
REMARK  Name = Triethylenetetramine
REMARK  9 active torsions:
REMARK  status: ('A' for Active; 'I' for Inactive)
REMARK    1  A    between atoms: N_1  and  C_2
REMARK    2  A    between atoms: C_2  and  C_3
REMARK    3  A    between atoms: C_3  and  N_4
REMARK    4  A    between atoms: N_4  and  C_5
REMARK    5  A    between atoms: C_5  and  C_6
REMARK    6  A    between atoms: C_6  and  N_7
REMARK    7  A    between atoms: N_7  and  C_8
REMARK    8  A    between atoms: C_8  and  C_9
REMARK    9  A    between atoms: C_9  and  N_10
REMARK                            x       y       z     vdW  Elec       q    Type
REMARK                         _______ _______ _______ _____ _____    ______ ____
ROOT
ATOM      1  C   UNL     1     -12.224   7.946 130.164  0.00  0.00    +0.000 C 
ENDROOT
BRANCH   1   2
ATOM      2  N   UNL     1     -13.190   8.025 129.064  0.00  0.00    +0.000 NA
ATOM      3  H   UNL     1     -12.883   7.418 128.305  0.00  0.00    +0.000 HD
BRANCH   2   4
ATOM      4  C   UNL     1     -13.287   9.405 128.581  0.00  0.00    +0.000 C 
BRANCH   4   5
ATOM      5  C   UNL     1     -13.282  10.392 129.757  0.00  0.00    +0.000 C 
BRANCH   5   6
ATOM      6  N   UNL     1     -13.370  11.773 129.283  0.00  0.00    +0.000 NA
ATOM      7  H   UNL     1     -12.555  12.290 129.611  0.00  0.00    +0.000 HD
ATOM      8  H   UNL     1     -14.185  12.223 129.694  0.00  0.00    +0.000 HD
ENDBRANCH   5   6
ENDBRANCH   4   5
ENDBRANCH   2   4
ENDBRANCH   1   2
BRANCH   1   9
ATOM      9  C   UNL     1     -12.848   7.228 131.369  0.00  0.00    +0.000 C 
BRANCH   9  10
ATOM     10  N   UNL     1     -11.964   6.154 131.831  0.00  0.00    +0.000 NA
ATOM     11  H   UNL     1     -12.305   5.263 131.471  0.00  0.00    +0.000 HD
BRANCH  10  12
ATOM     12  C   UNL     1     -10.599   6.388 131.354  0.00  0.00    +0.000 C 
BRANCH  12  13
ATOM     13  C   UNL     1      -9.573   5.961 132.414  0.00  0.00    +0.000 C 
BRANCH  13  14
ATOM     14  N   UNL     1     -10.083   4.858 133.224  0.00  0.00    +0.000 NA
ATOM     15  H   UNL     1     -10.810   5.201 133.849  0.00  0.00    +0.000 HD
ATOM     16  H   UNL     1      -9.333   4.506 133.819  0.00  0.00    +0.000 HD
ENDBRANCH  13  14
ENDBRANCH  12  13
ENDBRANCH  10  12
ENDBRANCH   9  10
ENDBRANCH   1   9
TORSDOF 9
ENDMDL
MODEL 6
REMARK VINA RESULT:      -3.7      1.674      4.841
REMARK  Name = Triethylenetetramine
REMARK  9 active torsions:
REMARK  status: ('A' for Active; 'I' for Inactive)
REMARK    1  A    between atoms: N_1  and  C_2
REMARK    2  A    between atoms: C_2  and  C_3
REMARK    3  A    between atoms: C_3  and  N_4
REMARK    4  A    between atoms: N_4  and  C_5
REMARK    5  A    between atoms: C_5  and  C_6
REMARK    6  A    between atoms: C_6  and  N_7
REMARK    7  A    between atoms: N_7  and  C_8
REMARK    8  A    between atoms: C_8  and  C_9
REMARK    9  A    between atoms: C_9  and  N_10
REMARK                            x       y       z     vdW  Elec       q    Type
REMARK                         _______ _______ _______ _____ _____    ______ ____
ROOT
ATOM      1  C   UNL     1     -11.485   5.530 130.199  0.00  0.00    +0.000 C 
ENDROOT
BRANCH   1   2
ATOM      2  N   UNL     1     -12.131   6.087 129.006  0.00  0.00    +0.000 NA
ATOM      3  H   UNL     1     -11.422   6.514 128.410  0.00  0.00    +0.000 HD
BRANCH   2   4
ATOM      4  C   UNL     1     -13.119   7.096 129.396  0.00  0.00    +0.000 C 
BRANCH   4   5
ATOM      5  C   UNL     1     -13.100   8.280 128.417  0.00  0.00    +0.000 C 
BRANCH   5   6
ATOM      6  N   UNL     1     -11.790   8.929 128.405  0.00  0.00    +0.000 NA
ATOM      7  H   UNL     1     -11.393   8.862 127.468  0.00  0.00    +0.000 HD
ATOM      8  H   UNL     1     -11.156   8.429 129.025  0.00  0.00    +0.000 HD
ENDBRANCH   5   6
ENDBRANCH   4   5
ENDBRANCH   2   4
ENDBRANCH   1   2
BRANCH   1   9
ATOM      9  C   UNL     1     -11.721   6.447 131.407  0.00  0.00    +0.000 C 
BRANCH   9  10
ATOM     10  N   UNL     1     -11.016   5.927 132.582  0.00  0.00    +0.000 NA
ATOM     11  H   UNL     1     -11.340   4.979 132.774  0.00  0.00    +0.000 HD
BRANCH  10  12
ATOM     12  C   UNL     1      -9.573   5.913 132.334  0.00  0.00    +0.000 C 
BRANCH  12  13
ATOM     13  C   UNL     1      -8.930   4.655 132.939  0.00  0.00    +0.000 C 
BRANCH  13  14
ATOM     14  N   UNL     1      -9.825   4.022 133.906  0.00  0.00    +0.000 NA
ATOM     15  H   UNL     1      -9.304   3.346 134.461  0.00  0.00    +0.000 HD
ATOM     16  H   UNL     1     -10.539   3.496 133.404  0.00  0.00    +0.000 HD
ENDBRANCH  13  14
ENDBRANCH  12  13
ENDBRANCH  10  12
ENDBRANCH   9  10
ENDBRANCH   1   9
TORSDOF 9
ENDMDL
MODEL 7
REMARK VINA RESULT:      -3.7      1.601      3.012
REMARK  Name = Triethylenetetramine
REMARK  9 active torsions:
REMARK  status: ('A' for Active; 'I' for Inactive)
REMARK    1  A    between atoms: N_1  and  C_2
REMARK    2  A    between atoms: C_2  and  C_3
REMARK    3  A    between atoms: C_3  and  N_4
REMARK    4  A    between atoms: N_4  and  C_5
REMARK    5  A    between atoms: C_5  and  C_6
REMARK    6  A    between atoms: C_6  and  N_7
REMARK    7  A    between atoms: N_7  and  C_8
REMARK    8  A    between atoms: C_8  and  C_9
REMARK    9  A    between atoms: C_9  and  N_10
REMARK                            x       y       z     vdW  Elec       q    Type
REMARK                         _______ _______ _______ _____ _____    ______ ____
ROOT
ATOM      1  C   UNL     1     -11.781   6.449 131.607  0.00  0.00    +0.000 C 
ENDROOT
BRANCH   1   2
ATOM      2  N   UNL     1     -10.813   6.236 132.688  0.00  0.00    +0.000 NA
ATOM      3  H   UNL     1     -10.725   7.095 133.231  0.00  0.00    +0.000 HD
BRANCH   2   4
ATOM      4  C   UNL     1      -9.509   5.872 132.129  0.00  0.00    +0.000 C 
BRANCH   4   5
ATOM      5  C   UNL     1      -8.955   4.618 132.821  0.00  0.00    +0.000 C 
BRANCH   5   6
ATOM      6  N   UNL     1      -9.881   4.129 133.841  0.00  0.00    +0.000 NA
ATOM      7  H   UNL     1      -9.878   4.773 134.631  0.00  0.00    +0.000 HD
ATOM      8  H   UNL     1      -9.555   3.233 134.196  0.00  0.00    +0.000 HD
ENDBRANCH   5   6
ENDBRANCH   4   5
ENDBRANCH   2   4
ENDBRANCH   1   2
BRANCH   1   9
ATOM      9  C   UNL     1     -11.091   6.312 130.242  0.00  0.00    +0.000 C 
BRANCH   9  10
ATOM     10  N   UNL     1     -12.076   5.984 129.208  0.00  0.00    +0.000 NA
ATOM     11  H   UNL     1     -12.503   5.084 129.426  0.00  0.00    +0.000 HD
BRANCH  10  12
ATOM     12  C   UNL     1     -13.112   7.019 129.157  0.00  0.00    +0.000 C 
BRANCH  12  13
ATOM     13  C   UNL     1     -12.741   8.108 128.139  0.00  0.00    +0.000 C 
BRANCH  13  14
ATOM     14  N   UNL     1     -12.562   9.401 128.796  0.00  0.00    +0.000 NA
ATOM     15  H   UNL     1     -12.807   9.321 129.780  0.00  0.00    +0.000 HD
ATOM     16  H   UNL     1     -13.212  10.074 128.390  0.00  0.00    +0.000 HD
ENDBRANCH  13  14
ENDBRANCH  12  13
ENDBRANCH  10  12
ENDBRANCH   9  10
ENDBRANCH   1   9
TORSDOF 9
ENDMDL
MODEL 8
REMARK VINA RESULT:      -3.6      3.099      4.752
REMARK  Name = Triethylenetetramine
REMARK  9 active torsions:
REMARK  status: ('A' for Active; 'I' for Inactive)
REMARK    1  A    between atoms: N_1  and  C_2
REMARK    2  A    between atoms: C_2  and  C_3
REMARK    3  A    between atoms: C_3  and  N_4
REMARK    4  A    between atoms: N_4  and  C_5
REMARK    5  A    between atoms: C_5  and  C_6
REMARK    6  A    between atoms: C_6  and  N_7
REMARK    7  A    between atoms: N_7  and  C_8
REMARK    8  A    between atoms: C_8  and  C_9
REMARK    9  A    between atoms: C_9  and  N_10
REMARK                            x       y       z     vdW  Elec       q    Type
REMARK                         _______ _______ _______ _____ _____    ______ ____
ROOT
ATOM      1  C   UNL     1      -8.205   4.151 129.048  0.00  0.00    +0.000 C 
ENDROOT
BRANCH   1   2
ATOM      2  N   UNL     1      -7.186   4.627 128.107  0.00  0.00    +0.000 NA
ATOM      3  H   UNL     1      -7.392   5.592 127.851  0.00  0.00    +0.000 HD
BRANCH   2   4
ATOM      4  C   UNL     1      -7.185   3.790 126.904  0.00  0.00    +0.000 C 
BRANCH   4   5
ATOM      5  C   UNL     1      -7.353   4.651 125.644  0.00  0.00    +0.000 C 
BRANCH   5   6
ATOM      6  N   UNL     1      -8.700   5.213 125.568  0.00  0.00    +0.000 NA
ATOM      7  H   UNL     1      -8.938   5.378 124.591  0.00  0.00    +0.000 HD
ATOM      8  H   UNL     1      -8.717   6.120 126.028  0.00  0.00    +0.000 HD
ENDBRANCH   5   6
ENDBRANCH   4   5
ENDBRANCH   2   4
ENDBRANCH   1   2
BRANCH   1   9
ATOM      9  C   UNL     1      -9.141   5.302 129.444  0.00  0.00    +0.000 C 
BRANCH   9  10
ATOM     10  N   UNL     1      -9.475   6.109 128.268  0.00  0.00    +0.000 NA
ATOM     11  H   UNL     1      -9.729   5.491 127.499  0.00  0.00    +0.000 HD
BRANCH  10  12
ATOM     12  C   UNL     1     -10.598   6.999 128.574  0.00  0.00    +0.000 C 
BRANCH  12  13
ATOM     13  C   UNL     1     -11.048   7.758 127.317  0.00  0.00    +0.000 C 
BRANCH  13  14
ATOM     14  N   UNL     1     -11.390   6.832 126.239  0.00  0.00    +0.000 NA
ATOM     15  H   UNL     1     -12.137   6.212 126.546  0.00  0.00    +0.000 HD
ATOM     16  H   UNL     1     -10.584   6.239 126.041  0.00  0.00    +0.000 HD
ENDBRANCH  13  14
ENDBRANCH  12  13
ENDBRANCH  10  12
ENDBRANCH   9  10
ENDBRANCH   1   9
TORSDOF 9
ENDMDL
MODEL 9
REMARK VINA RESULT:      -3.4      7.313      8.631
REMARK  Name = Triethylenetetramine
REMARK  9 active torsions:
REMARK  status: ('A' for Active; 'I' for Inactive)
REMARK    1  A    between atoms: N_1  and  C_2
REMARK    2  A    between atoms: C_2  and  C_3
REMARK    3  A    between atoms: C_3  and  N_4
REMARK    4  A    between atoms: N_4  and  C_5
REMARK    5  A    between atoms: C_5  and  C_6
REMARK    6  A    between atoms: C_6  and  N_7
REMARK    7  A    between atoms: N_7  and  C_8
REMARK    8  A    between atoms: C_8  and  C_9
REMARK    9  A    between atoms: C_9  and  N_10
REMARK                            x       y       z     vdW  Elec       q    Type
REMARK                         _______ _______ _______ _____ _____    ______ ____
ROOT
ATOM      1  C   UNL     1      -9.452   0.613 124.919  0.00  0.00    +0.000 C 
ENDROOT
BRANCH   1   2
ATOM      2  N   UNL     1      -9.379  -0.616 124.123  0.00  0.00    +0.000 NA
ATOM      3  H   UNL     1     -10.321  -0.983 123.988  0.00  0.00    +0.000 HD
BRANCH   2   4
ATOM      4  C   UNL     1      -8.558  -1.613 124.814  0.00  0.00    +0.000 C 
BRANCH   4   5
ATOM      5  C   UNL     1      -8.638  -2.970 124.100  0.00  0.00    +0.000 C 
BRANCH   5   6
ATOM      6  N   UNL     1      -9.951  -3.163 123.486  0.00  0.00    +0.000 NA
ATOM      7  H   UNL     1     -10.070  -2.487 122.733  0.00  0.00    +0.000 HD
ATOM      8  H   UNL     1     -10.678  -2.967 124.170  0.00  0.00    +0.000 HD
ENDBRANCH   5   6
ENDBRANCH   4   5
ENDBRANCH   2   4
ENDBRANCH   1   2
BRANCH   1   9
ATOM      9  C   UNL     1      -9.542   1.838 123.998  0.00  0.00    +0.000 C 
BRANCH   9  10
ATOM     10  N   UNL     1      -9.323   3.066 124.766  0.00  0.00    +0.000 NA
ATOM     11  H   UNL     1      -9.967   3.086 125.556  0.00  0.00    +0.000 HD
BRANCH  10  12
ATOM     12  C   UNL     1      -7.943   3.110 125.256  0.00  0.00    +0.000 C 
BRANCH  12  13
ATOM     13  C   UNL     1      -7.517   4.556 125.551  0.00  0.00    +0.000 C 
BRANCH  13  14
ATOM     14  N   UNL     1      -8.681   5.428 125.692  0.00  0.00    +0.000 NA
ATOM     15  H   UNL     1      -8.680   6.122 124.947  0.00  0.00    +0.000 HD
ATOM     16  H   UNL     1      -8.608   5.944 126.569  0.00  0.00    +0.000 HD
ENDBRANCH  13  14
ENDBRANCH  12  13
ENDBRANCH  10  12
ENDBRANCH   9  10
ENDBRANCH   1   9
TORSDOF 9
ENDMDL
