MODEL 1
REMARK VINA RESULT:      -7.7      0.000      0.000
REMARK  Name = Trifluoperazine
REMARK  6 active torsions:
REMARK  status: ('A' for Active; 'I' for Inactive)
REMARK    1  A    between atoms: C_1  and  N_2
REMARK    2  A    between atoms: N_5  and  C_6
REMARK    3  A    between atoms: C_6  and  C_7
REMARK    4  A    between atoms: C_7  and  C_8
REMARK    5  A    between atoms: C_8  and  N_9
REMARK    6  A    between atoms: C_20  and  C_23
REMARK                            x       y       z     vdW  Elec       q    Type
REMARK                         _______ _______ _______ _____ _____    ______ ____
ROOT
ATOM      1  N   UNL     1      -6.203  -1.283 126.206  0.00  0.00    +0.000 N 
ATOM      2  C   UNL     1      -7.072  -1.641 125.150  0.00  0.00    +0.000 A 
ATOM      3  C   UNL     1      -6.701  -1.468 123.808  0.00  0.00    +0.000 A 
ATOM      4  C   UNL     1      -7.459  -2.020 122.777  0.00  0.00    +0.000 A 
ATOM      5  C   UNL     1      -8.624  -2.727 123.068  0.00  0.00    +0.000 A 
ATOM      6  C   UNL     1      -9.039  -2.869 124.390  0.00  0.00    +0.000 A 
ATOM      7  C   UNL     1      -8.273  -2.334 125.428  0.00  0.00    +0.000 A 
ATOM      8  S   UNL     1      -8.830  -2.578 127.116  0.00  0.00    +0.000 S 
ATOM      9  C   UNL     1      -7.236  -2.717 127.910  0.00  0.00    +0.000 A 
ATOM     10  C   UNL     1      -6.103  -2.100 127.349  0.00  0.00    +0.000 A 
ATOM     11  C   UNL     1      -4.869  -2.414 127.925  0.00  0.00    +0.000 A 
ATOM     12  C   UNL     1      -4.746  -3.041 129.163  0.00  0.00    +0.000 A 
ATOM     13  C   UNL     1      -5.888  -3.615 129.725  0.00  0.00    +0.000 A 
ATOM     14  C   UNL     1      -7.119  -3.488 129.074  0.00  0.00    +0.000 A 
ENDROOT
BRANCH  12  15
ATOM     15  C   UNL     1      -3.407  -3.077 129.853  0.00  0.00    +0.000 C 
ATOM     16  F   UNL     1      -3.454  -3.715 131.056  0.00  0.00    +0.000 F 
ATOM     17  F   UNL     1      -2.459  -3.717 129.120  0.00  0.00    +0.000 F 
ATOM     18  F   UNL     1      -2.901  -1.837 130.118  0.00  0.00    +0.000 F 
ENDBRANCH  12  15
BRANCH   1  19
ATOM     19  C   UNL     1      -5.333  -0.097 125.990  0.00  0.00    +0.000 C 
BRANCH  19  20
ATOM     20  C   UNL     1      -5.979   1.218 126.384  0.00  0.00    +0.000 C 
BRANCH  20  21
ATOM     21  C   UNL     1      -5.469   2.432 125.649  0.00  0.00    +0.000 C 
BRANCH  21  26
ATOM     22  C   UNL     1      -5.840   3.347 121.003  0.00  0.00    +0.000 C 
ATOM     23  N   UNL     1      -6.445   3.548 122.308  0.00  0.00    +0.000 NA
ATOM     24  C   UNL     1      -5.540   4.281 123.214  0.00  0.00    +0.000 C 
ATOM     25  C   UNL     1      -6.177   4.491 124.607  0.00  0.00    +0.000 C 
ATOM     26  N   UNL     1      -6.634   3.235 125.226  0.00  0.00    +0.000 NA
ATOM     27  C   UNL     1      -7.519   2.526 124.266  0.00  0.00    +0.000 C 
ATOM     28  C   UNL     1      -6.833   2.263 122.915  0.00  0.00    +0.000 C 
ENDBRANCH  21  26
ENDBRANCH  20  21
ENDBRANCH  19  20
ENDBRANCH   1  19
TORSDOF 5
ENDMDL
MODEL 2
REMARK VINA RESULT:      -7.7      4.157      5.893
REMARK  Name = Trifluoperazine
REMARK  6 active torsions:
REMARK  status: ('A' for Active; 'I' for Inactive)
REMARK    1  A    between atoms: C_1  and  N_2
REMARK    2  A    between atoms: N_5  and  C_6
REMARK    3  A    between atoms: C_6  and  C_7
REMARK    4  A    between atoms: C_7  and  C_8
REMARK    5  A    between atoms: C_8  and  N_9
REMARK    6  A    between atoms: C_20  and  C_23
REMARK                            x       y       z     vdW  Elec       q    Type
REMARK                         _______ _______ _______ _____ _____    ______ ____
ROOT
ATOM      1  N   UNL     1      -7.556   0.178 127.513  0.00  0.00    +0.000 N 
ATOM      2  C   UNL     1      -7.886   0.599 128.822  0.00  0.00    +0.000 A 
ATOM      3  C   UNL     1      -8.243   1.929 129.092  0.00  0.00    +0.000 A 
ATOM      4  C   UNL     1      -8.777   2.291 130.328  0.00  0.00    +0.000 A 
ATOM      5  C   UNL     1      -8.931   1.335 131.329  0.00  0.00    +0.000 A 
ATOM      6  C   UNL     1      -8.537   0.019 131.101  0.00  0.00    +0.000 A 
ATOM      7  C   UNL     1      -8.019  -0.354 129.858  0.00  0.00    +0.000 A 
ATOM      8  S   UNL     1      -7.562  -2.069 129.601  0.00  0.00    +0.000 S 
ATOM      9  C   UNL     1      -7.998  -2.210 127.874  0.00  0.00    +0.000 A 
ATOM     10  C   UNL     1      -7.992  -1.075 127.042  0.00  0.00    +0.000 A 
ATOM     11  C   UNL     1      -8.526  -1.236 125.761  0.00  0.00    +0.000 A 
ATOM     12  C   UNL     1      -8.773  -2.484 125.190  0.00  0.00    +0.000 A 
ATOM     13  C   UNL     1      -8.737  -3.604 126.023  0.00  0.00    +0.000 A 
ATOM     14  C   UNL     1      -8.394  -3.456 127.370  0.00  0.00    +0.000 A 
ENDROOT
BRANCH  12  15
ATOM     15  C   UNL     1      -9.061  -2.588 123.716  0.00  0.00    +0.000 C 
ATOM     16  F   UNL     1      -9.963  -3.567 123.426  0.00  0.00    +0.000 F 
ATOM     17  F   UNL     1      -9.568  -1.438 123.200  0.00  0.00    +0.000 F 
ATOM     18  F   UNL     1      -7.956  -2.879 122.968  0.00  0.00    +0.000 F 
ENDBRANCH  12  15
BRANCH   1  19
ATOM     19  C   UNL     1      -6.852   1.159 126.646  0.00  0.00    +0.000 C 
BRANCH  19  20
ATOM     20  C   UNL     1      -5.344   0.989 126.627  0.00  0.00    +0.000 C 
BRANCH  20  21
ATOM     21  C   UNL     1      -4.572   2.001 127.436  0.00  0.00    +0.000 C 
BRANCH  21  26
ATOM     22  C   UNL     1      -3.635   6.544 128.458  0.00  0.00    +0.000 C 
ATOM     23  N   UNL     1      -3.372   5.452 127.537  0.00  0.00    +0.000 NA
ATOM     24  C   UNL     1      -4.608   5.005 126.865  0.00  0.00    +0.000 C 
ATOM     25  C   UNL     1      -4.335   3.838 125.888  0.00  0.00    +0.000 C 
ATOM     26  N   UNL     1      -3.644   2.704 126.526  0.00  0.00    +0.000 NA
ATOM     27  C   UNL     1      -2.425   3.210 127.207  0.00  0.00    +0.000 C 
ATOM     28  C   UNL     1      -2.736   4.318 128.228  0.00  0.00    +0.000 C 
ENDBRANCH  21  26
ENDBRANCH  20  21
ENDBRANCH  19  20
ENDBRANCH   1  19
TORSDOF 5
ENDMDL
MODEL 3
REMARK VINA RESULT:      -7.7      1.294      1.849
REMARK  Name = Trifluoperazine
REMARK  6 active torsions:
REMARK  status: ('A' for Active; 'I' for Inactive)
REMARK    1  A    between atoms: C_1  and  N_2
REMARK    2  A    between atoms: N_5  and  C_6
REMARK    3  A    between atoms: C_6  and  C_7
REMARK    4  A    between atoms: C_7  and  C_8
REMARK    5  A    between atoms: C_8  and  N_9
REMARK    6  A    between atoms: C_20  and  C_23
REMARK                            x       y       z     vdW  Elec       q    Type
REMARK                         _______ _______ _______ _____ _____    ______ ____
ROOT
ATOM      1  N   UNL     1      -6.207  -1.467 126.266  0.00  0.00    +0.000 N 
ATOM      2  C   UNL     1      -7.105  -1.845 125.241  0.00  0.00    +0.000 A 
ATOM      3  C   UNL     1      -6.759  -1.724 123.887  0.00  0.00    +0.000 A 
ATOM      4  C   UNL     1      -7.548  -2.298 122.891  0.00  0.00    +0.000 A 
ATOM      5  C   UNL     1      -8.718  -2.973 123.230  0.00  0.00    +0.000 A 
ATOM      6  C   UNL     1      -9.108  -3.062 124.564  0.00  0.00    +0.000 A 
ATOM      7  C   UNL     1      -8.311  -2.506 125.568  0.00  0.00    +0.000 A 
ATOM      8  S   UNL     1      -8.837  -2.682 127.274  0.00  0.00    +0.000 S 
ATOM      9  C   UNL     1      -7.229  -2.822 128.040  0.00  0.00    +0.000 A 
ATOM     10  C   UNL     1      -6.098  -2.245 127.434  0.00  0.00    +0.000 A 
ATOM     11  C   UNL     1      -4.857  -2.561 127.995  0.00  0.00    +0.000 A 
ATOM     12  C   UNL     1      -4.718  -3.148 129.252  0.00  0.00    +0.000 A 
ATOM     13  C   UNL     1      -5.859  -3.681 129.856  0.00  0.00    +0.000 A 
ATOM     14  C   UNL     1      -7.100  -3.555 129.226  0.00  0.00    +0.000 A 
ENDROOT
BRANCH  12  15
ATOM     15  C   UNL     1      -3.367  -3.184 129.914  0.00  0.00    +0.000 C 
ATOM     16  F   UNL     1      -2.457  -3.914 129.209  0.00  0.00    +0.000 F 
ATOM     17  F   UNL     1      -2.826  -1.948 130.067  0.00  0.00    +0.000 F 
ATOM     18  F   UNL     1      -3.389  -3.739 131.162  0.00  0.00    +0.000 F 
ENDBRANCH  12  15
BRANCH   1  19
ATOM     19  C   UNL     1      -5.321  -0.304 125.991  0.00  0.00    +0.000 C 
BRANCH  19  20
ATOM     20  C   UNL     1      -5.955   1.038 126.307  0.00  0.00    +0.000 C 
BRANCH  20  21
ATOM     21  C   UNL     1      -6.383   1.845 125.107  0.00  0.00    +0.000 C 
BRANCH  21  26
ATOM     22  C   UNL     1     -10.318   0.897 122.623  0.00  0.00    +0.000 C 
ATOM     23  N   UNL     1      -9.749   1.700 123.692  0.00  0.00    +0.000 NA
ATOM     24  C   UNL     1      -8.659   2.562 123.195  0.00  0.00    +0.000 C 
ATOM     25  C   UNL     1      -8.046   3.414 124.330  0.00  0.00    +0.000 C 
ATOM     26  N   UNL     1      -7.595   2.606 125.476  0.00  0.00    +0.000 NA
ATOM     27  C   UNL     1      -8.719   1.741 125.920  0.00  0.00    +0.000 C 
ATOM     28  C   UNL     1      -9.259   0.850 124.789  0.00  0.00    +0.000 C 
ENDBRANCH  21  26
ENDBRANCH  20  21
ENDBRANCH  19  20
ENDBRANCH   1  19
TORSDOF 5
ENDMDL
MODEL 4
REMARK VINA RESULT:      -7.5      7.645      9.973
REMARK  Name = Trifluoperazine
REMARK  6 active torsions:
REMARK  status: ('A' for Active; 'I' for Inactive)
REMARK    1  A    between atoms: C_1  and  N_2
REMARK    2  A    between atoms: N_5  and  C_6
REMARK    3  A    between atoms: C_6  and  C_7
REMARK    4  A    between atoms: C_7  and  C_8
REMARK    5  A    between atoms: C_8  and  N_9
REMARK    6  A    between atoms: C_20  and  C_23
REMARK                            x       y       z     vdW  Elec       q    Type
REMARK                         _______ _______ _______ _____ _____    ______ ____
ROOT
ATOM      1  N   UNL     1      -7.363   6.002 131.406  0.00  0.00    +0.000 N 
ATOM      2  C   UNL     1      -7.045   5.389 132.639  0.00  0.00    +0.000 A 
ATOM      3  C   UNL     1      -6.179   6.002 133.557  0.00  0.00    +0.000 A 
ATOM      4  C   UNL     1      -6.041   5.508 134.853  0.00  0.00    +0.000 A 
ATOM      5  C   UNL     1      -6.742   4.370 135.245  0.00  0.00    +0.000 A 
ATOM      6  C   UNL     1      -7.569   3.715 134.336  0.00  0.00    +0.000 A 
ATOM      7  C   UNL     1      -7.726   4.216 133.041  0.00  0.00    +0.000 A 
ATOM      8  S   UNL     1      -8.833   3.359 131.920  0.00  0.00    +0.000 S 
ATOM      9  C   UNL     1      -9.453   4.772 131.019  0.00  0.00    +0.000 A 
ATOM     10  C   UNL     1      -8.676   5.940 130.902  0.00  0.00    +0.000 A 
ATOM     11  C   UNL     1      -9.307   7.058 130.349  0.00  0.00    +0.000 A 
ATOM     12  C   UNL     1     -10.516   6.985 129.659  0.00  0.00    +0.000 A 
ATOM     13  C   UNL     1     -11.255   5.804 129.754  0.00  0.00    +0.000 A 
ATOM     14  C   UNL     1     -10.740   4.720 130.470  0.00  0.00    +0.000 A 
ENDROOT
BRANCH  12  15
ATOM     15  C   UNL     1     -10.981   8.161 128.840  0.00  0.00    +0.000 C 
ATOM     16  F   UNL     1     -11.795   8.999 129.542  0.00  0.00    +0.000 F 
ATOM     17  F   UNL     1      -9.952   8.921 128.387  0.00  0.00    +0.000 F 
ATOM     18  F   UNL     1     -11.697   7.801 127.734  0.00  0.00    +0.000 F 
ENDBRANCH  12  15
BRANCH   1  19
ATOM     19  C   UNL     1      -6.291   6.799 130.753  0.00  0.00    +0.000 C 
BRANCH  19  20
ATOM     20  C   UNL     1      -5.072   5.985 130.363  0.00  0.00    +0.000 C 
BRANCH  20  21
ATOM     21  C   UNL     1      -5.313   4.927 129.316  0.00  0.00    +0.000 C 
BRANCH  21  26
ATOM     22  C   UNL     1      -1.763   3.042 126.786  0.00  0.00    +0.000 C 
ATOM     23  N   UNL     1      -2.799   4.061 126.809  0.00  0.00    +0.000 NA
ATOM     24  C   UNL     1      -2.594   5.011 127.920  0.00  0.00    +0.000 C 
ATOM     25  C   UNL     1      -3.697   6.093 127.953  0.00  0.00    +0.000 C 
ATOM     26  N   UNL     1      -5.057   5.527 127.990  0.00  0.00    +0.000 NA
ATOM     27  C   UNL     1      -5.202   4.561 126.870  0.00  0.00    +0.000 C 
ATOM     28  C   UNL     1      -4.136   3.453 126.906  0.00  0.00    +0.000 C 
ENDBRANCH  21  26
ENDBRANCH  20  21
ENDBRANCH  19  20
ENDBRANCH   1  19
TORSDOF 5
ENDMDL
MODEL 5
REMARK VINA RESULT:      -7.3      3.012      6.999
REMARK  Name = Trifluoperazine
REMARK  6 active torsions:
REMARK  status: ('A' for Active; 'I' for Inactive)
REMARK    1  A    between atoms: C_1  and  N_2
REMARK    2  A    between atoms: N_5  and  C_6
REMARK    3  A    between atoms: C_6  and  C_7
REMARK    4  A    between atoms: C_7  and  C_8
REMARK    5  A    between atoms: C_8  and  N_9
REMARK    6  A    between atoms: C_20  and  C_23
REMARK                            x       y       z     vdW  Elec       q    Type
REMARK                         _______ _______ _______ _____ _____    ______ ____
ROOT
ATOM      1  N   UNL     1      -5.782   0.144 126.035  0.00  0.00    +0.000 N 
ATOM      2  C   UNL     1      -5.678   1.543 125.857  0.00  0.00    +0.000 A 
ATOM      3  C   UNL     1      -4.774   2.309 126.609  0.00  0.00    +0.000 A 
ATOM      4  C   UNL     1      -4.515   3.639 126.282  0.00  0.00    +0.000 A 
ATOM      5  C   UNL     1      -5.183   4.238 125.216  0.00  0.00    +0.000 A 
ATOM      6  C   UNL     1      -6.122   3.512 124.487  0.00  0.00    +0.000 A 
ATOM      7  C   UNL     1      -6.371   2.173 124.798  0.00  0.00    +0.000 A 
ATOM      8  S   UNL     1      -7.560   1.270 123.804  0.00  0.00    +0.000 S 
ATOM      9  C   UNL     1      -6.782  -0.338 123.845  0.00  0.00    +0.000 A 
ATOM     10  C   UNL     1      -5.952  -0.701 124.922  0.00  0.00    +0.000 A 
ATOM     11  C   UNL     1      -5.236  -1.893 124.785  0.00  0.00    +0.000 A 
ATOM     12  C   UNL     1      -5.525  -2.847 123.811  0.00  0.00    +0.000 A 
ATOM     13  C   UNL     1      -6.382  -2.482 122.771  0.00  0.00    +0.000 A 
ATOM     14  C   UNL     1      -6.971  -1.214 122.770  0.00  0.00    +0.000 A 
ENDROOT
BRANCH  12  15
ATOM     15  C   UNL     1      -4.921  -4.223 123.909  0.00  0.00    +0.000 C 
ATOM     16  F   UNL     1      -4.242  -4.579 122.782  0.00  0.00    +0.000 F 
ATOM     17  F   UNL     1      -4.038  -4.334 124.936  0.00  0.00    +0.000 F 
ATOM     18  F   UNL     1      -5.846  -5.209 124.103  0.00  0.00    +0.000 F 
ENDBRANCH  12  15
BRANCH   1  19
ATOM     19  C   UNL     1      -5.581  -0.377 127.414  0.00  0.00    +0.000 C 
BRANCH  19  20
ATOM     20  C   UNL     1      -6.847  -0.401 128.251  0.00  0.00    +0.000 C 
BRANCH  20  21
ATOM     21  C   UNL     1      -6.632  -0.552 129.736  0.00  0.00    +0.000 C 
BRANCH  21  26
ATOM     22  C   UNL     1      -5.307  -4.722 131.584  0.00  0.00    +0.000 C 
ATOM     23  N   UNL     1      -6.435  -3.854 131.290  0.00  0.00    +0.000 NA
ATOM     24  C   UNL     1      -6.560  -3.607 129.840  0.00  0.00    +0.000 C 
ATOM     25  C   UNL     1      -7.755  -2.679 129.523  0.00  0.00    +0.000 C 
ATOM     26  N   UNL     1      -7.710  -1.410 130.269  0.00  0.00    +0.000 NA
ATOM     27  C   UNL     1      -7.559  -1.713 131.716  0.00  0.00    +0.000 C 
ATOM     28  C   UNL     1      -6.320  -2.575 132.011  0.00  0.00    +0.000 C 
ENDBRANCH  21  26
ENDBRANCH  20  21
ENDBRANCH  19  20
ENDBRANCH   1  19
TORSDOF 5
ENDMDL
MODEL 6
REMARK VINA RESULT:      -7.3      4.603      6.918
REMARK  Name = Trifluoperazine
REMARK  6 active torsions:
REMARK  status: ('A' for Active; 'I' for Inactive)
REMARK    1  A    between atoms: C_1  and  N_2
REMARK    2  A    between atoms: N_5  and  C_6
REMARK    3  A    between atoms: C_6  and  C_7
REMARK    4  A    between atoms: C_7  and  C_8
REMARK    5  A    between atoms: C_8  and  N_9
REMARK    6  A    between atoms: C_20  and  C_23
REMARK                            x       y       z     vdW  Elec       q    Type
REMARK                         _______ _______ _______ _____ _____    ______ ____
ROOT
ATOM      1  N   UNL     1      -7.541   1.126 125.877  0.00  0.00    +0.000 N 
ATOM      2  C   UNL     1      -6.730   2.241 125.562  0.00  0.00    +0.000 A 
ATOM      3  C   UNL     1      -5.535   2.493 126.252  0.00  0.00    +0.000 A 
ATOM      4  C   UNL     1      -4.633   3.455 125.799  0.00  0.00    +0.000 A 
ATOM      5  C   UNL     1      -4.927   4.207 124.665  0.00  0.00    +0.000 A 
ATOM      6  C   UNL     1      -6.130   4.010 123.992  0.00  0.00    +0.000 A 
ATOM      7  C   UNL     1      -7.029   3.035 124.430  0.00  0.00    +0.000 A 
ATOM      8  S   UNL     1      -8.547   2.793 123.506  0.00  0.00    +0.000 S 
ATOM      9  C   UNL     1      -8.719   1.028 123.725  0.00  0.00    +0.000 A 
ATOM     10  C   UNL     1      -8.163   0.392 124.851  0.00  0.00    +0.000 A 
ATOM     11  C   UNL     1      -8.177  -1.006 124.849  0.00  0.00    +0.000 A 
ATOM     12  C   UNL     1      -8.954  -1.758 123.969  0.00  0.00    +0.000 A 
ATOM     13  C   UNL     1      -9.531  -1.103 122.880  0.00  0.00    +0.000 A 
ATOM     14  C   UNL     1      -9.373   0.279 122.739  0.00  0.00    +0.000 A 
ENDROOT
BRANCH  12  15
ATOM     15  C   UNL     1      -9.151  -3.230 124.218  0.00  0.00    +0.000 C 
ATOM     16  F   UNL     1      -7.992  -3.940 124.111  0.00  0.00    +0.000 F 
ATOM     17  F   UNL     1      -9.643  -3.490 125.457  0.00  0.00    +0.000 F 
ATOM     18  F   UNL     1     -10.018  -3.817 123.341  0.00  0.00    +0.000 F 
ENDBRANCH  12  15
BRANCH   1  19
ATOM     19  C   UNL     1      -7.594   0.714 127.304  0.00  0.00    +0.000 C 
BRANCH  19  20
ATOM     20  C   UNL     1      -8.529   1.556 128.153  0.00  0.00    +0.000 C 
BRANCH  20  21
ATOM     21  C   UNL     1      -7.853   2.452 129.159  0.00  0.00    +0.000 C 
BRANCH  21  26
ATOM     22  C   UNL     1      -8.627   6.699 131.140  0.00  0.00    +0.000 C 
ATOM     23  N   UNL     1      -8.880   5.272 131.244  0.00  0.00    +0.000 NA
ATOM     24  C   UNL     1      -7.624   4.514 131.406  0.00  0.00    +0.000 C 
ATOM     25  C   UNL     1      -7.888   2.994 131.512  0.00  0.00    +0.000 C 
ATOM     26  N   UNL     1      -8.678   2.468 130.385  0.00  0.00    +0.000 NA
ATOM     27  C   UNL     1      -9.915   3.280 130.250  0.00  0.00    +0.000 C 
ATOM     28  C   UNL     1      -9.619   4.779 130.071  0.00  0.00    +0.000 C 
ENDBRANCH  21  26
ENDBRANCH  20  21
ENDBRANCH  19  20
ENDBRANCH   1  19
TORSDOF 5
ENDMDL
MODEL 7
REMARK VINA RESULT:      -7.2      3.457      6.167
REMARK  Name = Trifluoperazine
REMARK  6 active torsions:
REMARK  status: ('A' for Active; 'I' for Inactive)
REMARK    1  A    between atoms: C_1  and  N_2
REMARK    2  A    between atoms: N_5  and  C_6
REMARK    3  A    between atoms: C_6  and  C_7
REMARK    4  A    between atoms: C_7  and  C_8
REMARK    5  A    between atoms: C_8  and  N_9
REMARK    6  A    between atoms: C_20  and  C_23
REMARK                            x       y       z     vdW  Elec       q    Type
REMARK                         _______ _______ _______ _____ _____    ______ ____
ROOT
ATOM      1  N   UNL     1      -6.276   3.021 123.831  0.00  0.00    +0.000 N 
ATOM      2  C   UNL     1      -6.341   3.618 122.551  0.00  0.00    +0.000 A 
ATOM      3  C   UNL     1      -5.225   4.255 121.986  0.00  0.00    +0.000 A 
ATOM      4  C   UNL     1      -5.223   4.645 120.647  0.00  0.00    +0.000 A 
ATOM      5  C   UNL     1      -6.352   4.435 119.858  0.00  0.00    +0.000 A 
ATOM      6  C   UNL     1      -7.489   3.850 120.410  0.00  0.00    +0.000 A 
ATOM      7  C   UNL     1      -7.489   3.440 121.745  0.00  0.00    +0.000 A 
ATOM      8  S   UNL     1      -8.965   2.656 122.399  0.00  0.00    +0.000 S 
ATOM      9  C   UNL     1      -8.185   1.507 123.523  0.00  0.00    +0.000 A 
ATOM     10  C   UNL     1      -6.921   1.793 124.072  0.00  0.00    +0.000 A 
ATOM     11  C   UNL     1      -6.302   0.764 124.787  0.00  0.00    +0.000 A 
ATOM     12  C   UNL     1      -6.979  -0.376 125.220  0.00  0.00    +0.000 A 
ATOM     13  C   UNL     1      -8.249  -0.623 124.694  0.00  0.00    +0.000 A 
ATOM     14  C   UNL     1      -8.826   0.297 123.814  0.00  0.00    +0.000 A 
ENDROOT
BRANCH  12  15
ATOM     15  C   UNL     1      -6.335  -1.289 126.229  0.00  0.00    +0.000 C 
ATOM     16  F   UNL     1      -6.359  -2.596 125.845  0.00  0.00    +0.000 F 
ATOM     17  F   UNL     1      -5.031  -0.982 126.454  0.00  0.00    +0.000 F 
ATOM     18  F   UNL     1      -6.942  -1.259 127.452  0.00  0.00    +0.000 F 
ENDBRANCH  12  15
BRANCH   1  19
ATOM     19  C   UNL     1      -5.410   3.684 124.840  0.00  0.00    +0.000 C 
BRANCH  19  20
ATOM     20  C   UNL     1      -6.178   4.448 125.903  0.00  0.00    +0.000 C 
BRANCH  20  21
ATOM     21  C   UNL     1      -5.597   4.377 127.293  0.00  0.00    +0.000 C 
BRANCH  21  26
ATOM     22  C   UNL     1      -3.277   5.003 131.390  0.00  0.00    +0.000 C 
ATOM     23  N   UNL     1      -3.149   4.962 129.943  0.00  0.00    +0.000 NA
ATOM     24  C   UNL     1      -3.968   6.009 129.301  0.00  0.00    +0.000 C 
ATOM     25  C   UNL     1      -3.840   5.966 127.761  0.00  0.00    +0.000 C 
ATOM     26  N   UNL     1      -4.146   4.640 127.196  0.00  0.00    +0.000 NA
ATOM     27  C   UNL     1      -3.317   3.622 127.892  0.00  0.00    +0.000 C 
ATOM     28  C   UNL     1      -3.521   3.638 129.417  0.00  0.00    +0.000 C 
ENDBRANCH  21  26
ENDBRANCH  20  21
ENDBRANCH  19  20
ENDBRANCH   1  19
TORSDOF 5
ENDMDL
MODEL 8
REMARK VINA RESULT:      -7.2      3.439      7.196
REMARK  Name = Trifluoperazine
REMARK  6 active torsions:
REMARK  status: ('A' for Active; 'I' for Inactive)
REMARK    1  A    between atoms: C_1  and  N_2
REMARK    2  A    between atoms: N_5  and  C_6
REMARK    3  A    between atoms: C_6  and  C_7
REMARK    4  A    between atoms: C_7  and  C_8
REMARK    5  A    between atoms: C_8  and  N_9
REMARK    6  A    between atoms: C_20  and  C_23
REMARK                            x       y       z     vdW  Elec       q    Type
REMARK                         _______ _______ _______ _____ _____    ______ ____
ROOT
ATOM      1  N   UNL     1      -7.878   1.383 125.665  0.00  0.00    +0.000 N 
ATOM      2  C   UNL     1      -7.048   2.464 125.286  0.00  0.00    +0.000 A 
ATOM      3  C   UNL     1      -5.951   2.851 126.071  0.00  0.00    +0.000 A 
ATOM      4  C   UNL     1      -5.011   3.762 125.591  0.00  0.00    +0.000 A 
ATOM      5  C   UNL     1      -5.171   4.329 124.328  0.00  0.00    +0.000 A 
ATOM      6  C   UNL     1      -6.279   3.998 123.552  0.00  0.00    +0.000 A 
ATOM      7  C   UNL     1      -7.213   3.071 124.020  0.00  0.00    +0.000 A 
ATOM      8  S   UNL     1      -8.602   2.648 122.966  0.00  0.00    +0.000 S 
ATOM      9  C   UNL     1      -8.778   0.931 123.426  0.00  0.00    +0.000 A 
ATOM     10  C   UNL     1      -8.359   0.486 124.693  0.00  0.00    +0.000 A 
ATOM     11  C   UNL     1      -8.356  -0.896 124.901  0.00  0.00    +0.000 A 
ATOM     12  C   UNL     1      -9.008  -1.794 124.057  0.00  0.00    +0.000 A 
ATOM     13  C   UNL     1      -9.452  -1.325 122.819  0.00  0.00    +0.000 A 
ATOM     14  C   UNL     1      -9.295   0.025 122.492  0.00  0.00    +0.000 A 
ENDROOT
BRANCH  12  15
ATOM     15  C   UNL     1      -9.217  -3.218 124.499  0.00  0.00    +0.000 C 
ATOM     16  F   UNL     1      -9.790  -3.306 125.732  0.00  0.00    +0.000 F 
ATOM     17  F   UNL     1     -10.021  -3.915 123.655  0.00  0.00    +0.000 F 
ATOM     18  F   UNL     1      -8.057  -3.934 124.586  0.00  0.00    +0.000 F 
ENDBRANCH  12  15
BRANCH   1  19
ATOM     19  C   UNL     1      -8.103   1.185 127.121  0.00  0.00    +0.000 C 
BRANCH  19  20
ATOM     20  C   UNL     1      -7.019   0.374 127.806  0.00  0.00    +0.000 C 
BRANCH  20  21
ATOM     21  C   UNL     1      -7.507  -0.609 128.840  0.00  0.00    +0.000 C 
BRANCH  21  26
ATOM     22  C   UNL     1      -5.273  -4.182 131.031  0.00  0.00    +0.000 C 
ATOM     23  N   UNL     1      -6.084  -3.809 129.884  0.00  0.00    +0.000 NA
ATOM     24  C   UNL     1      -5.396  -2.812 129.041  0.00  0.00    +0.000 C 
ATOM     25  C   UNL     1      -6.258  -2.407 127.822  0.00  0.00    +0.000 C 
ATOM     26  N   UNL     1      -7.602  -1.938 128.200  0.00  0.00    +0.000 NA
ATOM     27  C   UNL     1      -8.239  -2.963 129.066  0.00  0.00    +0.000 C 
ATOM     28  C   UNL     1      -7.395  -3.291 130.310  0.00  0.00    +0.000 C 
ENDBRANCH  21  26
ENDBRANCH  20  21
ENDBRANCH  19  20
ENDBRANCH   1  19
TORSDOF 5
ENDMDL
MODEL 9
REMARK VINA RESULT:      -7.1      3.473      5.956
REMARK  Name = Trifluoperazine
REMARK  6 active torsions:
REMARK  status: ('A' for Active; 'I' for Inactive)
REMARK    1  A    between atoms: C_1  and  N_2
REMARK    2  A    between atoms: N_5  and  C_6
REMARK    3  A    between atoms: C_6  and  C_7
REMARK    4  A    between atoms: C_7  and  C_8
REMARK    5  A    between atoms: C_8  and  N_9
REMARK    6  A    between atoms: C_20  and  C_23
REMARK                            x       y       z     vdW  Elec       q    Type
REMARK                         _______ _______ _______ _____ _____    ______ ____
ROOT
ATOM      1  N   UNL     1      -5.927   0.384 125.872  0.00  0.00    +0.000 N 
ATOM      2  C   UNL     1      -5.938   1.770 125.589  0.00  0.00    +0.000 A 
ATOM      3  C   UNL     1      -5.100   2.662 126.277  0.00  0.00    +0.000 A 
ATOM      4  C   UNL     1      -4.952   3.980 125.850  0.00  0.00    +0.000 A 
ATOM      5  C   UNL     1      -5.667   4.441 124.746  0.00  0.00    +0.000 A 
ATOM      6  C   UNL     1      -6.542   3.588 124.079  0.00  0.00    +0.000 A 
ATOM      7  C   UNL     1      -6.680   2.261 124.491  0.00  0.00    +0.000 A 
ATOM      8  S   UNL     1      -7.791   1.191 123.573  0.00  0.00    +0.000 S 
ATOM      9  C   UNL     1      -6.884  -0.340 123.730  0.00  0.00    +0.000 A 
ATOM     10  C   UNL     1      -6.027  -0.552 124.826  0.00  0.00    +0.000 A 
ATOM     11  C   UNL     1      -5.215  -1.688 124.774  0.00  0.00    +0.000 A 
ATOM     12  C   UNL     1      -5.425  -2.733 123.875  0.00  0.00    +0.000 A 
ATOM     13  C   UNL     1      -6.309  -2.518 122.815  0.00  0.00    +0.000 A 
ATOM     14  C   UNL     1      -7.000  -1.307 122.723  0.00  0.00    +0.000 A 
ENDROOT
BRANCH  12  15
ATOM     15  C   UNL     1      -4.709  -4.043 124.071  0.00  0.00    +0.000 C 
ATOM     16  F   UNL     1      -4.186  -4.172 125.323  0.00  0.00    +0.000 F 
ATOM     17  F   UNL     1      -5.522  -5.116 123.887  0.00  0.00    +0.000 F 
ATOM     18  F   UNL     1      -3.658  -4.220 123.218  0.00  0.00    +0.000 F 
ENDBRANCH  12  15
BRANCH   1  19
ATOM     19  C   UNL     1      -5.684  -0.013 127.284  0.00  0.00    +0.000 C 
BRANCH  19  20
ATOM     20  C   UNL     1      -6.952  -0.282 128.072  0.00  0.00    +0.000 C 
BRANCH  20  21
ATOM     21  C   UNL     1      -7.065   0.460 129.381  0.00  0.00    +0.000 C 
BRANCH  21  26
ATOM     22  C   UNL     1      -6.898   4.923 130.997  0.00  0.00    +0.000 C 
ATOM     23  N   UNL     1      -7.756   3.886 130.450  0.00  0.00    +0.000 NA
ATOM     24  C   UNL     1      -7.794   2.701 131.329  0.00  0.00    +0.000 C 
ATOM     25  C   UNL     1      -8.701   1.591 130.749  0.00  0.00    +0.000 C 
ATOM     26  N   UNL     1      -8.336   1.212 129.373  0.00  0.00    +0.000 NA
ATOM     27  C   UNL     1      -8.288   2.440 128.538  0.00  0.00    +0.000 C 
ATOM     28  C   UNL     1      -7.320   3.496 129.099  0.00  0.00    +0.000 C 
ENDBRANCH  21  26
ENDBRANCH  20  21
ENDBRANCH  19  20
ENDBRANCH   1  19
TORSDOF 5
ENDMDL
