MODEL 1
REMARK VINA RESULT:      -6.7      0.000      0.000
REMARK  Name = Trifluridine
REMARK  5 active torsions:
REMARK  status: ('A' for Active; 'I' for Inactive)
REMARK    1  A    between atoms: O5*_1  and  C5*_2
REMARK    2  A    between atoms: C5*_2  and  C4*_3
REMARK    3  A    between atoms: C1*_5  and  N_9
REMARK    4  A    between atoms: C3*_7  and  O3*_8
REMARK    5  A    between atoms: C_11  and  C_17
REMARK                            x       y       z     vdW  Elec       q    Type
REMARK                         _______ _______ _______ _____ _____    ______ ____
ROOT
ATOM      1  N   UNL     1     -10.585   5.940 130.175  0.00  0.00    +0.000 N 
ATOM      2  C   UNL     1      -9.395   6.579 130.475  0.00  0.00    +0.000 A 
ATOM      3  C   UNL     1      -8.303   5.926 130.885  0.00  0.00    +0.000 A 
ATOM      4  C   UNL     1      -8.419   4.493 131.154  0.00  0.00    +0.000 A 
ATOM      5  O   UNL     1      -7.455   3.802 131.466  0.00  0.00    +0.000 OA
ATOM      6  N   UNL     1      -9.678   3.972 131.042  0.00  0.00    +0.000 N 
ATOM      7  C   UNL     1     -10.742   4.578 130.418  0.00  0.00    +0.000 A 
ATOM      8  O   UNL     1     -11.737   3.926 130.120  0.00  0.00    +0.000 OA
ATOM      9  H   UNL     1      -9.777   2.985 131.228  0.00  0.00    +0.000 HD
ENDROOT
BRANCH   1  12
ATOM     10  C4* UNL     1     -11.950   7.443 127.329  0.00  0.00    +0.000 C 
ATOM     11  O4* UNL     1     -11.797   6.262 128.153  0.00  0.00    +0.000 OA
ATOM     12  C1* UNL     1     -11.680   6.668 129.533  0.00  0.00    +0.000 C 
ATOM     13  C2* UNL     1     -11.500   8.181 129.550  0.00  0.00    +0.000 C 
ATOM     14  C3* UNL     1     -12.193   8.613 128.283  0.00  0.00    +0.000 C 
BRANCH  14  15
ATOM     15  O3* UNL     1     -13.586   8.790 128.559  0.00  0.00    +0.000 OA
ATOM     16  H3* UNL     1     -13.723   9.637 129.015  0.00  0.00    +0.000 HD
ENDBRANCH  14  15
BRANCH  10  17
ATOM     17  C5* UNL     1     -10.688   7.566 126.468  0.00  0.00    +0.000 C 
BRANCH  17  18
ATOM     18  O5* UNL     1      -9.884   6.401 126.529  0.00  0.00    +0.000 OA
ATOM     19  H5* UNL     1      -8.960   6.693 126.628  0.00  0.00    +0.000 HD
ENDBRANCH  17  18
ENDBRANCH  10  17
ENDBRANCH   1  12
BRANCH   3  20
ATOM     20  C   UNL     1      -6.965   6.531 131.051  0.00  0.00    +0.000 C 
ATOM     21  F   UNL     1      -6.522   6.505 132.330  0.00  0.00    +0.000 F 
ATOM     22  F   UNL     1      -6.028   5.935 130.272  0.00  0.00    +0.000 F 
ATOM     23  F   UNL     1      -6.971   7.845 130.681  0.00  0.00    +0.000 F 
ENDBRANCH   3  20
TORSDOF 5
ENDMDL
MODEL 2
REMARK VINA RESULT:      -6.7      3.008      5.516
REMARK  Name = Trifluridine
REMARK  5 active torsions:
REMARK  status: ('A' for Active; 'I' for Inactive)
REMARK    1  A    between atoms: O5*_1  and  C5*_2
REMARK    2  A    between atoms: C5*_2  and  C4*_3
REMARK    3  A    between atoms: C1*_5  and  N_9
REMARK    4  A    between atoms: C3*_7  and  O3*_8
REMARK    5  A    between atoms: C_11  and  C_17
REMARK                            x       y       z     vdW  Elec       q    Type
REMARK                         _______ _______ _______ _____ _____    ______ ____
ROOT
ATOM      1  N   UNL     1     -11.433   6.398 130.573  0.00  0.00    +0.000 N 
ATOM      2  C   UNL     1     -11.021   6.395 129.253  0.00  0.00    +0.000 A 
ATOM      3  C   UNL     1     -11.616   7.128 128.305  0.00  0.00    +0.000 A 
ATOM      4  C   UNL     1     -12.833   7.856 128.662  0.00  0.00    +0.000 A 
ATOM      5  O   UNL     1     -13.404   8.607 127.877  0.00  0.00    +0.000 OA
ATOM      6  N   UNL     1     -13.300   7.640 129.928  0.00  0.00    +0.000 N 
ATOM      7  C   UNL     1     -12.587   7.074 130.958  0.00  0.00    +0.000 A 
ATOM      8  O   UNL     1     -12.982   7.180 132.114  0.00  0.00    +0.000 OA
ATOM      9  H   UNL     1     -14.143   8.131 130.190  0.00  0.00    +0.000 HD
ENDROOT
BRANCH   1  12
ATOM     10  C4* UNL     1      -8.352   5.966 132.170  0.00  0.00    +0.000 C 
ATOM     11  O4* UNL     1      -9.619   6.661 132.092  0.00  0.00    +0.000 OA
ATOM     12  C1* UNL     1     -10.625   5.747 131.606  0.00  0.00    +0.000 C 
ATOM     13  C2* UNL     1      -9.907   4.495 131.120  0.00  0.00    +0.000 C 
ATOM     14  C3* UNL     1      -8.655   4.481 131.960  0.00  0.00    +0.000 C 
BRANCH  14  15
ATOM     15  O3* UNL     1      -8.940   3.821 133.198  0.00  0.00    +0.000 OA
ATOM     16  H3* UNL     1      -8.559   4.330 133.934  0.00  0.00    +0.000 HD
ENDBRANCH  14  15
BRANCH  10  17
ATOM     17  C5* UNL     1      -7.425   6.587 131.119  0.00  0.00    +0.000 C 
BRANCH  17  18
ATOM     18  O5* UNL     1      -8.067   7.610 130.378  0.00  0.00    +0.000 OA
ATOM     19  H5* UNL     1      -9.014   7.579 130.605  0.00  0.00    +0.000 HD
ENDBRANCH  17  18
ENDBRANCH  10  17
ENDBRANCH   1  12
BRANCH   3  20
ATOM     20  C   UNL     1     -11.116   7.298 126.925  0.00  0.00    +0.000 C 
ATOM     21  F   UNL     1     -12.025   6.958 125.981  0.00  0.00    +0.000 F 
ATOM     22  F   UNL     1     -10.708   8.567 126.675  0.00  0.00    +0.000 F 
ATOM     23  F   UNL     1     -10.025   6.509 126.698  0.00  0.00    +0.000 F 
ENDBRANCH   3  20
TORSDOF 5
ENDMDL
MODEL 3
REMARK VINA RESULT:      -6.6      2.060      2.392
REMARK  Name = Trifluridine
REMARK  5 active torsions:
REMARK  status: ('A' for Active; 'I' for Inactive)
REMARK    1  A    between atoms: O5*_1  and  C5*_2
REMARK    2  A    between atoms: C5*_2  and  C4*_3
REMARK    3  A    between atoms: C1*_5  and  N_9
REMARK    4  A    between atoms: C3*_7  and  O3*_8
REMARK    5  A    between atoms: C_11  and  C_17
REMARK                            x       y       z     vdW  Elec       q    Type
REMARK                         _______ _______ _______ _____ _____    ______ ____
ROOT
ATOM      1  N   UNL     1     -11.316   6.163 130.446  0.00  0.00    +0.000 N 
ATOM      2  C   UNL     1     -10.339   5.320 129.948  0.00  0.00    +0.000 A 
ATOM      3  C   UNL     1      -9.588   4.537 130.730  0.00  0.00    +0.000 A 
ATOM      4  C   UNL     1      -9.721   4.683 132.179  0.00  0.00    +0.000 A 
ATOM      5  O   UNL     1      -9.125   3.959 132.971  0.00  0.00    +0.000 OA
ATOM      6  N   UNL     1     -10.550   5.685 132.598  0.00  0.00    +0.000 N 
ATOM      7  C   UNL     1     -11.477   6.335 131.818  0.00  0.00    +0.000 A 
ATOM      8  O   UNL     1     -12.359   7.009 132.339  0.00  0.00    +0.000 OA
ATOM      9  H   UNL     1     -10.650   5.803 133.596  0.00  0.00    +0.000 HD
ENDROOT
BRANCH   1  12
ATOM     10  C4* UNL     1     -12.054   7.442 127.277  0.00  0.00    +0.000 C 
ATOM     11  O4* UNL     1     -12.088   6.328 128.200  0.00  0.00    +0.000 OA
ATOM     12  C1* UNL     1     -12.248   6.838 129.541  0.00  0.00    +0.000 C 
ATOM     13  C2* UNL     1     -12.054   8.348 129.482  0.00  0.00    +0.000 C 
ATOM     14  C3* UNL     1     -12.469   8.681 128.071  0.00  0.00    +0.000 C 
BRANCH  14  15
ATOM     15  O3* UNL     1     -13.887   8.876 128.043  0.00  0.00    +0.000 OA
ATOM     16  H3* UNL     1     -14.335   8.014 128.095  0.00  0.00    +0.000 HD
ENDBRANCH  14  15
BRANCH  10  17
ATOM     17  C5* UNL     1     -10.641   7.502 126.685  0.00  0.00    +0.000 C 
BRANCH  17  18
ATOM     18  O5* UNL     1     -10.208   6.240 126.209  0.00  0.00    +0.000 OA
ATOM     19  H5* UNL     1      -9.839   5.757 126.970  0.00  0.00    +0.000 HD
ENDBRANCH  17  18
ENDBRANCH  10  17
ENDBRANCH   1  12
BRANCH   3  20
ATOM     20  C   UNL     1      -8.656   3.497 130.246  0.00  0.00    +0.000 C 
ATOM     21  F   UNL     1      -7.404   3.628 130.744  0.00  0.00    +0.000 F 
ATOM     22  F   UNL     1      -9.090   2.243 130.527  0.00  0.00    +0.000 F 
ATOM     23  F   UNL     1      -8.528   3.547 128.888  0.00  0.00    +0.000 F 
ENDBRANCH   3  20
TORSDOF 5
ENDMDL
MODEL 4
REMARK VINA RESULT:      -6.4      6.757      8.730
REMARK  Name = Trifluridine
REMARK  5 active torsions:
REMARK  status: ('A' for Active; 'I' for Inactive)
REMARK    1  A    between atoms: O5*_1  and  C5*_2
REMARK    2  A    between atoms: C5*_2  and  C4*_3
REMARK    3  A    between atoms: C1*_5  and  N_9
REMARK    4  A    between atoms: C3*_7  and  O3*_8
REMARK    5  A    between atoms: C_11  and  C_17
REMARK                            x       y       z     vdW  Elec       q    Type
REMARK                         _______ _______ _______ _____ _____    ______ ____
ROOT
ATOM      1  N   UNL     1      -6.708   3.799 124.675  0.00  0.00    +0.000 N 
ATOM      2  C   UNL     1      -5.716   3.940 123.722  0.00  0.00    +0.000 A 
ATOM      3  C   UNL     1      -5.965   3.933 122.409  0.00  0.00    +0.000 A 
ATOM      4  C   UNL     1      -7.326   3.631 121.969  0.00  0.00    +0.000 A 
ATOM      5  O   UNL     1      -7.660   3.673 120.789  0.00  0.00    +0.000 OA
ATOM      6  N   UNL     1      -8.205   3.292 122.959  0.00  0.00    +0.000 N 
ATOM      7  C   UNL     1      -8.017   3.508 124.303  0.00  0.00    +0.000 A 
ATOM      8  O   UNL     1      -8.964   3.433 125.079  0.00  0.00    +0.000 OA
ATOM      9  H   UNL     1      -9.148   3.075 122.672  0.00  0.00    +0.000 HD
ENDROOT
BRANCH   1  12
ATOM     10  C4* UNL     1      -4.378   4.259 127.242  0.00  0.00    +0.000 C 
ATOM     11  O4* UNL     1      -5.233   4.838 126.229  0.00  0.00    +0.000 OA
ATOM     12  C1* UNL     1      -6.416   4.022 126.093  0.00  0.00    +0.000 C 
ATOM     13  C2* UNL     1      -6.176   2.737 126.876  0.00  0.00    +0.000 C 
ATOM     14  C3* UNL     1      -5.199   3.173 127.938  0.00  0.00    +0.000 C 
BRANCH  14  15
ATOM     15  O3* UNL     1      -5.933   3.697 129.050  0.00  0.00    +0.000 OA
ATOM     16  H3* UNL     1      -6.385   4.516 128.784  0.00  0.00    +0.000 HD
ENDBRANCH  14  15
BRANCH  10  17
ATOM     17  C5* UNL     1      -3.112   3.755 126.537  0.00  0.00    +0.000 C 
BRANCH  17  18
ATOM     18  O5* UNL     1      -2.580   2.598 127.158  0.00  0.00    +0.000 OA
ATOM     19  H5* UNL     1      -2.773   1.843 126.572  0.00  0.00    +0.000 HD
ENDBRANCH  17  18
ENDBRANCH  10  17
ENDBRANCH   1  12
BRANCH   3  20
ATOM     20  C   UNL     1      -4.977   4.251 121.356  0.00  0.00    +0.000 C 
ATOM     21  F   UNL     1      -4.581   3.166 120.650  0.00  0.00    +0.000 F 
ATOM     22  F   UNL     1      -5.437   5.177 120.478  0.00  0.00    +0.000 F 
ATOM     23  F   UNL     1      -3.842   4.785 121.894  0.00  0.00    +0.000 F 
ENDBRANCH   3  20
TORSDOF 5
ENDMDL
MODEL 5
REMARK VINA RESULT:      -6.3      8.580      9.707
REMARK  Name = Trifluridine
REMARK  5 active torsions:
REMARK  status: ('A' for Active; 'I' for Inactive)
REMARK    1  A    between atoms: O5*_1  and  C5*_2
REMARK    2  A    between atoms: C5*_2  and  C4*_3
REMARK    3  A    between atoms: C1*_5  and  N_9
REMARK    4  A    between atoms: C3*_7  and  O3*_8
REMARK    5  A    between atoms: C_11  and  C_17
REMARK                            x       y       z     vdW  Elec       q    Type
REMARK                         _______ _______ _______ _____ _____    ______ ____
ROOT
ATOM      1  N   UNL     1      -7.910   0.953 123.584  0.00  0.00    +0.000 N 
ATOM      2  C   UNL     1      -6.901   0.024 123.766  0.00  0.00    +0.000 A 
ATOM      3  C   UNL     1      -7.056  -1.277 123.502  0.00  0.00    +0.000 A 
ATOM      4  C   UNL     1      -8.390  -1.749 123.132  0.00  0.00    +0.000 A 
ATOM      5  O   UNL     1      -8.609  -2.912 122.804  0.00  0.00    +0.000 OA
ATOM      6  N   UNL     1      -9.383  -0.811 123.181  0.00  0.00    +0.000 N 
ATOM      7  C   UNL     1      -9.195   0.549 123.235  0.00  0.00    +0.000 A 
ATOM      8  O   UNL     1     -10.125   1.311 122.990  0.00  0.00    +0.000 OA
ATOM      9  H   UNL     1     -10.311  -1.121 122.932  0.00  0.00    +0.000 HD
ENDROOT
BRANCH   1  12
ATOM     10  C4* UNL     1      -6.510   3.859 122.234  0.00  0.00    +0.000 C 
ATOM     11  O4* UNL     1      -7.657   2.988 122.374  0.00  0.00    +0.000 OA
ATOM     12  C1* UNL     1      -7.629   2.386 123.686  0.00  0.00    +0.000 C 
ATOM     13  C2* UNL     1      -6.272   2.700 124.303  0.00  0.00    +0.000 C 
ATOM     14  C3* UNL     1      -5.888   3.990 123.625  0.00  0.00    +0.000 C 
BRANCH  14  15
ATOM     15  O3* UNL     1      -6.457   5.081 124.357  0.00  0.00    +0.000 OA
ATOM     16  H3* UNL     1      -6.247   4.984 125.301  0.00  0.00    +0.000 HD
ENDBRANCH  14  15
BRANCH  10  17
ATOM     17  C5* UNL     1      -5.592   3.238 121.175  0.00  0.00    +0.000 C 
BRANCH  17  18
ATOM     18  O5* UNL     1      -5.187   4.182 120.199  0.00  0.00    +0.000 OA
ATOM     19  H5* UNL     1      -5.903   4.837 120.119  0.00  0.00    +0.000 HD
ENDBRANCH  17  18
ENDBRANCH  10  17
ENDBRANCH   1  12
BRANCH   3  20
ATOM     20  C   UNL     1      -5.971  -2.281 123.512  0.00  0.00    +0.000 C 
ATOM     21  F   UNL     1      -6.336  -3.457 124.073  0.00  0.00    +0.000 F 
ATOM     22  F   UNL     1      -5.494  -2.539 122.268  0.00  0.00    +0.000 F 
ATOM     23  F   UNL     1      -4.899  -1.837 124.232  0.00  0.00    +0.000 F 
ENDBRANCH   3  20
TORSDOF 5
ENDMDL
MODEL 6
REMARK VINA RESULT:      -6.3      3.146      5.351
REMARK  Name = Trifluridine
REMARK  5 active torsions:
REMARK  status: ('A' for Active; 'I' for Inactive)
REMARK    1  A    between atoms: O5*_1  and  C5*_2
REMARK    2  A    between atoms: C5*_2  and  C4*_3
REMARK    3  A    between atoms: C1*_5  and  N_9
REMARK    4  A    between atoms: C3*_7  and  O3*_8
REMARK    5  A    between atoms: C_11  and  C_17
REMARK                            x       y       z     vdW  Elec       q    Type
REMARK                         _______ _______ _______ _____ _____    ______ ____
ROOT
ATOM      1  N   UNL     1      -9.566   5.483 130.909  0.00  0.00    +0.000 N 
ATOM      2  C   UNL     1     -10.343   5.847 129.825  0.00  0.00    +0.000 A 
ATOM      3  C   UNL     1     -11.529   6.451 129.951  0.00  0.00    +0.000 A 
ATOM      4  C   UNL     1     -12.079   6.609 131.297  0.00  0.00    +0.000 A 
ATOM      5  O   UNL     1     -13.126   7.213 131.513  0.00  0.00    +0.000 OA
ATOM      6  N   UNL     1     -11.355   6.033 132.302  0.00  0.00    +0.000 N 
ATOM      7  C   UNL     1     -10.050   5.612 132.208  0.00  0.00    +0.000 A 
ATOM      8  O   UNL     1      -9.402   5.375 133.222  0.00  0.00    +0.000 OA
ATOM      9  H   UNL     1     -11.723   6.129 133.237  0.00  0.00    +0.000 HD
ENDROOT
BRANCH   1  12
ATOM     10  C4* UNL     1      -7.022   4.379 128.779  0.00  0.00    +0.000 C 
ATOM     11  O4* UNL     1      -7.690   5.478 129.444  0.00  0.00    +0.000 OA
ATOM     12  C1* UNL     1      -8.190   5.018 130.717  0.00  0.00    +0.000 C 
ATOM     13  C2* UNL     1      -8.050   3.502 130.743  0.00  0.00    +0.000 C 
ATOM     14  C3* UNL     1      -6.888   3.259 129.812  0.00  0.00    +0.000 C 
BRANCH  14  15
ATOM     15  O3* UNL     1      -5.671   3.371 130.558  0.00  0.00    +0.000 OA
ATOM     16  H3* UNL     1      -5.458   2.514 130.964  0.00  0.00    +0.000 HD
ENDBRANCH  14  15
BRANCH  10  17
ATOM     17  C5* UNL     1      -7.855   4.018 127.544  0.00  0.00    +0.000 C 
BRANCH  17  18
ATOM     18  O5* UNL     1      -8.507   5.147 126.991  0.00  0.00    +0.000 OA
ATOM     19  H5* UNL     1      -8.048   5.365 126.159  0.00  0.00    +0.000 HD
ENDBRANCH  17  18
ENDBRANCH  10  17
ENDBRANCH   1  12
BRANCH   3  20
ATOM     20  C   UNL     1     -12.318   7.015 128.836  0.00  0.00    +0.000 C 
ATOM     21  F   UNL     1     -13.526   6.424 128.683  0.00  0.00    +0.000 F 
ATOM     22  F   UNL     1     -12.518   8.351 128.968  0.00  0.00    +0.000 F 
ATOM     23  F   UNL     1     -11.668   6.857 127.646  0.00  0.00    +0.000 F 
ENDBRANCH   3  20
TORSDOF 5
ENDMDL
MODEL 7
REMARK VINA RESULT:      -6.3      3.368      5.599
REMARK  Name = Trifluridine
REMARK  5 active torsions:
REMARK  status: ('A' for Active; 'I' for Inactive)
REMARK    1  A    between atoms: O5*_1  and  C5*_2
REMARK    2  A    between atoms: C5*_2  and  C4*_3
REMARK    3  A    between atoms: C1*_5  and  N_9
REMARK    4  A    between atoms: C3*_7  and  O3*_8
REMARK    5  A    between atoms: C_11  and  C_17
REMARK                            x       y       z     vdW  Elec       q    Type
REMARK                         _______ _______ _______ _____ _____    ______ ____
ROOT
ATOM      1  N   UNL     1      -9.599   6.624 130.724  0.00  0.00    +0.000 N 
ATOM      2  C   UNL     1     -10.402   7.380 129.889  0.00  0.00    +0.000 A 
ATOM      3  C   UNL     1     -11.689   7.633 130.151  0.00  0.00    +0.000 A 
ATOM      4  C   UNL     1     -12.298   6.968 131.302  0.00  0.00    +0.000 A 
ATOM      5  O   UNL     1     -13.451   7.195 131.658  0.00  0.00    +0.000 OA
ATOM      6  N   UNL     1     -11.502   6.069 131.955  0.00  0.00    +0.000 N 
ATOM      7  C   UNL     1     -10.137   5.970 131.829  0.00  0.00    +0.000 A 
ATOM      8  O   UNL     1      -9.485   5.338 132.653  0.00  0.00    +0.000 OA
ATOM      9  H   UNL     1     -11.909   5.597 132.749  0.00  0.00    +0.000 HD
ENDROOT
BRANCH   1  12
ATOM     10  C4* UNL     1      -6.688   4.717 130.386  0.00  0.00    +0.000 C 
ATOM     11  O4* UNL     1      -7.829   5.355 129.764  0.00  0.00    +0.000 OA
ATOM     12  C1* UNL     1      -8.154   6.552 130.502  0.00  0.00    +0.000 C 
ATOM     13  C2* UNL     1      -7.340   6.530 131.789  0.00  0.00    +0.000 C 
ATOM     14  C3* UNL     1      -6.133   5.712 131.406  0.00  0.00    +0.000 C 
BRANCH  14  15
ATOM     15  O3* UNL     1      -5.157   6.580 130.819  0.00  0.00    +0.000 OA
ATOM     16  H3* UNL     1      -5.575   7.424 130.580  0.00  0.00    +0.000 HD
ENDBRANCH  14  15
BRANCH  10  17
ATOM     17  C5* UNL     1      -7.175   3.391 130.982  0.00  0.00    +0.000 C 
BRANCH  17  18
ATOM     18  O5* UNL     1      -8.533   3.133 130.672  0.00  0.00    +0.000 OA
ATOM     19  H5* UNL     1      -9.047   3.278 131.488  0.00  0.00    +0.000 HD
ENDBRANCH  17  18
ENDBRANCH  10  17
ENDBRANCH   1  12
BRANCH   3  20
ATOM     20  C   UNL     1     -12.542   8.570 129.391  0.00  0.00    +0.000 C 
ATOM     21  F   UNL     1     -13.624   7.977 128.834  0.00  0.00    +0.000 F 
ATOM     22  F   UNL     1     -12.977   9.605 130.152  0.00  0.00    +0.000 F 
ATOM     23  F   UNL     1     -11.850   9.136 128.359  0.00  0.00    +0.000 F 
ENDBRANCH   3  20
TORSDOF 5
ENDMDL
MODEL 8
REMARK VINA RESULT:      -6.2      7.657      8.551
REMARK  Name = Trifluridine
REMARK  5 active torsions:
REMARK  status: ('A' for Active; 'I' for Inactive)
REMARK    1  A    between atoms: O5*_1  and  C5*_2
REMARK    2  A    between atoms: C5*_2  and  C4*_3
REMARK    3  A    between atoms: C1*_5  and  N_9
REMARK    4  A    between atoms: C3*_7  and  O3*_8
REMARK    5  A    between atoms: C_11  and  C_17
REMARK                            x       y       z     vdW  Elec       q    Type
REMARK                         _______ _______ _______ _____ _____    ______ ____
ROOT
ATOM      1  N   UNL     1      -7.900   0.326 126.358  0.00  0.00    +0.000 N 
ATOM      2  C   UNL     1      -8.475  -0.874 125.984  0.00  0.00    +0.000 A 
ATOM      3  C   UNL     1      -8.338  -1.998 126.696  0.00  0.00    +0.000 A 
ATOM      4  C   UNL     1      -7.432  -1.978 127.843  0.00  0.00    +0.000 A 
ATOM      5  O   UNL     1      -7.298  -2.940 128.594  0.00  0.00    +0.000 OA
ATOM      6  N   UNL     1      -6.734  -0.817 128.024  0.00  0.00    +0.000 N 
ATOM      7  C   UNL     1      -7.028   0.393 127.440  0.00  0.00    +0.000 A 
ATOM      8  O   UNL     1      -6.531   1.426 127.875  0.00  0.00    +0.000 OA
ATOM      9  H   UNL     1      -6.100  -0.787 128.809  0.00  0.00    +0.000 HD
ENDROOT
BRANCH   1  12
ATOM     10  C4* UNL     1      -9.650   1.975 123.818  0.00  0.00    +0.000 C 
ATOM     11  O4* UNL     1      -9.609   1.495 125.183  0.00  0.00    +0.000 OA
ATOM     12  C1* UNL     1      -8.250   1.567 125.664  0.00  0.00    +0.000 C 
ATOM     13  C2* UNL     1      -7.358   1.869 124.466  0.00  0.00    +0.000 C 
ATOM     14  C3* UNL     1      -8.287   2.610 123.538  0.00  0.00    +0.000 C 
BRANCH  14  15
ATOM     15  O3* UNL     1      -8.271   3.999 123.883  0.00  0.00    +0.000 OA
ATOM     16  H3* UNL     1      -7.481   4.420 123.502  0.00  0.00    +0.000 HD
ENDBRANCH  14  15
BRANCH  10  17
ATOM     17  C5* UNL     1      -9.998   0.779 122.924  0.00  0.00    +0.000 C 
BRANCH  17  18
ATOM     18  O5* UNL     1     -11.397   0.601 122.791  0.00  0.00    +0.000 OA
ATOM     19  H5* UNL     1     -11.766   0.547 123.691  0.00  0.00    +0.000 HD
ENDBRANCH  17  18
ENDBRANCH  10  17
ENDBRANCH   1  12
BRANCH   3  20
ATOM     20  C   UNL     1      -9.066  -3.258 126.442  0.00  0.00    +0.000 C 
ATOM     21  F   UNL     1      -9.446  -3.895 127.574  0.00  0.00    +0.000 F 
ATOM     22  F   UNL     1     -10.170  -3.072 125.676  0.00  0.00    +0.000 F 
ATOM     23  F   UNL     1      -8.287  -4.145 125.755  0.00  0.00    +0.000 F 
ENDBRANCH   3  20
TORSDOF 5
ENDMDL
MODEL 9
REMARK VINA RESULT:      -6.0      7.703      9.036
REMARK  Name = Trifluridine
REMARK  5 active torsions:
REMARK  status: ('A' for Active; 'I' for Inactive)
REMARK    1  A    between atoms: O5*_1  and  C5*_2
REMARK    2  A    between atoms: C5*_2  and  C4*_3
REMARK    3  A    between atoms: C1*_5  and  N_9
REMARK    4  A    between atoms: C3*_7  and  O3*_8
REMARK    5  A    between atoms: C_11  and  C_17
REMARK                            x       y       z     vdW  Elec       q    Type
REMARK                         _______ _______ _______ _____ _____    ______ ____
ROOT
ATOM      1  N   UNL     1      -8.791   0.465 124.491  0.00  0.00    +0.000 N 
ATOM      2  C   UNL     1      -7.487   0.753 124.853  0.00  0.00    +0.000 A 
ATOM      3  C   UNL     1      -7.071   1.990 125.144  0.00  0.00    +0.000 A 
ATOM      4  C   UNL     1      -8.006   3.096 124.940  0.00  0.00    +0.000 A 
ATOM      5  O   UNL     1      -7.734   4.252 125.247  0.00  0.00    +0.000 OA
ATOM      6  N   UNL     1      -9.205   2.759 124.377  0.00  0.00    +0.000 N 
ATOM      7  C   UNL     1      -9.714   1.485 124.283  0.00  0.00    +0.000 A 
ATOM      8  O   UNL     1     -10.901   1.312 124.027  0.00  0.00    +0.000 OA
ATOM      9  H   UNL     1      -9.861   3.510 124.225  0.00  0.00    +0.000 HD
ENDROOT
BRANCH   1  12
ATOM     10  C4* UNL     1      -8.073  -2.957 124.528  0.00  0.00    +0.000 C 
ATOM     11  O4* UNL     1      -8.455  -1.765 125.254  0.00  0.00    +0.000 OA
ATOM     12  C1* UNL     1      -9.245  -0.923 124.388  0.00  0.00    +0.000 C 
ATOM     13  C2* UNL     1      -9.143  -1.495 122.979  0.00  0.00    +0.000 C 
ATOM     14  C3* UNL     1      -8.885  -2.959 123.232  0.00  0.00    +0.000 C 
BRANCH  14  15
ATOM     15  O3* UNL     1     -10.141  -3.625 123.397  0.00  0.00    +0.000 OA
ATOM     16  H3* UNL     1     -10.028  -4.395 123.979  0.00  0.00    +0.000 HD
ENDBRANCH  14  15
BRANCH  10  17
ATOM     17  C5* UNL     1      -6.553  -2.906 124.335  0.00  0.00    +0.000 C 
BRANCH  17  18
ATOM     18  O5* UNL     1      -5.882  -2.454 125.497  0.00  0.00    +0.000 OA
ATOM     19  H5* UNL     1      -6.233  -1.570 125.706  0.00  0.00    +0.000 HD
ENDBRANCH  17  18
ENDBRANCH  10  17
ENDBRANCH   1  12
BRANCH   3  20
ATOM     20  C   UNL     1      -5.745   2.330 125.700  0.00  0.00    +0.000 C 
ATOM     21  F   UNL     1      -5.812   2.964 126.895  0.00  0.00    +0.000 F 
ATOM     22  F   UNL     1      -4.951   1.240 125.849  0.00  0.00    +0.000 F 
ATOM     23  F   UNL     1      -5.064   3.170 124.867  0.00  0.00    +0.000 F 
ENDBRANCH   3  20
TORSDOF 5
ENDMDL
