MODEL 1
REMARK VINA RESULT:      -6.7      0.000      0.000
REMARK  Name = Triflusal
REMARK  6 active torsions:
REMARK  status: ('A' for Active; 'I' for Inactive)
REMARK    1  A    between atoms: C_1  and  C_2
REMARK    2  A    between atoms: C_2  and  O_4
REMARK    3  A    between atoms: O_4  and  C_5
REMARK    4  A    between atoms: C_6  and  C_15
REMARK    5  A    between atoms: C_9  and  C_11
REMARK    6  A    between atoms: C_15  and  O_16
REMARK                            x       y       z     vdW  Elec       q    Type
REMARK                         _______ _______ _______ _____ _____    ______ ____
ROOT
ATOM      1  C   UNL     1      -7.816  -2.789 124.500  0.00  0.00    +0.000 A 
ATOM      2  C   UNL     1      -8.044  -1.815 123.506  0.00  0.00    +0.000 A 
ATOM      3  C   UNL     1      -7.067  -1.655 122.503  0.00  0.00    +0.000 A 
ATOM      4  C   UNL     1      -5.849  -2.344 122.566  0.00  0.00    +0.000 A 
ATOM      5  C   UNL     1      -5.619  -3.286 123.573  0.00  0.00    +0.000 A 
ATOM      6  C   UNL     1      -6.624  -3.526 124.513  0.00  0.00    +0.000 A 
ENDROOT
BRANCH   5   7
ATOM      7  C   UNL     1      -4.332  -4.071 123.612  0.00  0.00    +0.000 C 
ATOM      8  F   UNL     1      -3.281  -3.337 123.155  0.00  0.00    +0.000 F 
ATOM      9  F   UNL     1      -3.996  -4.467 124.869  0.00  0.00    +0.000 F 
ATOM     10  F   UNL     1      -4.358  -5.199 122.851  0.00  0.00    +0.000 F 
ENDBRANCH   5   7
BRANCH   2  11
ATOM     11  C   UNL     1      -9.247  -0.926 123.584  0.00  0.00    +0.000 C 
ATOM     12  O   UNL     1     -10.036  -0.794 122.658  0.00  0.00    +0.000 OA
BRANCH  11  13
ATOM     13  O   UNL     1      -9.472  -0.304 124.761  0.00  0.00    +0.000 OA
ATOM     14  H   UNL     1     -10.146   0.391 124.820  0.00  0.00    +0.000 HD
ENDBRANCH  11  13
ENDBRANCH   2  11
BRANCH   1  15
ATOM     15  O   UNL     1      -8.829  -3.120 125.439  0.00  0.00    +0.000 OA
BRANCH  15  17
ATOM     16  C   UNL     1      -8.948  -3.960 127.674  0.00  0.00    +0.000 C 
ATOM     17  C   UNL     1      -8.622  -2.799 126.781  0.00  0.00    +0.000 C 
ATOM     18  O   UNL     1      -8.213  -1.726 127.208  0.00  0.00    +0.000 OA
ENDBRANCH  15  17
ENDBRANCH   1  15
TORSDOF 5
ENDMDL
MODEL 2
REMARK VINA RESULT:      -6.3     11.257     12.805
REMARK  Name = Triflusal
REMARK  6 active torsions:
REMARK  status: ('A' for Active; 'I' for Inactive)
REMARK    1  A    between atoms: C_1  and  C_2
REMARK    2  A    between atoms: C_2  and  O_4
REMARK    3  A    between atoms: O_4  and  C_5
REMARK    4  A    between atoms: C_6  and  C_15
REMARK    5  A    between atoms: C_9  and  C_11
REMARK    6  A    between atoms: C_15  and  O_16
REMARK                            x       y       z     vdW  Elec       q    Type
REMARK                         _______ _______ _______ _____ _____    ______ ____
ROOT
ATOM      1  C   UNL     1     -10.019   6.629 130.357  0.00  0.00    +0.000 A 
ATOM      2  C   UNL     1     -10.617   6.362 131.606  0.00  0.00    +0.000 A 
ATOM      3  C   UNL     1     -11.953   6.769 131.797  0.00  0.00    +0.000 A 
ATOM      4  C   UNL     1     -12.620   7.531 130.830  0.00  0.00    +0.000 A 
ATOM      5  C   UNL     1     -12.008   7.819 129.607  0.00  0.00    +0.000 A 
ATOM      6  C   UNL     1     -10.721   7.331 129.368  0.00  0.00    +0.000 A 
ENDROOT
BRANCH   5   7
ATOM      7  C   UNL     1     -12.743   8.591 128.541  0.00  0.00    +0.000 C 
ATOM      8  F   UNL     1     -11.986   8.746 127.420  0.00  0.00    +0.000 F 
ATOM      9  F   UNL     1     -13.887   7.975 128.141  0.00  0.00    +0.000 F 
ATOM     10  F   UNL     1     -13.100   9.847 128.926  0.00  0.00    +0.000 F 
ENDBRANCH   5   7
BRANCH   2  11
ATOM     11  C   UNL     1      -9.814   5.749 132.711  0.00  0.00    +0.000 C 
ATOM     12  O   UNL     1      -8.904   6.342 133.277  0.00  0.00    +0.000 OA
BRANCH  11  13
ATOM     13  O   UNL     1     -10.172   4.511 133.114  0.00  0.00    +0.000 OA
ATOM     14  H   UNL     1      -9.545   3.775 133.033  0.00  0.00    +0.000 HD
ENDBRANCH  11  13
ENDBRANCH   2  11
BRANCH   1  15
ATOM     15  O   UNL     1      -8.739   6.101 130.037  0.00  0.00    +0.000 OA
BRANCH  15  17
ATOM     16  C   UNL     1      -8.635   3.716 129.924  0.00  0.00    +0.000 C 
ATOM     17  C   UNL     1      -8.667   5.012 129.168  0.00  0.00    +0.000 C 
ATOM     18  O   UNL     1      -8.649   5.070 127.945  0.00  0.00    +0.000 OA
ENDBRANCH  15  17
ENDBRANCH   1  15
TORSDOF 5
ENDMDL
MODEL 3
REMARK VINA RESULT:      -5.9      2.544      3.782
REMARK  Name = Triflusal
REMARK  6 active torsions:
REMARK  status: ('A' for Active; 'I' for Inactive)
REMARK    1  A    between atoms: C_1  and  C_2
REMARK    2  A    between atoms: C_2  and  O_4
REMARK    3  A    between atoms: O_4  and  C_5
REMARK    4  A    between atoms: C_6  and  C_15
REMARK    5  A    between atoms: C_9  and  C_11
REMARK    6  A    between atoms: C_15  and  O_16
REMARK                            x       y       z     vdW  Elec       q    Type
REMARK                         _______ _______ _______ _____ _____    ______ ____
ROOT
ATOM      1  C   UNL     1      -7.820   0.150 123.945  0.00  0.00    +0.000 A 
ATOM      2  C   UNL     1      -8.955  -0.279 123.226  0.00  0.00    +0.000 A 
ATOM      3  C   UNL     1      -9.041  -1.643 122.881  0.00  0.00    +0.000 A 
ATOM      4  C   UNL     1      -7.973  -2.516 123.124  0.00  0.00    +0.000 A 
ATOM      5  C   UNL     1      -6.838  -2.075 123.810  0.00  0.00    +0.000 A 
ATOM      6  C   UNL     1      -6.789  -0.750 124.248  0.00  0.00    +0.000 A 
ENDROOT
BRANCH   5   7
ATOM      7  C   UNL     1      -5.711  -3.027 124.124  0.00  0.00    +0.000 C 
ATOM      8  F   UNL     1      -6.117  -4.324 124.060  0.00  0.00    +0.000 F 
ATOM      9  F   UNL     1      -4.671  -2.914 123.255  0.00  0.00    +0.000 F 
ATOM     10  F   UNL     1      -5.187  -2.860 125.369  0.00  0.00    +0.000 F 
ENDBRANCH   5   7
BRANCH   2  11
ATOM     11  C   UNL     1      -9.980   0.715 122.774  0.00  0.00    +0.000 C 
ATOM     12  O   UNL     1     -11.181   0.482 122.785  0.00  0.00    +0.000 OA
BRANCH  11  13
ATOM     13  O   UNL     1      -9.528   1.931 122.398  0.00  0.00    +0.000 OA
ATOM     14  H   UNL     1      -8.620   2.032 122.072  0.00  0.00    +0.000 HD
ENDBRANCH  11  13
ENDBRANCH   2  11
BRANCH   1  15
ATOM     15  O   UNL     1      -7.747   1.467 124.471  0.00  0.00    +0.000 OA
BRANCH  15  17
ATOM     16  C   UNL     1      -5.855   2.772 125.131  0.00  0.00    +0.000 C 
ATOM     17  C   UNL     1      -6.740   2.313 124.008  0.00  0.00    +0.000 C 
ATOM     18  O   UNL     1      -6.560   2.645 122.842  0.00  0.00    +0.000 OA
ENDBRANCH  15  17
ENDBRANCH   1  15
TORSDOF 5
ENDMDL
MODEL 4
REMARK VINA RESULT:      -5.8     11.296     12.812
REMARK  Name = Triflusal
REMARK  6 active torsions:
REMARK  status: ('A' for Active; 'I' for Inactive)
REMARK    1  A    between atoms: C_1  and  C_2
REMARK    2  A    between atoms: C_2  and  O_4
REMARK    3  A    between atoms: O_4  and  C_5
REMARK    4  A    between atoms: C_6  and  C_15
REMARK    5  A    between atoms: C_9  and  C_11
REMARK    6  A    between atoms: C_15  and  O_16
REMARK                            x       y       z     vdW  Elec       q    Type
REMARK                         _______ _______ _______ _____ _____    ______ ____
ROOT
ATOM      1  C   UNL     1      -9.547   6.862 130.681  0.00  0.00    +0.000 A 
ATOM      2  C   UNL     1     -10.293   6.196 131.676  0.00  0.00    +0.000 A 
ATOM      3  C   UNL     1     -11.699   6.257 131.597  0.00  0.00    +0.000 A 
ATOM      4  C   UNL     1     -12.334   7.061 130.642  0.00  0.00    +0.000 A 
ATOM      5  C   UNL     1     -11.585   7.743 129.678  0.00  0.00    +0.000 A 
ATOM      6  C   UNL     1     -10.195   7.606 129.685  0.00  0.00    +0.000 A 
ENDROOT
BRANCH   5   7
ATOM      7  C   UNL     1     -12.267   8.564 128.614  0.00  0.00    +0.000 C 
ATOM      8  F   UNL     1     -13.452   8.012 128.236  0.00  0.00    +0.000 F 
ATOM      9  F   UNL     1     -12.555   9.827 129.028  0.00  0.00    +0.000 F 
ATOM     10  F   UNL     1     -11.536   8.695 127.473  0.00  0.00    +0.000 F 
ENDBRANCH   5   7
BRANCH   2  11
ATOM     11  C   UNL     1      -9.596   5.532 132.822  0.00  0.00    +0.000 C 
ATOM     12  O   UNL     1      -9.452   4.319 132.899  0.00  0.00    +0.000 OA
BRANCH  11  13
ATOM     13  O   UNL     1      -9.063   6.339 133.766  0.00  0.00    +0.000 OA
ATOM     14  H   UNL     1      -8.131   6.603 133.707  0.00  0.00    +0.000 HD
ENDBRANCH  11  13
ENDBRANCH   2  11
BRANCH   1  15
ATOM     15  O   UNL     1      -8.138   6.704 130.602  0.00  0.00    +0.000 OA
BRANCH  15  17
ATOM     16  C   UNL     1      -6.480   4.994 130.812  0.00  0.00    +0.000 C 
ATOM     17  C   UNL     1      -7.631   5.542 130.019  0.00  0.00    +0.000 C 
ATOM     18  O   UNL     1      -8.055   5.003 129.005  0.00  0.00    +0.000 OA
ENDBRANCH  15  17
ENDBRANCH   1  15
TORSDOF 5
ENDMDL
MODEL 5
REMARK VINA RESULT:      -5.8      5.318      6.710
REMARK  Name = Triflusal
REMARK  6 active torsions:
REMARK  status: ('A' for Active; 'I' for Inactive)
REMARK    1  A    between atoms: C_1  and  C_2
REMARK    2  A    between atoms: C_2  and  O_4
REMARK    3  A    between atoms: O_4  and  C_5
REMARK    4  A    between atoms: C_6  and  C_15
REMARK    5  A    between atoms: C_9  and  C_11
REMARK    6  A    between atoms: C_15  and  O_16
REMARK                            x       y       z     vdW  Elec       q    Type
REMARK                         _______ _______ _______ _____ _____    ______ ____
ROOT
ATOM      1  C   UNL     1      -8.025   3.161 123.860  0.00  0.00    +0.000 A 
ATOM      2  C   UNL     1      -7.440   3.896 124.912  0.00  0.00    +0.000 A 
ATOM      3  C   UNL     1      -6.233   4.575 124.650  0.00  0.00    +0.000 A 
ATOM      4  C   UNL     1      -5.567   4.416 123.428  0.00  0.00    +0.000 A 
ATOM      5  C   UNL     1      -6.139   3.660 122.401  0.00  0.00    +0.000 A 
ATOM      6  C   UNL     1      -7.386   3.067 122.616  0.00  0.00    +0.000 A 
ENDROOT
BRANCH   5   7
ATOM      7  C   UNL     1      -5.453   3.533 121.065  0.00  0.00    +0.000 C 
ATOM      8  F   UNL     1      -4.208   4.083 121.085  0.00  0.00    +0.000 F 
ATOM      9  F   UNL     1      -5.286   2.239 120.680  0.00  0.00    +0.000 F 
ATOM     10  F   UNL     1      -6.116   4.149 120.049  0.00  0.00    +0.000 F 
ENDBRANCH   5   7
BRANCH   2  11
ATOM     11  C   UNL     1      -8.047   3.867 126.280  0.00  0.00    +0.000 C 
ATOM     12  O   UNL     1      -8.337   4.883 126.899  0.00  0.00    +0.000 OA
BRANCH  11  13
ATOM     13  O   UNL     1      -8.328   2.653 126.800  0.00  0.00    +0.000 OA
ATOM     14  H   UNL     1      -8.812   2.000 126.270  0.00  0.00    +0.000 HD
ENDBRANCH  11  13
ENDBRANCH   2  11
BRANCH   1  15
ATOM     15  O   UNL     1      -9.320   2.594 124.002  0.00  0.00    +0.000 OA
BRANCH  15  17
ATOM     16  C   UNL     1     -10.192   0.766 122.732  0.00  0.00    +0.000 C 
ATOM     17  C   UNL     1      -9.446   1.206 123.958  0.00  0.00    +0.000 C 
ATOM     18  O   UNL     1      -9.004   0.418 124.785  0.00  0.00    +0.000 OA
ENDBRANCH  15  17
ENDBRANCH   1  15
TORSDOF 5
ENDMDL
MODEL 6
REMARK VINA RESULT:      -5.7      4.206      5.733
REMARK  Name = Triflusal
REMARK  6 active torsions:
REMARK  status: ('A' for Active; 'I' for Inactive)
REMARK    1  A    between atoms: C_1  and  C_2
REMARK    2  A    between atoms: C_2  and  O_4
REMARK    3  A    between atoms: O_4  and  C_5
REMARK    4  A    between atoms: C_6  and  C_15
REMARK    5  A    between atoms: C_9  and  C_11
REMARK    6  A    between atoms: C_15  and  O_16
REMARK                            x       y       z     vdW  Elec       q    Type
REMARK                         _______ _______ _______ _____ _____    ______ ____
ROOT
ATOM      1  C   UNL     1      -8.106  -1.709 126.920  0.00  0.00    +0.000 A 
ATOM      2  C   UNL     1      -8.628  -2.979 126.598  0.00  0.00    +0.000 A 
ATOM      3  C   UNL     1      -8.875  -3.879 127.655  0.00  0.00    +0.000 A 
ATOM      4  C   UNL     1      -8.489  -3.573 128.966  0.00  0.00    +0.000 A 
ATOM      5  C   UNL     1      -7.943  -2.323 129.272  0.00  0.00    +0.000 A 
ATOM      6  C   UNL     1      -7.790  -1.386 128.247  0.00  0.00    +0.000 A 
ENDROOT
BRANCH   5   7
ATOM      7  C   UNL     1      -7.578  -1.970 130.692  0.00  0.00    +0.000 C 
ATOM      8  F   UNL     1      -8.381  -0.989 131.187  0.00  0.00    +0.000 F 
ATOM      9  F   UNL     1      -7.701  -3.023 131.543  0.00  0.00    +0.000 F 
ATOM     10  F   UNL     1      -6.303  -1.514 130.830  0.00  0.00    +0.000 F 
ENDBRANCH   5   7
BRANCH   2  11
ATOM     11  C   UNL     1      -8.820  -3.373 125.166  0.00  0.00    +0.000 C 
ATOM     12  O   UNL     1      -8.092  -4.176 124.596  0.00  0.00    +0.000 OA
BRANCH  11  13
ATOM     13  O   UNL     1      -9.884  -2.847 124.523  0.00  0.00    +0.000 OA
ATOM     14  H   UNL     1     -10.149  -3.197 123.658  0.00  0.00    +0.000 HD
ENDBRANCH  11  13
ENDBRANCH   2  11
BRANCH   1  15
ATOM     15  O   UNL     1      -7.992  -0.698 125.930  0.00  0.00    +0.000 OA
BRANCH  15  17
ATOM     16  C   UNL     1      -8.476   1.631 126.177  0.00  0.00    +0.000 C 
ATOM     17  C   UNL     1      -8.999   0.264 125.842  0.00  0.00    +0.000 C 
ATOM     18  O   UNL     1     -10.162   0.058 125.520  0.00  0.00    +0.000 OA
ENDBRANCH  15  17
ENDBRANCH   1  15
TORSDOF 5
ENDMDL
MODEL 7
REMARK VINA RESULT:      -5.6      3.519      4.763
REMARK  Name = Triflusal
REMARK  6 active torsions:
REMARK  status: ('A' for Active; 'I' for Inactive)
REMARK    1  A    between atoms: C_1  and  C_2
REMARK    2  A    between atoms: C_2  and  O_4
REMARK    3  A    between atoms: O_4  and  C_5
REMARK    4  A    between atoms: C_6  and  C_15
REMARK    5  A    between atoms: C_9  and  C_11
REMARK    6  A    between atoms: C_15  and  O_16
REMARK                            x       y       z     vdW  Elec       q    Type
REMARK                         _______ _______ _______ _____ _____    ______ ____
ROOT
ATOM      1  C   UNL     1      -8.208  -0.939 125.471  0.00  0.00    +0.000 A 
ATOM      2  C   UNL     1      -8.843  -1.845 124.597  0.00  0.00    +0.000 A 
ATOM      3  C   UNL     1      -9.301  -3.067 125.131  0.00  0.00    +0.000 A 
ATOM      4  C   UNL     1      -9.014  -3.427 126.453  0.00  0.00    +0.000 A 
ATOM      5  C   UNL     1      -8.356  -2.535 127.306  0.00  0.00    +0.000 A 
ATOM      6  C   UNL     1      -7.990  -1.280 126.813  0.00  0.00    +0.000 A 
ENDROOT
BRANCH   5   7
ATOM      7  C   UNL     1      -8.097  -2.897 128.746  0.00  0.00    +0.000 C 
ATOM      8  F   UNL     1      -8.088  -1.797 129.547  0.00  0.00    +0.000 F 
ATOM      9  F   UNL     1      -9.044  -3.728 129.258  0.00  0.00    +0.000 F 
ATOM     10  F   UNL     1      -6.900  -3.514 128.946  0.00  0.00    +0.000 F 
ENDBRANCH   5   7
BRANCH   2  11
ATOM     11  C   UNL     1      -8.936  -1.540 123.134  0.00  0.00    +0.000 C 
ATOM     12  O   UNL     1      -8.226  -2.083 122.297  0.00  0.00    +0.000 OA
BRANCH  11  13
ATOM     13  O   UNL     1      -9.893  -0.668 122.749  0.00  0.00    +0.000 OA
ATOM     14  H   UNL     1     -10.181   0.033 123.355  0.00  0.00    +0.000 HD
ENDBRANCH  11  13
ENDBRANCH   2  11
BRANCH   1  15
ATOM     15  O   UNL     1      -7.874   0.373 125.042  0.00  0.00    +0.000 OA
BRANCH  15  17
ATOM     16  C   UNL     1      -8.090   2.394 126.300  0.00  0.00    +0.000 C 
ATOM     17  C   UNL     1      -8.740   1.418 125.364  0.00  0.00    +0.000 C 
ATOM     18  O   UNL     1      -9.881   1.562 124.941  0.00  0.00    +0.000 OA
ENDBRANCH  15  17
ENDBRANCH   1  15
TORSDOF 5
ENDMDL
MODEL 8
REMARK VINA RESULT:      -5.6      3.238      4.798
REMARK  Name = Triflusal
REMARK  6 active torsions:
REMARK  status: ('A' for Active; 'I' for Inactive)
REMARK    1  A    between atoms: C_1  and  C_2
REMARK    2  A    between atoms: C_2  and  O_4
REMARK    3  A    between atoms: O_4  and  C_5
REMARK    4  A    between atoms: C_6  and  C_15
REMARK    5  A    between atoms: C_9  and  C_11
REMARK    6  A    between atoms: C_15  and  O_16
REMARK                            x       y       z     vdW  Elec       q    Type
REMARK                         _______ _______ _______ _____ _____    ______ ____
ROOT
ATOM      1  C   UNL     1      -8.976  -1.208 125.495  0.00  0.00    +0.000 A 
ATOM      2  C   UNL     1      -8.405   0.026 125.869  0.00  0.00    +0.000 A 
ATOM      3  C   UNL     1      -7.686   0.080 127.081  0.00  0.00    +0.000 A 
ATOM      4  C   UNL     1      -7.654  -1.019 127.949  0.00  0.00    +0.000 A 
ATOM      5  C   UNL     1      -8.249  -2.230 127.583  0.00  0.00    +0.000 A 
ATOM      6  C   UNL     1      -8.876  -2.323 126.338  0.00  0.00    +0.000 A 
ENDROOT
BRANCH   5   7
ATOM      7  C   UNL     1      -8.168  -3.431 128.490  0.00  0.00    +0.000 C 
ATOM      8  F   UNL     1      -8.889  -3.250 129.631  0.00  0.00    +0.000 F 
ATOM      9  F   UNL     1      -8.657  -4.561 127.912  0.00  0.00    +0.000 F 
ATOM     10  F   UNL     1      -6.902  -3.727 128.893  0.00  0.00    +0.000 F 
ENDBRANCH   5   7
BRANCH   2  11
ATOM     11  C   UNL     1      -8.644   1.250 125.040  0.00  0.00    +0.000 C 
ATOM     12  O   UNL     1      -9.172   2.260 125.486  0.00  0.00    +0.000 OA
BRANCH  11  13
ATOM     13  O   UNL     1      -8.195   1.224 123.767  0.00  0.00    +0.000 OA
ATOM     14  H   UNL     1      -8.295   0.420 123.234  0.00  0.00    +0.000 HD
ENDBRANCH  11  13
ENDBRANCH   2  11
BRANCH   1  15
ATOM     15  O   UNL     1      -9.567  -1.376 124.214  0.00  0.00    +0.000 OA
BRANCH  15  17
ATOM     16  C   UNL     1      -7.789  -2.127 122.803  0.00  0.00    +0.000 C 
ATOM     17  C   UNL     1      -9.127  -2.429 123.412  0.00  0.00    +0.000 C 
ATOM     18  O   UNL     1      -9.721  -3.483 123.222  0.00  0.00    +0.000 OA
ENDBRANCH  15  17
ENDBRANCH   1  15
TORSDOF 5
ENDMDL
MODEL 9
REMARK VINA RESULT:      -5.5      4.516      5.731
REMARK  Name = Triflusal
REMARK  6 active torsions:
REMARK  status: ('A' for Active; 'I' for Inactive)
REMARK    1  A    between atoms: C_1  and  C_2
REMARK    2  A    between atoms: C_2  and  O_4
REMARK    3  A    between atoms: O_4  and  C_5
REMARK    4  A    between atoms: C_6  and  C_15
REMARK    5  A    between atoms: C_9  and  C_11
REMARK    6  A    between atoms: C_15  and  O_16
REMARK                            x       y       z     vdW  Elec       q    Type
REMARK                         _______ _______ _______ _____ _____    ______ ____
ROOT
ATOM      1  C   UNL     1      -7.769   0.857 123.866  0.00  0.00    +0.000 A 
ATOM      2  C   UNL     1      -8.850   1.212 123.033  0.00  0.00    +0.000 A 
ATOM      3  C   UNL     1      -8.844   2.498 122.457  0.00  0.00    +0.000 A 
ATOM      4  C   UNL     1      -7.868   3.440 122.807  0.00  0.00    +0.000 A 
ATOM      5  C   UNL     1      -6.816   3.089 123.659  0.00  0.00    +0.000 A 
ATOM      6  C   UNL     1      -6.758   1.784 124.153  0.00  0.00    +0.000 A 
ENDROOT
BRANCH   5   7
ATOM      7  C   UNL     1      -5.733   4.083 123.993  0.00  0.00    +0.000 C 
ATOM      8  F   UNL     1      -4.859   3.584 124.909  0.00  0.00    +0.000 F 
ATOM      9  F   UNL     1      -4.986   4.430 122.911  0.00  0.00    +0.000 F 
ATOM     10  F   UNL     1      -6.203   5.245 124.521  0.00  0.00    +0.000 F 
ENDBRANCH   5   7
BRANCH   2  11
ATOM     11  C   UNL     1     -10.002   0.273 122.853  0.00  0.00    +0.000 C 
ATOM     12  O   UNL     1     -11.169   0.643 122.875  0.00  0.00    +0.000 OA
BRANCH  11  13
ATOM     13  O   UNL     1      -9.705  -1.020 122.600  0.00  0.00    +0.000 OA
ATOM     14  H   UNL     1     -10.058  -1.719 123.173  0.00  0.00    +0.000 HD
ENDBRANCH  11  13
ENDBRANCH   2  11
BRANCH   1  15
ATOM     15  O   UNL     1      -7.625  -0.474 124.342  0.00  0.00    +0.000 OA
BRANCH  15  17
ATOM     16  C   UNL     1      -5.600  -1.677 124.750  0.00  0.00    +0.000 C 
ATOM     17  C   UNL     1      -6.655  -1.289 123.757  0.00  0.00    +0.000 C 
ATOM     18  O   UNL     1      -6.646  -1.670 122.593  0.00  0.00    +0.000 OA
ENDBRANCH  15  17
ENDBRANCH   1  15
TORSDOF 5
ENDMDL
