MODEL 1
REMARK VINA RESULT:      -7.0      0.000      0.000
REMARK  Name = Triflupromazine
REMARK  7 active torsions:
REMARK  status: ('A' for Active; 'I' for Inactive)
REMARK    1  A    between atoms: C_1  and  N_2
REMARK    2  A    between atoms: N_2  and  C_3
REMARK    3  A    between atoms: N_2  and  C_4
REMARK    4  A    between atoms: C_4  and  C_5
REMARK    5  A    between atoms: C_5  and  C_6
REMARK    6  A    between atoms: C_6  and  N_7
REMARK    7  A    between atoms: C_18  and  C_21
REMARK                            x       y       z     vdW  Elec       q    Type
REMARK                         _______ _______ _______ _____ _____    ______ ____
ROOT
ATOM      1  N   UNL     1      -5.798   0.371 125.845  0.00  0.00    +0.000 N 
ATOM      2  C   UNL     1      -5.851   1.740 125.471  0.00  0.00    +0.000 A 
ATOM      3  C   UNL     1      -4.949   2.666 126.029  0.00  0.00    +0.000 A 
ATOM      4  C   UNL     1      -4.923   4.008 125.655  0.00  0.00    +0.000 A 
ATOM      5  C   UNL     1      -5.734   4.440 124.628  0.00  0.00    +0.000 A 
ATOM      6  C   UNL     1      -6.591   3.538 123.995  0.00  0.00    +0.000 A 
ATOM      7  C   UNL     1      -6.657   2.197 124.418  0.00  0.00    +0.000 A 
ATOM      8  S   UNL     1      -7.748   1.091 123.537  0.00  0.00    +0.000 S 
ATOM      9  C   UNL     1      -6.819  -0.421 123.736  0.00  0.00    +0.000 A 
ATOM     10  C   UNL     1      -6.027  -0.646 124.879  0.00  0.00    +0.000 A 
ATOM     11  C   UNL     1      -5.304  -1.845 124.967  0.00  0.00    +0.000 A 
ATOM     12  C   UNL     1      -5.351  -2.803 123.943  0.00  0.00    +0.000 A 
ATOM     13  C   UNL     1      -6.142  -2.555 122.814  0.00  0.00    +0.000 A 
ATOM     14  C   UNL     1      -6.877  -1.374 122.714  0.00  0.00    +0.000 A 
ENDROOT
BRANCH  12  15
ATOM     15  C   UNL     1      -4.540  -4.068 124.041  0.00  0.00    +0.000 C 
ATOM     16  F   UNL     1      -3.454  -4.047 123.221  0.00  0.00    +0.000 F 
ATOM     17  F   UNL     1      -4.062  -4.287 125.296  0.00  0.00    +0.000 F 
ATOM     18  F   UNL     1      -5.237  -5.190 123.706  0.00  0.00    +0.000 F 
ENDBRANCH  12  15
BRANCH   1  19
ATOM     19  C   UNL     1      -6.126  -0.038 127.250  0.00  0.00    +0.000 C 
BRANCH  19  20
ATOM     20  C   UNL     1      -7.571  -0.478 127.404  0.00  0.00    +0.000 C 
BRANCH  20  21
ATOM     21  C   UNL     1      -7.848  -1.792 128.100  0.00  0.00    +0.000 C 
BRANCH  21  23
ATOM     22  C   UNL     1      -8.886  -3.929 127.770  0.00  0.00    +0.000 C 
ATOM     23  N   UNL     1      -8.242  -2.806 127.096  0.00  0.00    +0.000 NA
ATOM     24  C   UNL     1      -9.137  -2.281 126.056  0.00  0.00    +0.000 C 
ENDBRANCH  21  23
ENDBRANCH  20  21
ENDBRANCH  19  20
ENDBRANCH   1  19
TORSDOF 5
ENDMDL
MODEL 2
REMARK VINA RESULT:      -6.8      8.919     10.646
REMARK  Name = Triflupromazine
REMARK  7 active torsions:
REMARK  status: ('A' for Active; 'I' for Inactive)
REMARK    1  A    between atoms: C_1  and  N_2
REMARK    2  A    between atoms: N_2  and  C_3
REMARK    3  A    between atoms: N_2  and  C_4
REMARK    4  A    between atoms: C_4  and  C_5
REMARK    5  A    between atoms: C_5  and  C_6
REMARK    6  A    between atoms: C_6  and  N_7
REMARK    7  A    between atoms: C_18  and  C_21
REMARK                            x       y       z     vdW  Elec       q    Type
REMARK                         _______ _______ _______ _____ _____    ______ ____
ROOT
ATOM      1  N   UNL     1      -8.670   5.900 130.044  0.00  0.00    +0.000 N 
ATOM      2  C   UNL     1      -7.712   5.873 131.092  0.00  0.00    +0.000 A 
ATOM      3  C   UNL     1      -6.376   6.247 130.846  0.00  0.00    +0.000 A 
ATOM      4  C   UNL     1      -5.411   6.290 131.851  0.00  0.00    +0.000 A 
ATOM      5  C   UNL     1      -5.785   6.061 133.157  0.00  0.00    +0.000 A 
ATOM      6  C   UNL     1      -7.114   5.761 133.456  0.00  0.00    +0.000 A 
ATOM      7  C   UNL     1      -8.073   5.658 132.430  0.00  0.00    +0.000 A 
ATOM      8  S   UNL     1      -9.763   5.308 132.890  0.00  0.00    +0.000 S 
ATOM      9  C   UNL     1     -10.589   6.190 131.576  0.00  0.00    +0.000 A 
ATOM     10  C   UNL     1     -10.003   6.319 130.301  0.00  0.00    +0.000 A 
ATOM     11  C   UNL     1     -10.693   7.043 129.317  0.00  0.00    +0.000 A 
ATOM     12  C   UNL     1     -11.935   7.639 129.585  0.00  0.00    +0.000 A 
ATOM     13  C   UNL     1     -12.496   7.500 130.861  0.00  0.00    +0.000 A 
ATOM     14  C   UNL     1     -11.830   6.776 131.849  0.00  0.00    +0.000 A 
ENDROOT
BRANCH  12  15
ATOM     15  C   UNL     1     -12.643   8.439 128.525  0.00  0.00    +0.000 C 
ATOM     16  F   UNL     1     -11.836   8.712 127.463  0.00  0.00    +0.000 F 
ATOM     17  F   UNL     1     -13.729   7.794 128.018  0.00  0.00    +0.000 F 
ATOM     18  F   UNL     1     -13.098   9.646 128.965  0.00  0.00    +0.000 F 
ENDBRANCH  12  15
BRANCH   1  19
ATOM     19  C   UNL     1      -8.540   4.963 128.881  0.00  0.00    +0.000 C 
BRANCH  19  20
ATOM     20  C   UNL     1      -8.250   3.537 129.314  0.00  0.00    +0.000 C 
BRANCH  20  21
ATOM     21  C   UNL     1      -9.387   2.717 129.881  0.00  0.00    +0.000 C 
BRANCH  21  23
ATOM     22  C   UNL     1      -7.516   2.170 131.279  0.00  0.00    +0.000 C 
ATOM     23  N   UNL     1      -8.852   1.750 130.866  0.00  0.00    +0.000 NA
ATOM     24  C   UNL     1      -9.704   1.591 132.052  0.00  0.00    +0.000 C 
ENDBRANCH  21  23
ENDBRANCH  20  21
ENDBRANCH  19  20
ENDBRANCH   1  19
TORSDOF 5
ENDMDL
MODEL 3
REMARK VINA RESULT:      -6.7      2.903      5.345
REMARK  Name = Triflupromazine
REMARK  7 active torsions:
REMARK  status: ('A' for Active; 'I' for Inactive)
REMARK    1  A    between atoms: C_1  and  N_2
REMARK    2  A    between atoms: N_2  and  C_3
REMARK    3  A    between atoms: N_2  and  C_4
REMARK    4  A    between atoms: C_4  and  C_5
REMARK    5  A    between atoms: C_5  and  C_6
REMARK    6  A    between atoms: C_6  and  N_7
REMARK    7  A    between atoms: C_18  and  C_21
REMARK                            x       y       z     vdW  Elec       q    Type
REMARK                         _______ _______ _______ _____ _____    ______ ____
ROOT
ATOM      1  N   UNL     1      -6.432  -1.311 126.134  0.00  0.00    +0.000 N 
ATOM      2  C   UNL     1      -6.919  -1.588 124.829  0.00  0.00    +0.000 A 
ATOM      3  C   UNL     1      -6.051  -1.543 123.720  0.00  0.00    +0.000 A 
ATOM      4  C   UNL     1      -6.466  -1.861 122.428  0.00  0.00    +0.000 A 
ATOM      5  C   UNL     1      -7.744  -2.337 122.226  0.00  0.00    +0.000 A 
ATOM      6  C   UNL     1      -8.614  -2.468 123.309  0.00  0.00    +0.000 A 
ATOM      7  C   UNL     1      -8.210  -2.088 124.603  0.00  0.00    +0.000 A 
ATOM      8  S   UNL     1      -9.363  -2.320 125.947  0.00  0.00    +0.000 S 
ATOM      9  C   UNL     1      -8.192  -2.635 127.257  0.00  0.00    +0.000 A 
ATOM     10  C   UNL     1      -6.912  -2.046 127.250  0.00  0.00    +0.000 A 
ATOM     11  C   UNL     1      -6.030  -2.350 128.298  0.00  0.00    +0.000 A 
ATOM     12  C   UNL     1      -6.396  -3.227 129.330  0.00  0.00    +0.000 A 
ATOM     13  C   UNL     1      -7.673  -3.803 129.313  0.00  0.00    +0.000 A 
ATOM     14  C   UNL     1      -8.567  -3.505 128.287  0.00  0.00    +0.000 A 
ENDROOT
BRANCH  12  15
ATOM     15  C   UNL     1      -5.422  -3.566 130.427  0.00  0.00    +0.000 C 
ATOM     16  F   UNL     1      -4.132  -3.554 129.990  0.00  0.00    +0.000 F 
ATOM     17  F   UNL     1      -5.477  -2.690 131.466  0.00  0.00    +0.000 F 
ATOM     18  F   UNL     1      -5.619  -4.801 130.969  0.00  0.00    +0.000 F 
ENDBRANCH  12  15
BRANCH   1  19
ATOM     19  C   UNL     1      -5.939   0.064 126.476  0.00  0.00    +0.000 C 
BRANCH  19  20
ATOM     20  C   UNL     1      -6.816   1.157 125.894  0.00  0.00    +0.000 C 
BRANCH  20  21
ATOM     21  C   UNL     1      -8.129   1.461 126.580  0.00  0.00    +0.000 C 
BRANCH  21  23
ATOM     22  C   UNL     1      -8.255   3.294 125.038  0.00  0.00    +0.000 C 
ATOM     23  N   UNL     1      -9.008   2.204 125.649  0.00  0.00    +0.000 NA
ATOM     24  C   UNL     1      -9.590   1.360 124.596  0.00  0.00    +0.000 C 
ENDBRANCH  21  23
ENDBRANCH  20  21
ENDBRANCH  19  20
ENDBRANCH   1  19
TORSDOF 5
ENDMDL
MODEL 4
REMARK VINA RESULT:      -6.6      2.514      4.291
REMARK  Name = Triflupromazine
REMARK  7 active torsions:
REMARK  status: ('A' for Active; 'I' for Inactive)
REMARK    1  A    between atoms: C_1  and  N_2
REMARK    2  A    between atoms: N_2  and  C_3
REMARK    3  A    between atoms: N_2  and  C_4
REMARK    4  A    between atoms: C_4  and  C_5
REMARK    5  A    between atoms: C_5  and  C_6
REMARK    6  A    between atoms: C_6  and  N_7
REMARK    7  A    between atoms: C_18  and  C_21
REMARK                            x       y       z     vdW  Elec       q    Type
REMARK                         _______ _______ _______ _____ _____    ______ ____
ROOT
ATOM      1  N   UNL     1      -6.724   1.673 123.447  0.00  0.00    +0.000 N 
ATOM      2  C   UNL     1      -7.150   2.568 122.429  0.00  0.00    +0.000 A 
ATOM      3  C   UNL     1      -6.207   3.317 121.699  0.00  0.00    +0.000 A 
ATOM      4  C   UNL     1      -6.568   4.166 120.655  0.00  0.00    +0.000 A 
ATOM      5  C   UNL     1      -7.882   4.207 120.241  0.00  0.00    +0.000 A 
ATOM      6  C   UNL     1      -8.838   3.424 120.888  0.00  0.00    +0.000 A 
ATOM      7  C   UNL     1      -8.479   2.614 121.982  0.00  0.00    +0.000 A 
ATOM      8  S   UNL     1      -9.747   1.609 122.737  0.00  0.00    +0.000 S 
ATOM      9  C   UNL     1      -8.730   0.239 123.263  0.00  0.00    +0.000 A 
ATOM     10  C   UNL     1      -7.383   0.428 123.628  0.00  0.00    +0.000 A 
ATOM     11  C   UNL     1      -6.630  -0.693 124.012  0.00  0.00    +0.000 A 
ATOM     12  C   UNL     1      -7.190  -1.980 124.024  0.00  0.00    +0.000 A 
ATOM     13  C   UNL     1      -8.530  -2.143 123.653  0.00  0.00    +0.000 A 
ATOM     14  C   UNL     1      -9.298  -1.040 123.279  0.00  0.00    +0.000 A 
ENDROOT
BRANCH  12  15
ATOM     15  C   UNL     1      -6.355  -3.173 124.406  0.00  0.00    +0.000 C 
ATOM     16  F   UNL     1      -5.791  -3.033 125.637  0.00  0.00    +0.000 F 
ATOM     17  F   UNL     1      -7.077  -4.325 124.450  0.00  0.00    +0.000 F 
ATOM     18  F   UNL     1      -5.322  -3.413 123.550  0.00  0.00    +0.000 F 
ENDBRANCH  12  15
BRANCH   1  19
ATOM     19  C   UNL     1      -6.068   2.202 124.687  0.00  0.00    +0.000 C 
BRANCH  19  20
ATOM     20  C   UNL     1      -6.924   3.231 125.403  0.00  0.00    +0.000 C 
BRANCH  20  21
ATOM     21  C   UNL     1      -6.270   4.518 125.851  0.00  0.00    +0.000 C 
BRANCH  21  23
ATOM     22  C   UNL     1      -7.698   4.022 127.714  0.00  0.00    +0.000 C 
ATOM     23  N   UNL     1      -6.461   4.684 127.310  0.00  0.00    +0.000 NA
ATOM     24  C   UNL     1      -5.343   4.163 128.109  0.00  0.00    +0.000 C 
ENDBRANCH  21  23
ENDBRANCH  20  21
ENDBRANCH  19  20
ENDBRANCH   1  19
TORSDOF 5
ENDMDL
MODEL 5
REMARK VINA RESULT:      -6.5      3.078      4.000
REMARK  Name = Triflupromazine
REMARK  7 active torsions:
REMARK  status: ('A' for Active; 'I' for Inactive)
REMARK    1  A    between atoms: C_1  and  N_2
REMARK    2  A    between atoms: N_2  and  C_3
REMARK    3  A    between atoms: N_2  and  C_4
REMARK    4  A    between atoms: C_4  and  C_5
REMARK    5  A    between atoms: C_5  and  C_6
REMARK    6  A    between atoms: C_6  and  N_7
REMARK    7  A    between atoms: C_18  and  C_21
REMARK                            x       y       z     vdW  Elec       q    Type
REMARK                         _______ _______ _______ _____ _____    ______ ____
ROOT
ATOM      1  N   UNL     1      -7.009   0.846 126.460  0.00  0.00    +0.000 N 
ATOM      2  C   UNL     1      -6.074   1.889 126.225  0.00  0.00    +0.000 A 
ATOM      3  C   UNL     1      -4.809   1.864 126.845  0.00  0.00    +0.000 A 
ATOM      4  C   UNL     1      -3.836   2.832 126.605  0.00  0.00    +0.000 A 
ATOM      5  C   UNL     1      -4.066   3.800 125.651  0.00  0.00    +0.000 A 
ATOM      6  C   UNL     1      -5.277   3.817 124.958  0.00  0.00    +0.000 A 
ATOM      7  C   UNL     1      -6.281   2.873 125.248  0.00  0.00    +0.000 A 
ATOM      8  S   UNL     1      -7.790   2.931 124.295  0.00  0.00    +0.000 S 
ATOM      9  C   UNL     1      -8.191   1.192 124.316  0.00  0.00    +0.000 A 
ATOM     10  C   UNL     1      -7.836   0.373 125.406  0.00  0.00    +0.000 A 
ATOM     11  C   UNL     1      -8.160  -0.991 125.352  0.00  0.00    +0.000 A 
ATOM     12  C   UNL     1      -8.812  -1.543 124.239  0.00  0.00    +0.000 A 
ATOM     13  C   UNL     1      -9.151  -0.710 123.166  0.00  0.00    +0.000 A 
ATOM     14  C   UNL     1      -8.848   0.650 123.205  0.00  0.00    +0.000 A 
ENDROOT
BRANCH  12  15
ATOM     15  C   UNL     1      -9.120  -3.016 124.187  0.00  0.00    +0.000 C 
ATOM     16  F   UNL     1      -9.987  -3.325 123.184  0.00  0.00    +0.000 F 
ATOM     17  F   UNL     1      -8.012  -3.776 123.977  0.00  0.00    +0.000 F 
ATOM     18  F   UNL     1      -9.689  -3.495 125.329  0.00  0.00    +0.000 F 
ENDBRANCH  12  15
BRANCH   1  19
ATOM     19  C   UNL     1      -7.596   0.656 127.827  0.00  0.00    +0.000 C 
BRANCH  19  20
ATOM     20  C   UNL     1      -8.679   1.671 128.140  0.00  0.00    +0.000 C 
BRANCH  20  21
ATOM     21  C   UNL     1      -8.705   2.285 129.522  0.00  0.00    +0.000 C 
BRANCH  21  23
ATOM     22  C   UNL     1     -10.466   3.474 130.636  0.00  0.00    +0.000 C 
ATOM     23  N   UNL     1      -9.547   3.503 129.502  0.00  0.00    +0.000 NA
ATOM     24  C   UNL     1      -8.771   4.750 129.531  0.00  0.00    +0.000 C 
ENDBRANCH  21  23
ENDBRANCH  20  21
ENDBRANCH  19  20
ENDBRANCH   1  19
TORSDOF 5
ENDMDL
MODEL 6
REMARK VINA RESULT:      -6.5      3.139      5.255
REMARK  Name = Triflupromazine
REMARK  7 active torsions:
REMARK  status: ('A' for Active; 'I' for Inactive)
REMARK    1  A    between atoms: C_1  and  N_2
REMARK    2  A    between atoms: N_2  and  C_3
REMARK    3  A    between atoms: N_2  and  C_4
REMARK    4  A    between atoms: C_4  and  C_5
REMARK    5  A    between atoms: C_5  and  C_6
REMARK    6  A    between atoms: C_6  and  N_7
REMARK    7  A    between atoms: C_18  and  C_21
REMARK                            x       y       z     vdW  Elec       q    Type
REMARK                         _______ _______ _______ _____ _____    ______ ____
ROOT
ATOM      1  N   UNL     1      -7.621   0.434 126.918  0.00  0.00    +0.000 N 
ATOM      2  C   UNL     1      -7.922   0.813 128.253  0.00  0.00    +0.000 A 
ATOM      3  C   UNL     1      -8.434   2.095 128.531  0.00  0.00    +0.000 A 
ATOM      4  C   UNL     1      -8.797   2.496 129.815  0.00  0.00    +0.000 A 
ATOM      5  C   UNL     1      -8.757   1.583 130.846  0.00  0.00    +0.000 A 
ATOM      6  C   UNL     1      -8.328   0.278 130.600  0.00  0.00    +0.000 A 
ATOM      7  C   UNL     1      -7.903  -0.105 129.314  0.00  0.00    +0.000 A 
ATOM      8  S   UNL     1      -7.403  -1.802 129.064  0.00  0.00    +0.000 S 
ATOM      9  C   UNL     1      -7.904  -1.983 127.360  0.00  0.00    +0.000 A 
ATOM     10  C   UNL     1      -7.883  -0.889 126.472  0.00  0.00    +0.000 A 
ATOM     11  C   UNL     1      -8.309  -1.093 125.150  0.00  0.00    +0.000 A 
ATOM     12  C   UNL     1      -8.758  -2.347 124.712  0.00  0.00    +0.000 A 
ATOM     13  C   UNL     1      -8.774  -3.418 125.614  0.00  0.00    +0.000 A 
ATOM     14  C   UNL     1      -8.344  -3.239 126.928  0.00  0.00    +0.000 A 
ENDROOT
BRANCH  12  15
ATOM     15  C   UNL     1      -9.243  -2.535 123.299  0.00  0.00    +0.000 C 
ATOM     16  F   UNL     1      -8.216  -2.714 122.423  0.00  0.00    +0.000 F 
ATOM     17  F   UNL     1     -10.051  -3.621 123.162  0.00  0.00    +0.000 F 
ATOM     18  F   UNL     1      -9.957  -1.476 122.822  0.00  0.00    +0.000 F 
ENDBRANCH  12  15
BRANCH   1  19
ATOM     19  C   UNL     1      -6.517   1.121 126.172  0.00  0.00    +0.000 C 
BRANCH  19  20
ATOM     20  C   UNL     1      -6.993   1.736 124.869  0.00  0.00    +0.000 C 
BRANCH  20  21
ATOM     21  C   UNL     1      -8.016   2.848 124.935  0.00  0.00    +0.000 C 
BRANCH  21  23
ATOM     22  C   UNL     1      -7.595   3.224 122.603  0.00  0.00    +0.000 C 
ATOM     23  N   UNL     1      -8.639   3.021 123.603  0.00  0.00    +0.000 NA
ATOM     24  C   UNL     1      -9.487   1.889 123.204  0.00  0.00    +0.000 C 
ENDBRANCH  21  23
ENDBRANCH  20  21
ENDBRANCH  19  20
ENDBRANCH   1  19
TORSDOF 5
ENDMDL
MODEL 7
REMARK VINA RESULT:      -6.4      2.780      5.660
REMARK  Name = Triflupromazine
REMARK  7 active torsions:
REMARK  status: ('A' for Active; 'I' for Inactive)
REMARK    1  A    between atoms: C_1  and  N_2
REMARK    2  A    between atoms: N_2  and  C_3
REMARK    3  A    between atoms: N_2  and  C_4
REMARK    4  A    between atoms: C_4  and  C_5
REMARK    5  A    between atoms: C_5  and  C_6
REMARK    6  A    between atoms: C_6  and  N_7
REMARK    7  A    between atoms: C_18  and  C_21
REMARK                            x       y       z     vdW  Elec       q    Type
REMARK                         _______ _______ _______ _____ _____    ______ ____
ROOT
ATOM      1  N   UNL     1      -6.038  -1.474 126.134  0.00  0.00    +0.000 N 
ATOM      2  C   UNL     1      -6.636  -1.654 124.859  0.00  0.00    +0.000 A 
ATOM      3  C   UNL     1      -5.834  -1.775 123.707  0.00  0.00    +0.000 A 
ATOM      4  C   UNL     1      -6.369  -2.009 122.441  0.00  0.00    +0.000 A 
ATOM      5  C   UNL     1      -7.722  -2.235 122.310  0.00  0.00    +0.000 A 
ATOM      6  C   UNL     1      -8.544  -2.199 123.437  0.00  0.00    +0.000 A 
ATOM      7  C   UNL     1      -8.008  -1.902 124.704  0.00  0.00    +0.000 A 
ATOM      8  S   UNL     1      -9.112  -1.911 126.108  0.00  0.00    +0.000 S 
ATOM      9  C   UNL     1      -7.955  -2.441 127.360  0.00  0.00    +0.000 A 
ATOM     10  C   UNL     1      -6.589  -2.105 127.281  0.00  0.00    +0.000 A 
ATOM     11  C   UNL     1      -5.727  -2.570 128.286  0.00  0.00    +0.000 A 
ATOM     12  C   UNL     1      -6.197  -3.361 129.344  0.00  0.00    +0.000 A 
ATOM     13  C   UNL     1      -7.559  -3.685 129.399  0.00  0.00    +0.000 A 
ATOM     14  C   UNL     1      -8.434  -3.224 128.417  0.00  0.00    +0.000 A 
ENDROOT
BRANCH  12  15
ATOM     15  C   UNL     1      -5.249  -3.878 130.393  0.00  0.00    +0.000 C 
ATOM     16  F   UNL     1      -3.955  -3.863 129.968  0.00  0.00    +0.000 F 
ATOM     17  F   UNL     1      -5.280  -3.141 131.536  0.00  0.00    +0.000 F 
ATOM     18  F   UNL     1      -5.500  -5.163 130.770  0.00  0.00    +0.000 F 
ENDBRANCH  12  15
BRANCH   1  19
ATOM     19  C   UNL     1      -5.276  -0.218 126.437  0.00  0.00    +0.000 C 
BRANCH  19  20
ATOM     20  C   UNL     1      -6.102   1.033 126.198  0.00  0.00    +0.000 C 
BRANCH  20  21
ATOM     21  C   UNL     1      -5.377   2.311 125.841  0.00  0.00    +0.000 C 
BRANCH  21  23
ATOM     22  C   UNL     1      -3.212   2.956 126.647  0.00  0.00    +0.000 C 
ATOM     23  N   UNL     1      -4.614   2.788 127.016  0.00  0.00    +0.000 NA
ATOM     24  C   UNL     1      -5.128   4.045 127.576  0.00  0.00    +0.000 C 
ENDBRANCH  21  23
ENDBRANCH  20  21
ENDBRANCH  19  20
ENDBRANCH   1  19
TORSDOF 5
ENDMDL
MODEL 8
REMARK VINA RESULT:      -6.4      1.528      2.564
REMARK  Name = Triflupromazine
REMARK  7 active torsions:
REMARK  status: ('A' for Active; 'I' for Inactive)
REMARK    1  A    between atoms: C_1  and  N_2
REMARK    2  A    between atoms: N_2  and  C_3
REMARK    3  A    between atoms: N_2  and  C_4
REMARK    4  A    between atoms: C_4  and  C_5
REMARK    5  A    between atoms: C_5  and  C_6
REMARK    6  A    between atoms: C_6  and  N_7
REMARK    7  A    between atoms: C_18  and  C_21
REMARK                            x       y       z     vdW  Elec       q    Type
REMARK                         _______ _______ _______ _____ _____    ______ ____
ROOT
ATOM      1  N   UNL     1      -5.890   0.461 125.874  0.00  0.00    +0.000 N 
ATOM      2  C   UNL     1      -5.915   1.833 125.509  0.00  0.00    +0.000 A 
ATOM      3  C   UNL     1      -5.022   2.745 126.106  0.00  0.00    +0.000 A 
ATOM      4  C   UNL     1      -4.968   4.089 125.743  0.00  0.00    +0.000 A 
ATOM      5  C   UNL     1      -5.738   4.538 124.692  0.00  0.00    +0.000 A 
ATOM      6  C   UNL     1      -6.582   3.651 124.022  0.00  0.00    +0.000 A 
ATOM      7  C   UNL     1      -6.679   2.308 124.432  0.00  0.00    +0.000 A 
ATOM      8  S   UNL     1      -7.750   1.220 123.505  0.00  0.00    +0.000 S 
ATOM      9  C   UNL     1      -6.846  -0.304 123.725  0.00  0.00    +0.000 A 
ATOM     10  C   UNL     1      -6.096  -0.546 124.893  0.00  0.00    +0.000 A 
ATOM     11  C   UNL     1      -5.390  -1.754 124.996  0.00  0.00    +0.000 A 
ATOM     12  C   UNL     1      -5.412  -2.703 123.963  0.00  0.00    +0.000 A 
ATOM     13  C   UNL     1      -6.161  -2.438 122.810  0.00  0.00    +0.000 A 
ATOM     14  C   UNL     1      -6.878  -1.248 122.693  0.00  0.00    +0.000 A 
ENDROOT
BRANCH  12  15
ATOM     15  C   UNL     1      -4.620  -3.978 124.080  0.00  0.00    +0.000 C 
ATOM     16  F   UNL     1      -5.355  -5.073 123.743  0.00  0.00    +0.000 F 
ATOM     17  F   UNL     1      -3.527  -3.992 123.270  0.00  0.00    +0.000 F 
ATOM     18  F   UNL     1      -4.154  -4.218 125.339  0.00  0.00    +0.000 F 
ENDBRANCH  12  15
BRANCH   1  19
ATOM     19  C   UNL     1      -6.272   0.045 127.263  0.00  0.00    +0.000 C 
BRANCH  19  20
ATOM     20  C   UNL     1      -7.705   0.410 127.605  0.00  0.00    +0.000 C 
BRANCH  20  21
ATOM     21  C   UNL     1      -7.981   1.034 128.955  0.00  0.00    +0.000 C 
BRANCH  21  23
ATOM     22  C   UNL     1      -8.487   3.363 129.228  0.00  0.00    +0.000 C 
ATOM     23  N   UNL     1      -7.415   2.401 128.989  0.00  0.00    +0.000 NA
ATOM     24  C   UNL     1      -6.366   2.575 130.003  0.00  0.00    +0.000 C 
ENDBRANCH  21  23
ENDBRANCH  20  21
ENDBRANCH  19  20
ENDBRANCH   1  19
TORSDOF 5
ENDMDL
MODEL 9
REMARK VINA RESULT:      -6.4      8.902     10.836
REMARK  Name = Triflupromazine
REMARK  7 active torsions:
REMARK  status: ('A' for Active; 'I' for Inactive)
REMARK    1  A    between atoms: C_1  and  N_2
REMARK    2  A    between atoms: N_2  and  C_3
REMARK    3  A    between atoms: N_2  and  C_4
REMARK    4  A    between atoms: C_4  and  C_5
REMARK    5  A    between atoms: C_5  and  C_6
REMARK    6  A    between atoms: C_6  and  N_7
REMARK    7  A    between atoms: C_18  and  C_21
REMARK                            x       y       z     vdW  Elec       q    Type
REMARK                         _______ _______ _______ _____ _____    ______ ____
ROOT
ATOM      1  N   UNL     1      -8.291   5.732 131.335  0.00  0.00    +0.000 N 
ATOM      2  C   UNL     1      -8.880   4.476 131.638  0.00  0.00    +0.000 A 
ATOM      3  C   UNL     1      -9.614   3.778 130.659  0.00  0.00    +0.000 A 
ATOM      4  C   UNL     1     -10.164   2.519 130.889  0.00  0.00    +0.000 A 
ATOM      5  C   UNL     1      -9.902   1.872 132.077  0.00  0.00    +0.000 A 
ATOM      6  C   UNL     1      -9.115   2.496 133.047  0.00  0.00    +0.000 A 
ATOM      7  C   UNL     1      -8.613   3.794 132.834  0.00  0.00    +0.000 A 
ATOM      8  S   UNL     1      -7.582   4.514 134.102  0.00  0.00    +0.000 S 
ATOM      9  C   UNL     1      -6.534   5.518 133.062  0.00  0.00    +0.000 A 
ATOM     10  C   UNL     1      -7.015   6.071 131.859  0.00  0.00    +0.000 A 
ATOM     11  C   UNL     1      -6.135   6.833 131.075  0.00  0.00    +0.000 A 
ATOM     12  C   UNL     1      -4.803   7.038 131.461  0.00  0.00    +0.000 A 
ATOM     13  C   UNL     1      -4.347   6.475 132.660  0.00  0.00    +0.000 A 
ATOM     14  C   UNL     1      -5.208   5.724 133.458  0.00  0.00    +0.000 A 
ENDROOT
BRANCH  12  15
ATOM     15  C   UNL     1      -3.867   7.831 130.588  0.00  0.00    +0.000 C 
ATOM     16  F   UNL     1      -4.529   8.527 129.624  0.00  0.00    +0.000 F 
ATOM     17  F   UNL     1      -3.147   8.748 131.289  0.00  0.00    +0.000 F 
ATOM     18  F   UNL     1      -2.953   7.063 129.930  0.00  0.00    +0.000 F 
ENDBRANCH  12  15
BRANCH   1  19
ATOM     19  C   UNL     1      -9.160   6.916 131.032  0.00  0.00    +0.000 C 
BRANCH  19  20
ATOM     20  C   UNL     1      -9.759   6.855 129.639  0.00  0.00    +0.000 C 
BRANCH  20  21
ATOM     21  C   UNL     1     -11.263   6.755 129.511  0.00  0.00    +0.000 C 
BRANCH  21  23
ATOM     22  C   UNL     1     -10.593   8.463 127.965  0.00  0.00    +0.000 C 
ATOM     23  N   UNL     1     -11.738   7.749 128.522  0.00  0.00    +0.000 NA
ATOM     24  C   UNL     1     -12.524   7.156 127.430  0.00  0.00    +0.000 C 
ENDBRANCH  21  23
ENDBRANCH  20  21
ENDBRANCH  19  20
ENDBRANCH   1  19
TORSDOF 5
ENDMDL
