MODEL 1
REMARK VINA RESULT:      -8.8      0.000      0.000
REMARK  Name = Trifarotene
REMARK  13 active torsions:
REMARK  status: ('A' for Active; 'I' for Inactive)
REMARK    1  A    between atoms: C_1  and  C_2
REMARK    2  A    between atoms: C_2  and  C_3
REMARK    3  A    between atoms: C_2  and  C_4
REMARK    4  A    between atoms: C_2  and  C_5
REMARK    5  A    between atoms: C_7  and  C_16
REMARK    6  A    between atoms: C_10  and  N_11
REMARK    7  A    between atoms: C_18  and  C_26
REMARK    8  A    between atoms: C_21  and  O_22
REMARK    9  A    between atoms: O_22  and  C_23
REMARK   10  A    between atoms: C_23  and  C_24
REMARK   11  A    between atoms: C_24  and  O_25
REMARK   12  A    between atoms: C_29  and  C_32
REMARK   13  A    between atoms: C_32  and  O_33
REMARK                            x       y       z     vdW  Elec       q    Type
REMARK                         _______ _______ _______ _____ _____    ______ ____
ROOT
ATOM      1  C   UNL     1      -8.033  -0.573 131.786  0.00  0.00    +0.000 A 
ATOM      2  C   UNL     1      -8.000  -0.798 130.395  0.00  0.00    +0.000 A 
ATOM      3  C   UNL     1      -7.732  -2.065 129.843  0.00  0.00    +0.000 A 
ATOM      4  C   UNL     1      -7.345  -3.101 130.689  0.00  0.00    +0.000 A 
ATOM      5  C   UNL     1      -7.344  -2.910 132.069  0.00  0.00    +0.000 A 
ATOM      6  C   UNL     1      -7.713  -1.677 132.639  0.00  0.00    +0.000 A 
ENDROOT
BRANCH   1   9
ATOM      7  C   UNL     1      -7.885   3.001 133.049  0.00  0.00    +0.000 A 
ATOM      8  C   UNL     1      -7.711   1.584 133.016  0.00  0.00    +0.000 A 
ATOM      9  C   UNL     1      -8.524   0.751 132.245  0.00  0.00    +0.000 A 
ATOM     10  C   UNL     1      -9.692   1.316 131.748  0.00  0.00    +0.000 A 
ATOM     11  C   UNL     1      -9.813   2.720 131.669  0.00  0.00    +0.000 A 
ATOM     12  C   UNL     1      -8.903   3.620 132.260  0.00  0.00    +0.000 A 
BRANCH  12  13
ATOM     13  N   UNL     1      -9.152   4.979 132.078  0.00  0.00    +0.000 N 
ATOM     14  C   UNL     1     -10.167   5.912 132.603  0.00  0.00    +0.000 C 
ATOM     15  C   UNL     1     -10.824   6.526 131.375  0.00  0.00    +0.000 C 
ATOM     16  C   UNL     1      -9.604   6.740 130.497  0.00  0.00    +0.000 C 
ATOM     17  C   UNL     1      -8.622   5.590 130.839  0.00  0.00    +0.000 C 
ENDBRANCH  12  13
BRANCH   7  19
ATOM     18  C   UNL     1      -5.958   2.816 134.563  0.00  0.00    +0.000 C 
ATOM     19  C   UNL     1      -6.975   3.808 133.976  0.00  0.00    +0.000 C 
ATOM     20  C   UNL     1      -7.863   4.602 134.940  0.00  0.00    +0.000 C 
ATOM     21  C   UNL     1      -6.095   4.888 133.326  0.00  0.00    +0.000 C 
ENDBRANCH   7  19
ENDBRANCH   1   9
BRANCH   3  22
ATOM     22  C   UNL     1      -7.958  -2.301 128.419  0.00  0.00    +0.000 A 
ATOM     23  C   UNL     1      -7.650  -1.310 127.485  0.00  0.00    +0.000 A 
ATOM     24  C   UNL     1      -7.989  -1.465 126.141  0.00  0.00    +0.000 A 
ATOM     25  C   UNL     1      -8.546  -2.663 125.683  0.00  0.00    +0.000 A 
ATOM     26  C   UNL     1      -8.859  -3.665 126.615  0.00  0.00    +0.000 A 
ATOM     27  C   UNL     1      -8.575  -3.480 127.972  0.00  0.00    +0.000 A 
BRANCH  25  28
ATOM     28  C   UNL     1      -8.777  -2.967 124.236  0.00  0.00    +0.000 C 
ATOM     29  O   UNL     1      -7.915  -2.827 123.403  0.00  0.00    +0.000 OA
BRANCH  28  30
ATOM     30  O   UNL     1     -10.029  -3.368 123.906  0.00  0.00    +0.000 OA
ATOM     31  H   UNL     1     -10.278  -3.400 122.971  0.00  0.00    +0.000 HD
ENDBRANCH  28  30
ENDBRANCH  25  28
ENDBRANCH   3  22
BRANCH   6  32
ATOM     32  O   UNL     1      -7.737  -1.773 134.026  0.00  0.00    +0.000 OA
BRANCH  32  33
ATOM     33  C   UNL     1      -7.658  -3.079 134.566  0.00  0.00    +0.000 C 
BRANCH  33  34
ATOM     34  C   UNL     1      -7.907  -3.259 136.048  0.00  0.00    +0.000 C 
BRANCH  34  35
ATOM     35  O   UNL     1      -9.287  -3.036 136.360  0.00  0.00    +0.000 OA
ATOM     36  H   UNL     1      -9.554  -3.654 137.065  0.00  0.00    +0.000 HD
ENDBRANCH  34  35
ENDBRANCH  33  34
ENDBRANCH  32  33
ENDBRANCH   6  32
TORSDOF 10
ENDMDL
MODEL 2
REMARK VINA RESULT:      -8.1      4.111      8.605
REMARK  Name = Trifarotene
REMARK  13 active torsions:
REMARK  status: ('A' for Active; 'I' for Inactive)
REMARK    1  A    between atoms: C_1  and  C_2
REMARK    2  A    between atoms: C_2  and  C_3
REMARK    3  A    between atoms: C_2  and  C_4
REMARK    4  A    between atoms: C_2  and  C_5
REMARK    5  A    between atoms: C_7  and  C_16
REMARK    6  A    between atoms: C_10  and  N_11
REMARK    7  A    between atoms: C_18  and  C_26
REMARK    8  A    between atoms: C_21  and  O_22
REMARK    9  A    between atoms: O_22  and  C_23
REMARK   10  A    between atoms: C_23  and  C_24
REMARK   11  A    between atoms: C_24  and  O_25
REMARK   12  A    between atoms: C_29  and  C_32
REMARK   13  A    between atoms: C_32  and  O_33
REMARK                            x       y       z     vdW  Elec       q    Type
REMARK                         _______ _______ _______ _____ _____    ______ ____
ROOT
ATOM      1  C   UNL     1      -9.190   2.806 131.842  0.00  0.00    +0.000 A 
ATOM      2  C   UNL     1     -10.061   3.763 131.284  0.00  0.00    +0.000 A 
ATOM      3  C   UNL     1     -10.175   5.068 131.799  0.00  0.00    +0.000 A 
ATOM      4  C   UNL     1      -9.514   5.387 132.983  0.00  0.00    +0.000 A 
ATOM      5  C   UNL     1      -8.661   4.458 133.576  0.00  0.00    +0.000 A 
ATOM      6  C   UNL     1      -8.458   3.184 133.012  0.00  0.00    +0.000 A 
ENDROOT
BRANCH   1   9
ATOM      7  C   UNL     1      -7.932   0.446 129.150  0.00  0.00    +0.000 A 
ATOM      8  C   UNL     1      -8.605   1.552 129.755  0.00  0.00    +0.000 A 
ATOM      9  C   UNL     1      -9.010   1.537 131.091  0.00  0.00    +0.000 A 
ATOM     10  C   UNL     1      -9.005   0.300 131.725  0.00  0.00    +0.000 A 
ATOM     11  C   UNL     1      -8.240  -0.758 131.189  0.00  0.00    +0.000 A 
ATOM     12  C   UNL     1      -7.630  -0.720 129.919  0.00  0.00    +0.000 A 
BRANCH  12  13
ATOM     13  N   UNL     1      -6.894  -1.841 129.539  0.00  0.00    +0.000 N 
ATOM     14  C   UNL     1      -7.230  -3.260 129.320  0.00  0.00    +0.000 C 
ATOM     15  C   UNL     1      -6.294  -4.042 130.229  0.00  0.00    +0.000 C 
ATOM     16  C   UNL     1      -5.008  -3.259 130.028  0.00  0.00    +0.000 C 
ATOM     17  C   UNL     1      -5.435  -1.789 129.784  0.00  0.00    +0.000 C 
ENDBRANCH  12  13
BRANCH   7  19
ATOM     18  C   UNL     1      -6.098   0.916 127.584  0.00  0.00    +0.000 C 
ATOM     19  C   UNL     1      -7.588   0.550 127.664  0.00  0.00    +0.000 C 
ATOM     20  C   UNL     1      -8.608   1.485 127.005  0.00  0.00    +0.000 C 
ATOM     21  C   UNL     1      -7.690  -0.739 126.832  0.00  0.00    +0.000 C 
ENDBRANCH   7  19
ENDBRANCH   1   9
BRANCH   3  22
ATOM     22  C   UNL     1     -10.894   6.090 131.040  0.00  0.00    +0.000 A 
ATOM     23  C   UNL     1     -11.960   6.777 131.622  0.00  0.00    +0.000 A 
ATOM     24  C   UNL     1     -12.743   7.651 130.868  0.00  0.00    +0.000 A 
ATOM     25  C   UNL     1     -12.409   7.939 129.541  0.00  0.00    +0.000 A 
ATOM     26  C   UNL     1     -11.338   7.251 128.948  0.00  0.00    +0.000 A 
ATOM     27  C   UNL     1     -10.593   6.329 129.689  0.00  0.00    +0.000 A 
BRANCH  25  28
ATOM     28  C   UNL     1     -13.095   8.989 128.725  0.00  0.00    +0.000 C 
ATOM     29  O   UNL     1     -13.845   8.715 127.821  0.00  0.00    +0.000 OA
BRANCH  28  30
ATOM     30  O   UNL     1     -12.789  10.273 129.033  0.00  0.00    +0.000 OA
ATOM     31  H   UNL     1     -11.919  10.468 129.409  0.00  0.00    +0.000 HD
ENDBRANCH  28  30
ENDBRANCH  25  28
ENDBRANCH   3  22
BRANCH   6  32
ATOM     32  O   UNL     1      -7.485   2.491 133.723  0.00  0.00    +0.000 OA
BRANCH  32  33
ATOM     33  C   UNL     1      -6.152   2.644 133.275  0.00  0.00    +0.000 C 
BRANCH  33  34
ATOM     34  C   UNL     1      -5.487   1.471 132.586  0.00  0.00    +0.000 C 
BRANCH  34  35
ATOM     35  O   UNL     1      -5.371   1.711 131.178  0.00  0.00    +0.000 OA
ATOM     36  H   UNL     1      -5.830   2.544 130.962  0.00  0.00    +0.000 HD
ENDBRANCH  34  35
ENDBRANCH  33  34
ENDBRANCH  32  33
ENDBRANCH   6  32
TORSDOF 10
ENDMDL
MODEL 3
REMARK VINA RESULT:      -7.9      4.238      8.694
REMARK  Name = Trifarotene
REMARK  13 active torsions:
REMARK  status: ('A' for Active; 'I' for Inactive)
REMARK    1  A    between atoms: C_1  and  C_2
REMARK    2  A    between atoms: C_2  and  C_3
REMARK    3  A    between atoms: C_2  and  C_4
REMARK    4  A    between atoms: C_2  and  C_5
REMARK    5  A    between atoms: C_7  and  C_16
REMARK    6  A    between atoms: C_10  and  N_11
REMARK    7  A    between atoms: C_18  and  C_26
REMARK    8  A    between atoms: C_21  and  O_22
REMARK    9  A    between atoms: O_22  and  C_23
REMARK   10  A    between atoms: C_23  and  C_24
REMARK   11  A    between atoms: C_24  and  O_25
REMARK   12  A    between atoms: C_29  and  C_32
REMARK   13  A    between atoms: C_32  and  O_33
REMARK                            x       y       z     vdW  Elec       q    Type
REMARK                         _______ _______ _______ _____ _____    ______ ____
ROOT
ATOM      1  C   UNL     1      -8.568   3.031 130.561  0.00  0.00    +0.000 A 
ATOM      2  C   UNL     1      -9.499   4.047 130.271  0.00  0.00    +0.000 A 
ATOM      3  C   UNL     1      -9.984   4.928 131.257  0.00  0.00    +0.000 A 
ATOM      4  C   UNL     1      -9.646   4.702 132.589  0.00  0.00    +0.000 A 
ATOM      5  C   UNL     1      -8.745   3.692 132.916  0.00  0.00    +0.000 A 
ATOM      6  C   UNL     1      -8.170   2.872 131.927  0.00  0.00    +0.000 A 
ENDROOT
BRANCH   1   9
ATOM      7  C   UNL     1      -7.712   0.107 128.300  0.00  0.00    +0.000 A 
ATOM      8  C   UNL     1      -7.766   0.924 129.470  0.00  0.00    +0.000 A 
ATOM      9  C   UNL     1      -7.981   2.302 129.407  0.00  0.00    +0.000 A 
ATOM     10  C   UNL     1      -7.842   2.893 128.157  0.00  0.00    +0.000 A 
ATOM     11  C   UNL     1      -7.910   2.096 126.994  0.00  0.00    +0.000 A 
ATOM     12  C   UNL     1      -7.902   0.687 127.008  0.00  0.00    +0.000 A 
BRANCH  12  13
ATOM     13  N   UNL     1      -7.992   0.044 125.774  0.00  0.00    +0.000 N 
ATOM     14  C   UNL     1      -7.000  -0.381 124.768  0.00  0.00    +0.000 C 
ATOM     15  C   UNL     1      -7.438   0.275 123.467  0.00  0.00    +0.000 C 
ATOM     16  C   UNL     1      -8.941   0.079 123.561  0.00  0.00    +0.000 C 
ATOM     17  C   UNL     1      -9.289   0.139 125.070  0.00  0.00    +0.000 C 
ENDBRANCH  12  13
BRANCH   7  19
ATOM     18  C   UNL     1      -7.815  -1.733 129.925  0.00  0.00    +0.000 C 
ATOM     19  C   UNL     1      -7.410  -1.381 128.485  0.00  0.00    +0.000 C 
ATOM     20  C   UNL     1      -5.962  -1.629 128.050  0.00  0.00    +0.000 C 
ATOM     21  C   UNL     1      -8.219  -2.369 127.629  0.00  0.00    +0.000 C 
ENDBRANCH   7  19
ENDBRANCH   1   9
BRANCH   3  22
ATOM     22  C   UNL     1     -10.745   6.112 130.864  0.00  0.00    +0.000 A 
ATOM     23  C   UNL     1     -11.929   6.439 131.527  0.00  0.00    +0.000 A 
ATOM     24  C   UNL     1     -12.738   7.482 131.074  0.00  0.00    +0.000 A 
ATOM     25  C   UNL     1     -12.323   8.290 130.011  0.00  0.00    +0.000 A 
ATOM     26  C   UNL     1     -11.134   7.968 129.338  0.00  0.00    +0.000 A 
ATOM     27  C   UNL     1     -10.357   6.883 129.756  0.00  0.00    +0.000 A 
BRANCH  25  28
ATOM     28  C   UNL     1     -13.050   9.526 129.581  0.00  0.00    +0.000 C 
ATOM     29  O   UNL     1     -13.185  10.480 130.309  0.00  0.00    +0.000 OA
BRANCH  28  30
ATOM     30  O   UNL     1     -13.590   9.495 128.338  0.00  0.00    +0.000 OA
ATOM     31  H   UNL     1     -13.353   8.769 127.745  0.00  0.00    +0.000 HD
ENDBRANCH  28  30
ENDBRANCH  25  28
ENDBRANCH   3  22
BRANCH   6  32
ATOM     32  O   UNL     1      -7.227   2.021 132.492  0.00  0.00    +0.000 OA
BRANCH  32  33
ATOM     33  C   UNL     1      -6.907   2.252 133.851  0.00  0.00    +0.000 C 
BRANCH  33  34
ATOM     34  C   UNL     1      -5.793   1.439 134.475  0.00  0.00    +0.000 C 
BRANCH  34  35
ATOM     35  O   UNL     1      -6.281   0.164 134.911  0.00  0.00    +0.000 OA
ATOM     36  H   UNL     1      -5.552  -0.481 134.871  0.00  0.00    +0.000 HD
ENDBRANCH  34  35
ENDBRANCH  33  34
ENDBRANCH  32  33
ENDBRANCH   6  32
TORSDOF 10
ENDMDL
MODEL 4
REMARK VINA RESULT:      -7.8      3.341      8.496
REMARK  Name = Trifarotene
REMARK  13 active torsions:
REMARK  status: ('A' for Active; 'I' for Inactive)
REMARK    1  A    between atoms: C_1  and  C_2
REMARK    2  A    between atoms: C_2  and  C_3
REMARK    3  A    between atoms: C_2  and  C_4
REMARK    4  A    between atoms: C_2  and  C_5
REMARK    5  A    between atoms: C_7  and  C_16
REMARK    6  A    between atoms: C_10  and  N_11
REMARK    7  A    between atoms: C_18  and  C_26
REMARK    8  A    between atoms: C_21  and  O_22
REMARK    9  A    between atoms: O_22  and  C_23
REMARK   10  A    between atoms: C_23  and  C_24
REMARK   11  A    between atoms: C_24  and  O_25
REMARK   12  A    between atoms: C_29  and  C_32
REMARK   13  A    between atoms: C_32  and  O_33
REMARK                            x       y       z     vdW  Elec       q    Type
REMARK                         _______ _______ _______ _____ _____    ______ ____
ROOT
ATOM      1  C   UNL     1      -7.056  -2.413 130.550  0.00  0.00    +0.000 A 
ATOM      2  C   UNL     1      -7.653  -1.173 130.852  0.00  0.00    +0.000 A 
ATOM      3  C   UNL     1      -7.839  -0.729 132.175  0.00  0.00    +0.000 A 
ATOM      4  C   UNL     1      -7.555  -1.599 133.225  0.00  0.00    +0.000 A 
ATOM      5  C   UNL     1      -6.983  -2.842 132.964  0.00  0.00    +0.000 A 
ATOM      6  C   UNL     1      -6.695  -3.255 131.649  0.00  0.00    +0.000 A 
ENDROOT
BRANCH   1   9
ATOM      7  C   UNL     1      -7.542  -2.563 126.790  0.00  0.00    +0.000 A 
ATOM      8  C   UNL     1      -7.749  -2.824 128.179  0.00  0.00    +0.000 A 
ATOM      9  C   UNL     1      -6.732  -2.677 129.124  0.00  0.00    +0.000 A 
ATOM     10  C   UNL     1      -5.439  -2.560 128.629  0.00  0.00    +0.000 A 
ATOM     11  C   UNL     1      -5.236  -2.183 127.284  0.00  0.00    +0.000 A 
ATOM     12  C   UNL     1      -6.267  -2.115 126.325  0.00  0.00    +0.000 A 
BRANCH  12  13
ATOM     13  N   UNL     1      -5.907  -1.709 125.040  0.00  0.00    +0.000 N 
ATOM     14  C   UNL     1      -6.399  -0.666 124.122  0.00  0.00    +0.000 C 
ATOM     15  C   UNL     1      -6.763  -1.396 122.838  0.00  0.00    +0.000 C 
ATOM     16  C   UNL     1      -5.601  -2.369 122.744  0.00  0.00    +0.000 C 
ATOM     17  C   UNL     1      -5.205  -2.707 124.204  0.00  0.00    +0.000 C 
ENDBRANCH  12  13
BRANCH   7  19
ATOM     18  C   UNL     1      -8.246  -3.899 124.852  0.00  0.00    +0.000 C 
ATOM     19  C   UNL     1      -8.711  -2.815 125.837  0.00  0.00    +0.000 C 
ATOM     20  C   UNL     1      -9.165  -1.463 125.276  0.00  0.00    +0.000 C 
ATOM     21  C   UNL     1      -9.994  -3.403 126.445  0.00  0.00    +0.000 C 
ENDBRANCH   7  19
ENDBRANCH   1   9
BRANCH   3  22
ATOM     22  C   UNL     1      -8.226   0.657 132.430  0.00  0.00    +0.000 A 
ATOM     23  C   UNL     1      -9.438   1.149 131.942  0.00  0.00    +0.000 A 
ATOM     24  C   UNL     1      -9.757   2.502 132.055  0.00  0.00    +0.000 A 
ATOM     25  C   UNL     1      -8.917   3.373 132.756  0.00  0.00    +0.000 A 
ATOM     26  C   UNL     1      -7.696   2.887 133.250  0.00  0.00    +0.000 A 
ATOM     27  C   UNL     1      -7.351   1.542 133.080  0.00  0.00    +0.000 A 
BRANCH  25  28
ATOM     28  C   UNL     1      -9.273   4.793 133.066  0.00  0.00    +0.000 C 
ATOM     29  O   UNL     1      -8.478   5.568 133.540  0.00  0.00    +0.000 OA
BRANCH  28  30
ATOM     30  O   UNL     1     -10.558   5.150 132.823  0.00  0.00    +0.000 OA
ATOM     31  H   UNL     1     -10.733   5.981 132.359  0.00  0.00    +0.000 HD
ENDBRANCH  28  30
ENDBRANCH  25  28
ENDBRANCH   3  22
BRANCH   6  32
ATOM     32  O   UNL     1      -6.031  -4.478 131.661  0.00  0.00    +0.000 OA
BRANCH  32  33
ATOM     33  C   UNL     1      -4.618  -4.424 131.631  0.00  0.00    +0.000 C 
BRANCH  33  34
ATOM     34  C   UNL     1      -3.861  -4.701 132.912  0.00  0.00    +0.000 C 
BRANCH  34  35
ATOM     35  O   UNL     1      -2.881  -3.683 133.150  0.00  0.00    +0.000 OA
ATOM     36  H   UNL     1      -3.163  -3.147 133.914  0.00  0.00    +0.000 HD
ENDBRANCH  34  35
ENDBRANCH  33  34
ENDBRANCH  32  33
ENDBRANCH   6  32
TORSDOF 10
ENDMDL
MODEL 5
REMARK VINA RESULT:      -7.7      3.165      7.078
REMARK  Name = Trifarotene
REMARK  13 active torsions:
REMARK  status: ('A' for Active; 'I' for Inactive)
REMARK    1  A    between atoms: C_1  and  C_2
REMARK    2  A    between atoms: C_2  and  C_3
REMARK    3  A    between atoms: C_2  and  C_4
REMARK    4  A    between atoms: C_2  and  C_5
REMARK    5  A    between atoms: C_7  and  C_16
REMARK    6  A    between atoms: C_10  and  N_11
REMARK    7  A    between atoms: C_18  and  C_26
REMARK    8  A    between atoms: C_21  and  O_22
REMARK    9  A    between atoms: O_22  and  C_23
REMARK   10  A    between atoms: C_23  and  C_24
REMARK   11  A    between atoms: C_24  and  O_25
REMARK   12  A    between atoms: C_29  and  C_32
REMARK   13  A    between atoms: C_32  and  O_33
REMARK                            x       y       z     vdW  Elec       q    Type
REMARK                         _______ _______ _______ _____ _____    ______ ____
ROOT
ATOM      1  C   UNL     1      -7.767  -1.081 127.816  0.00  0.00    +0.000 A 
ATOM      2  C   UNL     1      -7.400  -1.674 129.040  0.00  0.00    +0.000 A 
ATOM      3  C   UNL     1      -7.592  -3.045 129.300  0.00  0.00    +0.000 A 
ATOM      4  C   UNL     1      -8.296  -3.814 128.377  0.00  0.00    +0.000 A 
ATOM      5  C   UNL     1      -8.695  -3.256 127.165  0.00  0.00    +0.000 A 
ATOM      6  C   UNL     1      -8.415  -1.913 126.849  0.00  0.00    +0.000 A 
ENDROOT
BRANCH   1   9
ATOM      7  C   UNL     1      -7.256   2.614 128.509  0.00  0.00    +0.000 A 
ATOM      8  C   UNL     1      -7.927   1.375 128.281  0.00  0.00    +0.000 A 
ATOM      9  C   UNL     1      -7.331   0.321 127.587  0.00  0.00    +0.000 A 
ATOM     10  C   UNL     1      -6.181   0.626 126.869  0.00  0.00    +0.000 A 
ATOM     11  C   UNL     1      -5.450   1.793 127.180  0.00  0.00    +0.000 A 
ATOM     12  C   UNL     1      -5.919   2.805 128.043  0.00  0.00    +0.000 A 
BRANCH  12  13
ATOM     13  N   UNL     1      -5.071   3.889 128.261  0.00  0.00    +0.000 N 
ATOM     14  C   UNL     1      -4.608   5.011 127.423  0.00  0.00    +0.000 C 
ATOM     15  C   UNL     1      -3.088   4.942 127.459  0.00  0.00    +0.000 C 
ATOM     16  C   UNL     1      -2.870   4.610 128.925  0.00  0.00    +0.000 C 
ATOM     17  C   UNL     1      -4.085   3.750 129.356  0.00  0.00    +0.000 C 
ENDBRANCH  12  13
BRANCH   7  19
ATOM     18  C   UNL     1      -9.237   3.045 129.898  0.00  0.00    +0.000 C 
ATOM     19  C   UNL     1      -8.028   3.720 129.230  0.00  0.00    +0.000 C 
ATOM     20  C   UNL     1      -8.283   4.851 128.228  0.00  0.00    +0.000 C 
ATOM     21  C   UNL     1      -7.316   4.425 130.395  0.00  0.00    +0.000 C 
ENDBRANCH   7  19
ENDBRANCH   1   9
BRANCH   3  22
ATOM     22  C   UNL     1      -6.970  -3.657 130.472  0.00  0.00    +0.000 A 
ATOM     23  C   UNL     1      -7.274  -3.191 131.752  0.00  0.00    +0.000 A 
ATOM     24  C   UNL     1      -6.585  -3.668 132.868  0.00  0.00    +0.000 A 
ATOM     25  C   UNL     1      -5.653  -4.702 132.738  0.00  0.00    +0.000 A 
ATOM     26  C   UNL     1      -5.341  -5.176 131.454  0.00  0.00    +0.000 A 
ATOM     27  C   UNL     1      -5.988  -4.651 130.331  0.00  0.00    +0.000 A 
BRANCH  25  28
ATOM     28  C   UNL     1      -5.004  -5.381 133.903  0.00  0.00    +0.000 C 
ATOM     29  O   UNL     1      -3.836  -5.687 133.902  0.00  0.00    +0.000 OA
BRANCH  28  30
ATOM     30  O   UNL     1      -5.816  -5.673 134.948  0.00  0.00    +0.000 OA
ATOM     31  H   UNL     1      -6.380  -6.458 134.895  0.00  0.00    +0.000 HD
ENDBRANCH  28  30
ENDBRANCH  25  28
ENDBRANCH   3  22
BRANCH   6  32
ATOM     32  O   UNL     1      -8.815  -1.629 125.547  0.00  0.00    +0.000 OA
BRANCH  32  33
ATOM     33  C   UNL     1      -8.027  -2.188 124.513  0.00  0.00    +0.000 C 
BRANCH  33  34
ATOM     34  C   UNL     1      -8.735  -2.830 123.338  0.00  0.00    +0.000 C 
BRANCH  34  35
ATOM     35  O   UNL     1     -10.029  -3.307 123.726  0.00  0.00    +0.000 OA
ATOM     36  H   UNL     1     -10.111  -3.243 124.695  0.00  0.00    +0.000 HD
ENDBRANCH  34  35
ENDBRANCH  33  34
ENDBRANCH  32  33
ENDBRANCH   6  32
TORSDOF 10
ENDMDL
MODEL 6
REMARK VINA RESULT:      -7.7      4.293      7.947
REMARK  Name = Trifarotene
REMARK  13 active torsions:
REMARK  status: ('A' for Active; 'I' for Inactive)
REMARK    1  A    between atoms: C_1  and  C_2
REMARK    2  A    between atoms: C_2  and  C_3
REMARK    3  A    between atoms: C_2  and  C_4
REMARK    4  A    between atoms: C_2  and  C_5
REMARK    5  A    between atoms: C_7  and  C_16
REMARK    6  A    between atoms: C_10  and  N_11
REMARK    7  A    between atoms: C_18  and  C_26
REMARK    8  A    between atoms: C_21  and  O_22
REMARK    9  A    between atoms: O_22  and  C_23
REMARK   10  A    between atoms: C_23  and  C_24
REMARK   11  A    between atoms: C_24  and  O_25
REMARK   12  A    between atoms: C_29  and  C_32
REMARK   13  A    between atoms: C_32  and  O_33
REMARK                            x       y       z     vdW  Elec       q    Type
REMARK                         _______ _______ _______ _____ _____    ______ ____
ROOT
ATOM      1  C   UNL     1      -7.484  -1.530 127.122  0.00  0.00    +0.000 A 
ATOM      2  C   UNL     1      -7.145  -1.914 128.434  0.00  0.00    +0.000 A 
ATOM      3  C   UNL     1      -7.656  -3.081 129.033  0.00  0.00    +0.000 A 
ATOM      4  C   UNL     1      -8.639  -3.807 128.366  0.00  0.00    +0.000 A 
ATOM      5  C   UNL     1      -9.017  -3.444 127.075  0.00  0.00    +0.000 A 
ATOM      6  C   UNL     1      -8.435  -2.340 126.423  0.00  0.00    +0.000 A 
ENDROOT
BRANCH   1   9
ATOM      7  C   UNL     1      -6.823   1.963 125.796  0.00  0.00    +0.000 A 
ATOM      8  C   UNL     1      -7.394   0.659 125.908  0.00  0.00    +0.000 A 
ATOM      9  C   UNL     1      -6.726  -0.396 126.532  0.00  0.00    +0.000 A 
ATOM     10  C   UNL     1      -5.370  -0.213 126.773  0.00  0.00    +0.000 A 
ATOM     11  C   UNL     1      -4.830   1.091 126.781  0.00  0.00    +0.000 A 
ATOM     12  C   UNL     1      -5.534   2.234 126.350  0.00  0.00    +0.000 A 
BRANCH  12  13
ATOM     13  N   UNL     1      -4.867   3.455 126.435  0.00  0.00    +0.000 N 
ATOM     14  C   UNL     1      -3.601   3.969 125.880  0.00  0.00    +0.000 C 
ATOM     15  C   UNL     1      -2.798   4.448 127.080  0.00  0.00    +0.000 C 
ATOM     16  C   UNL     1      -3.898   5.112 127.891  0.00  0.00    +0.000 C 
ATOM     17  C   UNL     1      -5.190   4.307 127.600  0.00  0.00    +0.000 C 
ENDBRANCH  12  13
BRANCH   7  19
ATOM     18  C   UNL     1      -6.749   3.462 123.851  0.00  0.00    +0.000 C 
ATOM     19  C   UNL     1      -7.620   3.026 125.039  0.00  0.00    +0.000 C 
ATOM     20  C   UNL     1      -8.069   4.089 126.047  0.00  0.00    +0.000 C 
ATOM     21  C   UNL     1      -8.934   2.577 124.379  0.00  0.00    +0.000 C 
ENDBRANCH   7  19
ENDBRANCH   1   9
BRANCH   3  22
ATOM     22  C   UNL     1      -7.084  -3.566 130.288  0.00  0.00    +0.000 A 
ATOM     23  C   UNL     1      -7.471  -2.998 131.502  0.00  0.00    +0.000 A 
ATOM     24  C   UNL     1      -6.833  -3.351 132.692  0.00  0.00    +0.000 A 
ATOM     25  C   UNL     1      -5.867  -4.362 132.705  0.00  0.00    +0.000 A 
ATOM     26  C   UNL     1      -5.471  -4.938 131.488  0.00  0.00    +0.000 A 
ATOM     27  C   UNL     1      -6.069  -4.537 130.289  0.00  0.00    +0.000 A 
BRANCH  25  28
ATOM     28  C   UNL     1      -5.265  -4.912 133.961  0.00  0.00    +0.000 C 
ATOM     29  O   UNL     1      -4.529  -5.869 133.956  0.00  0.00    +0.000 OA
BRANCH  28  30
ATOM     30  O   UNL     1      -5.631  -4.300 135.113  0.00  0.00    +0.000 OA
ATOM     31  H   UNL     1      -5.301  -3.407 135.292  0.00  0.00    +0.000 HD
ENDBRANCH  28  30
ENDBRANCH  25  28
ENDBRANCH   3  22
BRANCH   6  32
ATOM     32  O   UNL     1      -8.895  -2.254 125.114  0.00  0.00    +0.000 OA
BRANCH  32  33
ATOM     33  C   UNL     1      -8.353  -3.183 124.196  0.00  0.00    +0.000 C 
BRANCH  33  34
ATOM     34  C   UNL     1      -6.859  -3.166 123.953  0.00  0.00    +0.000 C 
BRANCH  34  35
ATOM     35  O   UNL     1      -6.459  -1.931 123.347  0.00  0.00    +0.000 OA
ATOM     36  H   UNL     1      -6.574  -1.211 123.994  0.00  0.00    +0.000 HD
ENDBRANCH  34  35
ENDBRANCH  33  34
ENDBRANCH  32  33
ENDBRANCH   6  32
TORSDOF 10
ENDMDL
MODEL 7
REMARK VINA RESULT:      -7.7      4.433      9.837
REMARK  Name = Trifarotene
REMARK  13 active torsions:
REMARK  status: ('A' for Active; 'I' for Inactive)
REMARK    1  A    between atoms: C_1  and  C_2
REMARK    2  A    between atoms: C_2  and  C_3
REMARK    3  A    between atoms: C_2  and  C_4
REMARK    4  A    between atoms: C_2  and  C_5
REMARK    5  A    between atoms: C_7  and  C_16
REMARK    6  A    between atoms: C_10  and  N_11
REMARK    7  A    between atoms: C_18  and  C_26
REMARK    8  A    between atoms: C_21  and  O_22
REMARK    9  A    between atoms: O_22  and  C_23
REMARK   10  A    between atoms: C_23  and  C_24
REMARK   11  A    between atoms: C_24  and  O_25
REMARK   12  A    between atoms: C_29  and  C_32
REMARK   13  A    between atoms: C_32  and  O_33
REMARK                            x       y       z     vdW  Elec       q    Type
REMARK                         _______ _______ _______ _____ _____    ______ ____
ROOT
ATOM      1  C   UNL     1      -8.632   4.357 129.958  0.00  0.00    +0.000 A 
ATOM      2  C   UNL     1      -7.369   4.867 130.316  0.00  0.00    +0.000 A 
ATOM      3  C   UNL     1      -7.203   6.158 130.854  0.00  0.00    +0.000 A 
ATOM      4  C   UNL     1      -8.300   7.014 130.904  0.00  0.00    +0.000 A 
ATOM      5  C   UNL     1      -9.562   6.551 130.537  0.00  0.00    +0.000 A 
ATOM      6  C   UNL     1      -9.758   5.228 130.097  0.00  0.00    +0.000 A 
ENDROOT
BRANCH   1   9
ATOM      7  C   UNL     1      -7.919   1.165 128.034  0.00  0.00    +0.000 A 
ATOM      8  C   UNL     1      -8.370   2.492 128.306  0.00  0.00    +0.000 A 
ATOM      9  C   UNL     1      -8.701   2.918 129.594  0.00  0.00    +0.000 A 
ATOM     10  C   UNL     1      -8.863   1.923 130.551  0.00  0.00    +0.000 A 
ATOM     11  C   UNL     1      -8.310   0.643 130.331  0.00  0.00    +0.000 A 
ATOM     12  C   UNL     1      -7.770   0.223 129.099  0.00  0.00    +0.000 A 
BRANCH  12  13
ATOM     13  N   UNL     1      -7.246  -1.068 129.047  0.00  0.00    +0.000 N 
ATOM     14  C   UNL     1      -7.804  -2.384 128.683  0.00  0.00    +0.000 C 
ATOM     15  C   UNL     1      -7.552  -3.276 129.889  0.00  0.00    +0.000 C 
ATOM     16  C   UNL     1      -6.148  -2.834 130.261  0.00  0.00    +0.000 C 
ATOM     17  C   UNL     1      -6.056  -1.333 129.884  0.00  0.00    +0.000 C 
ENDBRANCH  12  13
BRANCH   7  19
ATOM     18  C   UNL     1      -8.797  -0.118 126.132  0.00  0.00    +0.000 C 
ATOM     19  C   UNL     1      -7.642   0.792 126.577  0.00  0.00    +0.000 C 
ATOM     20  C   UNL     1      -6.210   0.253 126.489  0.00  0.00    +0.000 C 
ATOM     21  C   UNL     1      -7.661   1.934 125.548  0.00  0.00    +0.000 C 
ENDBRANCH   7  19
ENDBRANCH   1   9
BRANCH   3  22
ATOM     22  C   UNL     1      -5.920   6.543 131.439  0.00  0.00    +0.000 A 
ATOM     23  C   UNL     1      -5.007   7.293 130.698  0.00  0.00    +0.000 A 
ATOM     24  C   UNL     1      -3.726   7.548 131.188  0.00  0.00    +0.000 A 
ATOM     25  C   UNL     1      -3.369   7.149 132.480  0.00  0.00    +0.000 A 
ATOM     26  C   UNL     1      -4.282   6.394 133.233  0.00  0.00    +0.000 A 
ATOM     27  C   UNL     1      -5.543   6.086 132.712  0.00  0.00    +0.000 A 
BRANCH  25  28
ATOM     28  C   UNL     1      -2.080   7.534 133.137  0.00  0.00    +0.000 C 
ATOM     29  O   UNL     1      -1.062   7.698 132.511  0.00  0.00    +0.000 OA
BRANCH  28  30
ATOM     30  O   UNL     1      -2.113   7.646 134.488  0.00  0.00    +0.000 OA
ATOM     31  H   UNL     1      -2.484   8.448 134.881  0.00  0.00    +0.000 HD
ENDBRANCH  28  30
ENDBRANCH  25  28
ENDBRANCH   3  22
BRANCH   6  32
ATOM     32  O   UNL     1     -11.113   4.981 129.899  0.00  0.00    +0.000 OA
BRANCH  32  33
ATOM     33  C   UNL     1     -11.981   6.088 130.045  0.00  0.00    +0.000 C 
BRANCH  33  34
ATOM     34  C   UNL     1     -12.810   6.513 128.853  0.00  0.00    +0.000 C 
BRANCH  34  35
ATOM     35  O   UNL     1     -11.999   6.592 127.674  0.00  0.00    +0.000 OA
ATOM     36  H   UNL     1     -11.513   5.754 127.570  0.00  0.00    +0.000 HD
ENDBRANCH  34  35
ENDBRANCH  33  34
ENDBRANCH  32  33
ENDBRANCH   6  32
TORSDOF 10
ENDMDL
MODEL 8
REMARK VINA RESULT:      -7.7      3.527      8.729
REMARK  Name = Trifarotene
REMARK  13 active torsions:
REMARK  status: ('A' for Active; 'I' for Inactive)
REMARK    1  A    between atoms: C_1  and  C_2
REMARK    2  A    between atoms: C_2  and  C_3
REMARK    3  A    between atoms: C_2  and  C_4
REMARK    4  A    between atoms: C_2  and  C_5
REMARK    5  A    between atoms: C_7  and  C_16
REMARK    6  A    between atoms: C_10  and  N_11
REMARK    7  A    between atoms: C_18  and  C_26
REMARK    8  A    between atoms: C_21  and  O_22
REMARK    9  A    between atoms: O_22  and  C_23
REMARK   10  A    between atoms: C_23  and  C_24
REMARK   11  A    between atoms: C_24  and  O_25
REMARK   12  A    between atoms: C_29  and  C_32
REMARK   13  A    between atoms: C_32  and  O_33
REMARK                            x       y       z     vdW  Elec       q    Type
REMARK                         _______ _______ _______ _____ _____    ______ ____
ROOT
ATOM      1  C   UNL     1      -7.204  -1.407 131.004  0.00  0.00    +0.000 A 
ATOM      2  C   UNL     1      -7.624  -0.250 131.689  0.00  0.00    +0.000 A 
ATOM      3  C   UNL     1      -6.976   0.216 132.849  0.00  0.00    +0.000 A 
ATOM      4  C   UNL     1      -5.978  -0.567 133.423  0.00  0.00    +0.000 A 
ATOM      5  C   UNL     1      -5.551  -1.729 132.786  0.00  0.00    +0.000 A 
ATOM      6  C   UNL     1      -6.120  -2.149 131.568  0.00  0.00    +0.000 A 
ENDROOT
BRANCH   1   9
ATOM      7  C   UNL     1      -7.887  -1.095 127.284  0.00  0.00    +0.000 A 
ATOM      8  C   UNL     1      -7.783  -0.733 128.662  0.00  0.00    +0.000 A 
ATOM      9  C   UNL     1      -7.837  -1.679 129.687  0.00  0.00    +0.000 A 
ATOM     10  C   UNL     1      -8.294  -2.944 129.337  0.00  0.00    +0.000 A 
ATOM     11  C   UNL     1      -8.282  -3.344 127.984  0.00  0.00    +0.000 A 
ATOM     12  C   UNL     1      -8.030  -2.467 126.909  0.00  0.00    +0.000 A 
BRANCH  12  13
ATOM     13  N   UNL     1      -8.037  -3.019 125.630  0.00  0.00    +0.000 N 
ATOM     14  C   UNL     1      -7.059  -3.057 124.526  0.00  0.00    +0.000 C 
ATOM     15  C   UNL     1      -7.784  -2.472 123.323  0.00  0.00    +0.000 C 
ATOM     16  C   UNL     1      -9.150  -3.114 123.495  0.00  0.00    +0.000 C 
ATOM     17  C   UNL     1      -9.364  -3.266 125.023  0.00  0.00    +0.000 C 
ENDBRANCH  12  13
BRANCH   7  19
ATOM     18  C   UNL     1      -9.212  -0.053 125.497  0.00  0.00    +0.000 C 
ATOM     19  C   UNL     1      -7.875   0.031 126.250  0.00  0.00    +0.000 C 
ATOM     20  C   UNL     1      -6.575  -0.076 125.446  0.00  0.00    +0.000 C 
ATOM     21  C   UNL     1      -7.850   1.472 126.785  0.00  0.00    +0.000 C 
ENDBRANCH   7  19
ENDBRANCH   1   9
BRANCH   3  22
ATOM     22  C   UNL     1      -7.286   1.544 133.373  0.00  0.00    +0.000 A 
ATOM     23  C   UNL     1      -8.487   2.170 133.036  0.00  0.00    +0.000 A 
ATOM     24  C   UNL     1      -8.735   3.490 133.411  0.00  0.00    +0.000 A 
ATOM     25  C   UNL     1      -7.831   4.178 134.226  0.00  0.00    +0.000 A 
ATOM     26  C   UNL     1      -6.619   3.557 134.569  0.00  0.00    +0.000 A 
ATOM     27  C   UNL     1      -6.347   2.254 134.138  0.00  0.00    +0.000 A 
BRANCH  25  28
ATOM     28  C   UNL     1      -8.105   5.529 134.809  0.00  0.00    +0.000 C 
ATOM     29  O   UNL     1      -7.599   5.902 135.839  0.00  0.00    +0.000 OA
BRANCH  28  30
ATOM     30  O   UNL     1      -8.994   6.297 134.133  0.00  0.00    +0.000 OA
ATOM     31  H   UNL     1      -9.685   5.863 133.612  0.00  0.00    +0.000 HD
ENDBRANCH  28  30
ENDBRANCH  25  28
ENDBRANCH   3  22
BRANCH   6  32
ATOM     32  O   UNL     1      -5.451  -3.268 131.083  0.00  0.00    +0.000 OA
BRANCH  32  33
ATOM     33  C   UNL     1      -4.642  -3.069 129.940  0.00  0.00    +0.000 C 
BRANCH  33  34
ATOM     34  C   UNL     1      -3.584  -1.986 129.988  0.00  0.00    +0.000 C 
BRANCH  34  35
ATOM     35  O   UNL     1      -2.324  -2.489 129.529  0.00  0.00    +0.000 OA
ATOM     36  H   UNL     1      -2.367  -2.610 128.562  0.00  0.00    +0.000 HD
ENDBRANCH  34  35
ENDBRANCH  33  34
ENDBRANCH  32  33
ENDBRANCH   6  32
TORSDOF 10
ENDMDL
MODEL 9
REMARK VINA RESULT:      -7.5      1.234      2.784
REMARK  Name = Trifarotene
REMARK  13 active torsions:
REMARK  status: ('A' for Active; 'I' for Inactive)
REMARK    1  A    between atoms: C_1  and  C_2
REMARK    2  A    between atoms: C_2  and  C_3
REMARK    3  A    between atoms: C_2  and  C_4
REMARK    4  A    between atoms: C_2  and  C_5
REMARK    5  A    between atoms: C_7  and  C_16
REMARK    6  A    between atoms: C_10  and  N_11
REMARK    7  A    between atoms: C_18  and  C_26
REMARK    8  A    between atoms: C_21  and  O_22
REMARK    9  A    between atoms: O_22  and  C_23
REMARK   10  A    between atoms: C_23  and  C_24
REMARK   11  A    between atoms: C_24  and  O_25
REMARK   12  A    between atoms: C_29  and  C_32
REMARK   13  A    between atoms: C_32  and  O_33
REMARK                            x       y       z     vdW  Elec       q    Type
REMARK                         _______ _______ _______ _____ _____    ______ ____
ROOT
ATOM      1  C   UNL     1      -7.228  -0.320 130.937  0.00  0.00    +0.000 A 
ATOM      2  C   UNL     1      -7.310  -0.662 129.573  0.00  0.00    +0.000 A 
ATOM      3  C   UNL     1      -7.728  -1.935 129.139  0.00  0.00    +0.000 A 
ATOM      4  C   UNL     1      -7.932  -2.936 130.085  0.00  0.00    +0.000 A 
ATOM      5  C   UNL     1      -7.838  -2.641 131.443  0.00  0.00    +0.000 A 
ATOM      6  C   UNL     1      -7.523  -1.344 131.892  0.00  0.00    +0.000 A 
ENDROOT
BRANCH   1   9
ATOM      7  C   UNL     1      -7.984   3.334 131.624  0.00  0.00    +0.000 A 
ATOM      8  C   UNL     1      -7.901   2.092 130.923  0.00  0.00    +0.000 A 
ATOM      9  C   UNL     1      -6.971   1.107 131.262  0.00  0.00    +0.000 A 
ATOM     10  C   UNL     1      -5.937   1.496 132.104  0.00  0.00    +0.000 A 
ATOM     11  C   UNL     1      -6.072   2.662 132.888  0.00  0.00    +0.000 A 
ATOM     12  C   UNL     1      -7.114   3.598 132.727  0.00  0.00    +0.000 A 
BRANCH  12  13
ATOM     13  N   UNL     1      -7.118   4.692 133.591  0.00  0.00    +0.000 N 
ATOM     14  C   UNL     1      -6.287   5.904 133.710  0.00  0.00    +0.000 C 
ATOM     15  C   UNL     1      -5.761   5.895 135.138  0.00  0.00    +0.000 C 
ATOM     16  C   UNL     1      -7.005   5.438 135.879  0.00  0.00    +0.000 C 
ATOM     17  C   UNL     1      -7.759   4.492 134.909  0.00  0.00    +0.000 C 
ENDBRANCH  12  13
BRANCH   7  19
ATOM     18  C   UNL     1     -10.085   3.579 130.374  0.00  0.00    +0.000 C 
ATOM     19  C   UNL     1      -9.000   4.364 131.128  0.00  0.00    +0.000 C 
ATOM     20  C   UNL     1      -8.237   5.461 130.380  0.00  0.00    +0.000 C 
ATOM     21  C   UNL     1      -9.789   5.138 132.197  0.00  0.00    +0.000 C 
ENDBRANCH   7  19
ENDBRANCH   1   9
BRANCH   3  22
ATOM     22  C   UNL     1      -8.037  -2.158 127.728  0.00  0.00    +0.000 A 
ATOM     23  C   UNL     1      -7.938  -1.109 126.813  0.00  0.00    +0.000 A 
ATOM     24  C   UNL     1      -8.363  -1.269 125.494  0.00  0.00    +0.000 A 
ATOM     25  C   UNL     1      -8.795  -2.517 125.035  0.00  0.00    +0.000 A 
ATOM     26  C   UNL     1      -8.899  -3.577 125.949  0.00  0.00    +0.000 A 
ATOM     27  C   UNL     1      -8.531  -3.395 127.286  0.00  0.00    +0.000 A 
BRANCH  25  28
ATOM     28  C   UNL     1      -9.103  -2.808 123.599  0.00  0.00    +0.000 C 
ATOM     29  O   UNL     1      -8.431  -2.372 122.695  0.00  0.00    +0.000 OA
BRANCH  28  30
ATOM     30  O   UNL     1     -10.210  -3.555 123.368  0.00  0.00    +0.000 OA
ATOM     31  H   UNL     1     -10.577  -3.581 122.473  0.00  0.00    +0.000 HD
ENDBRANCH  28  30
ENDBRANCH  25  28
ENDBRANCH   3  22
BRANCH   6  32
ATOM     32  O   UNL     1      -7.600  -1.281 133.279  0.00  0.00    +0.000 OA
BRANCH  32  33
ATOM     33  C   UNL     1      -6.723  -2.129 133.995  0.00  0.00    +0.000 C 
BRANCH  33  34
ATOM     34  C   UNL     1      -7.323  -3.180 134.904  0.00  0.00    +0.000 C 
BRANCH  34  35
ATOM     35  O   UNL     1      -8.736  -2.985 135.040  0.00  0.00    +0.000 OA
ATOM     36  H   UNL     1      -9.110  -3.730 135.544  0.00  0.00    +0.000 HD
ENDBRANCH  34  35
ENDBRANCH  33  34
ENDBRANCH  32  33
ENDBRANCH   6  32
TORSDOF 10
ENDMDL
