MODEL 1
REMARK VINA RESULT:      -7.4      0.000      0.000
REMARK  Name = Trihexyphenidyl
REMARK  6 active torsions:
REMARK  status: ('A' for Active; 'I' for Inactive)
REMARK    1  A    between atoms: O_1  and  C_2
REMARK    2  A    between atoms: C_2  and  C_3
REMARK    3  A    between atoms: C_2  and  C_11
REMARK    4  A    between atoms: C_2  and  C_17
REMARK    5  A    between atoms: C_3  and  C_4
REMARK    6  A    between atoms: C_4  and  N_5
REMARK                            x       y       z     vdW  Elec       q    Type
REMARK                         _______ _______ _______ _____ _____    ______ ____
ROOT
ATOM      1  C   UNL     1      -7.520   3.100 123.696  0.00  0.00    +0.000 C 
ENDROOT
BRANCH   1   2
ATOM      2  C   UNL     1      -8.252   1.734 123.893  0.00  0.00    +0.000 C 
ATOM      3  C   UNL     1      -7.311   0.523 123.674  0.00  0.00    +0.000 C 
ATOM      4  C   UNL     1      -7.972  -0.809 123.984  0.00  0.00    +0.000 C 
ATOM      5  C   UNL     1      -8.554  -0.815 125.388  0.00  0.00    +0.000 C 
ATOM      6  C   UNL     1      -9.550   0.320 125.562  0.00  0.00    +0.000 C 
ATOM      7  C   UNL     1      -8.900   1.663 125.288  0.00  0.00    +0.000 C 
ENDBRANCH   1   2
BRANCH   1   8
ATOM      8  C   UNL     1      -7.422   3.448 122.212  0.00  0.00    +0.000 A 
ATOM      9  C   UNL     1      -6.166   3.697 121.636  0.00  0.00    +0.000 A 
ATOM     10  C   UNL     1      -6.068   4.126 120.314  0.00  0.00    +0.000 A 
ATOM     11  C   UNL     1      -7.208   4.224 119.529  0.00  0.00    +0.000 A 
ATOM     12  C   UNL     1      -8.460   3.930 120.064  0.00  0.00    +0.000 A 
ATOM     13  C   UNL     1      -8.565   3.571 121.407  0.00  0.00    +0.000 A 
ENDBRANCH   1   8
BRANCH   1  14
ATOM     14  O   UNL     1      -8.266   4.131 124.369  0.00  0.00    +0.000 OA
ATOM     15  H   UNL     1      -8.917   3.709 124.953  0.00  0.00    +0.000 HD
ENDBRANCH   1  14
BRANCH   1  16
ATOM     16  C   UNL     1      -6.136   3.053 124.344  0.00  0.00    +0.000 C 
BRANCH  16  17
ATOM     17  C   UNL     1      -6.006   4.045 125.494  0.00  0.00    +0.000 C 
BRANCH  17  18
ATOM     18  N   UNL     1      -4.610   4.194 125.924  0.00  0.00    +0.000 NA
ATOM     19  C   UNL     1      -4.609   5.067 127.107  0.00  0.00    +0.000 C 
ATOM     20  C   UNL     1      -3.195   5.278 127.628  0.00  0.00    +0.000 C 
ATOM     21  C   UNL     1      -2.517   3.946 127.928  0.00  0.00    +0.000 C 
ATOM     22  C   UNL     1      -2.572   3.035 126.715  0.00  0.00    +0.000 C 
ATOM     23  C   UNL     1      -3.997   2.891 126.220  0.00  0.00    +0.000 C 
ENDBRANCH  17  18
ENDBRANCH  16  17
ENDBRANCH   1  16
TORSDOF 6
ENDMDL
MODEL 2
REMARK VINA RESULT:      -7.3      2.030      6.285
REMARK  Name = Trihexyphenidyl
REMARK  6 active torsions:
REMARK  status: ('A' for Active; 'I' for Inactive)
REMARK    1  A    between atoms: O_1  and  C_2
REMARK    2  A    between atoms: C_2  and  C_3
REMARK    3  A    between atoms: C_2  and  C_11
REMARK    4  A    between atoms: C_2  and  C_17
REMARK    5  A    between atoms: C_3  and  C_4
REMARK    6  A    between atoms: C_4  and  N_5
REMARK                            x       y       z     vdW  Elec       q    Type
REMARK                         _______ _______ _______ _____ _____    ______ ____
ROOT
ATOM      1  C   UNL     1      -7.912   2.614 123.812  0.00  0.00    +0.000 C 
ENDROOT
BRANCH   1   2
ATOM      2  C   UNL     1      -7.648   3.538 122.580  0.00  0.00    +0.000 C 
ATOM      3  C   UNL     1      -6.215   3.372 122.014  0.00  0.00    +0.000 C 
ATOM      4  C   UNL     1      -5.981   4.168 120.741  0.00  0.00    +0.000 C 
ATOM      5  C   UNL     1      -7.028   3.835 119.690  0.00  0.00    +0.000 C 
ATOM      6  C   UNL     1      -8.427   4.095 120.223  0.00  0.00    +0.000 C 
ATOM      7  C   UNL     1      -8.692   3.283 121.477  0.00  0.00    +0.000 C 
ENDBRANCH   1   2
BRANCH   1   8
ATOM      8  C   UNL     1      -6.715   2.628 124.760  0.00  0.00    +0.000 A 
ATOM      9  C   UNL     1      -6.200   1.417 125.249  0.00  0.00    +0.000 A 
ATOM     10  C   UNL     1      -5.183   1.416 126.203  0.00  0.00    +0.000 A 
ATOM     11  C   UNL     1      -4.610   2.613 126.609  0.00  0.00    +0.000 A 
ATOM     12  C   UNL     1      -5.070   3.824 126.096  0.00  0.00    +0.000 A 
ATOM     13  C   UNL     1      -6.136   3.829 125.197  0.00  0.00    +0.000 A 
ENDBRANCH   1   8
BRANCH   1  14
ATOM     14  O   UNL     1      -9.072   3.096 124.516  0.00  0.00    +0.000 OA
ATOM     15  H   UNL     1      -8.787   3.766 125.157  0.00  0.00    +0.000 HD
ENDBRANCH   1  14
BRANCH   1  16
ATOM     16  C   UNL     1      -8.229   1.193 123.344  0.00  0.00    +0.000 C 
BRANCH  16  17
ATOM     17  C   UNL     1      -9.630   0.754 123.751  0.00  0.00    +0.000 C 
BRANCH  17  18
ATOM     18  N   UNL     1      -9.668  -0.669 124.111  0.00  0.00    +0.000 NA
ATOM     19  C   UNL     1      -9.116  -1.421 122.974  0.00  0.00    +0.000 C 
ATOM     20  C   UNL     1      -9.113  -2.916 123.259  0.00  0.00    +0.000 C 
ATOM     21  C   UNL     1      -8.355  -3.227 124.545  0.00  0.00    +0.000 C 
ATOM     22  C   UNL     1      -8.899  -2.404 125.698  0.00  0.00    +0.000 C 
ATOM     23  C   UNL     1      -8.912  -0.931 125.344  0.00  0.00    +0.000 C 
ENDBRANCH  17  18
ENDBRANCH  16  17
ENDBRANCH   1  16
TORSDOF 6
ENDMDL
MODEL 3
REMARK VINA RESULT:      -7.2      7.080      9.914
REMARK  Name = Trihexyphenidyl
REMARK  6 active torsions:
REMARK  status: ('A' for Active; 'I' for Inactive)
REMARK    1  A    between atoms: O_1  and  C_2
REMARK    2  A    between atoms: C_2  and  C_3
REMARK    3  A    between atoms: C_2  and  C_11
REMARK    4  A    between atoms: C_2  and  C_17
REMARK    5  A    between atoms: C_3  and  C_4
REMARK    6  A    between atoms: C_4  and  N_5
REMARK                            x       y       z     vdW  Elec       q    Type
REMARK                         _______ _______ _______ _____ _____    ______ ____
ROOT
ATOM      1  C   UNL     1      -8.977   5.963 132.034  0.00  0.00    +0.000 C 
ENDROOT
BRANCH   1   2
ATOM      2  C   UNL     1      -7.499   6.413 132.272  0.00  0.00    +0.000 C 
ATOM      3  C   UNL     1      -6.696   5.384 133.107  0.00  0.00    +0.000 C 
ATOM      4  C   UNL     1      -5.227   5.742 133.242  0.00  0.00    +0.000 C 
ATOM      5  C   UNL     1      -4.591   5.957 131.878  0.00  0.00    +0.000 C 
ATOM      6  C   UNL     1      -5.327   7.037 131.104  0.00  0.00    +0.000 C 
ATOM      7  C   UNL     1      -6.792   6.682 130.931  0.00  0.00    +0.000 C 
ENDBRANCH   1   2
BRANCH   1   8
ATOM      8  C   UNL     1      -9.055   4.448 131.862  0.00  0.00    +0.000 A 
ATOM      9  C   UNL     1      -8.869   3.880 130.591  0.00  0.00    +0.000 A 
ATOM     10  C   UNL     1      -9.051   2.512 130.396  0.00  0.00    +0.000 A 
ATOM     11  C   UNL     1      -9.328   1.687 131.476  0.00  0.00    +0.000 A 
ATOM     12  C   UNL     1      -9.464   2.221 132.755  0.00  0.00    +0.000 A 
ATOM     13  C   UNL     1      -9.355   3.599 132.938  0.00  0.00    +0.000 A 
ENDBRANCH   1   8
BRANCH   1  14
ATOM     14  O   UNL     1      -9.770   6.347 133.172  0.00  0.00    +0.000 OA
ATOM     15  H   UNL     1      -9.770   7.315 133.236  0.00  0.00    +0.000 HD
ENDBRANCH   1  14
BRANCH   1  16
ATOM     16  C   UNL     1      -9.557   6.687 130.818  0.00  0.00    +0.000 C 
BRANCH  16  17
ATOM     17  C   UNL     1     -11.074   6.806 130.891  0.00  0.00    +0.000 C 
BRANCH  17  18
ATOM     18  N   UNL     1     -11.631   7.377 129.658  0.00  0.00    +0.000 NA
ATOM     19  C   UNL     1     -10.517   7.552 128.715  0.00  0.00    +0.000 C 
ATOM     20  C   UNL     1     -11.003   8.140 127.399  0.00  0.00    +0.000 C 
ATOM     21  C   UNL     1     -12.107   7.283 126.790  0.00  0.00    +0.000 C 
ATOM     22  C   UNL     1     -13.227   7.065 127.792  0.00  0.00    +0.000 C 
ATOM     23  C   UNL     1     -12.679   6.514 129.093  0.00  0.00    +0.000 C 
ENDBRANCH  17  18
ENDBRANCH  16  17
ENDBRANCH   1  16
TORSDOF 6
ENDMDL
MODEL 4
REMARK VINA RESULT:      -7.2      3.119      5.905
REMARK  Name = Trihexyphenidyl
REMARK  6 active torsions:
REMARK  status: ('A' for Active; 'I' for Inactive)
REMARK    1  A    between atoms: O_1  and  C_2
REMARK    2  A    between atoms: C_2  and  C_3
REMARK    3  A    between atoms: C_2  and  C_11
REMARK    4  A    between atoms: C_2  and  C_17
REMARK    5  A    between atoms: C_3  and  C_4
REMARK    6  A    between atoms: C_4  and  N_5
REMARK                            x       y       z     vdW  Elec       q    Type
REMARK                         _______ _______ _______ _____ _____    ______ ____
ROOT
ATOM      1  C   UNL     1      -7.934  -1.465 125.634  0.00  0.00    +0.000 C 
ENDROOT
BRANCH   1   2
ATOM      2  C   UNL     1      -7.758  -2.373 126.894  0.00  0.00    +0.000 C 
ATOM      3  C   UNL     1      -7.569  -1.550 128.193  0.00  0.00    +0.000 C 
ATOM      4  C   UNL     1      -7.523  -2.412 129.443  0.00  0.00    +0.000 C 
ATOM      5  C   UNL     1      -8.749  -3.306 129.534  0.00  0.00    +0.000 C 
ATOM      6  C   UNL     1      -8.871  -4.180 128.297  0.00  0.00    +0.000 C 
ATOM      7  C   UNL     1      -8.951  -3.336 127.039  0.00  0.00    +0.000 C 
ENDBRANCH   1   2
BRANCH   1   8
ATOM      8  C   UNL     1      -6.936  -1.857 124.547  0.00  0.00    +0.000 A 
ATOM      9  C   UNL     1      -7.135  -1.419 123.227  0.00  0.00    +0.000 A 
ATOM     10  C   UNL     1      -6.300  -1.860 122.203  0.00  0.00    +0.000 A 
ATOM     11  C   UNL     1      -5.208  -2.665 122.495  0.00  0.00    +0.000 A 
ATOM     12  C   UNL     1      -4.960  -3.068 123.806  0.00  0.00    +0.000 A 
ATOM     13  C   UNL     1      -5.838  -2.687 124.818  0.00  0.00    +0.000 A 
ENDBRANCH   1   8
BRANCH   1  14
ATOM     14  O   UNL     1      -9.270  -1.630 125.123  0.00  0.00    +0.000 OA
ATOM     15  H   UNL     1      -9.745  -2.252 125.697  0.00  0.00    +0.000 HD
ENDBRANCH   1  14
BRANCH   1  16
ATOM     16  C   UNL     1      -7.780   0.006 126.021  0.00  0.00    +0.000 C 
BRANCH  16  17
ATOM     17  C   UNL     1      -8.956   0.851 125.546  0.00  0.00    +0.000 C 
BRANCH  17  18
ATOM     18  N   UNL     1      -8.516   1.958 124.689  0.00  0.00    +0.000 NA
ATOM     19  C   UNL     1      -7.046   1.963 124.703  0.00  0.00    +0.000 C 
ATOM     20  C   UNL     1      -6.495   3.084 123.834  0.00  0.00    +0.000 C 
ATOM     21  C   UNL     1      -7.031   2.987 122.410  0.00  0.00    +0.000 C 
ATOM     22  C   UNL     1      -8.547   2.928 122.412  0.00  0.00    +0.000 C 
ATOM     23  C   UNL     1      -9.037   1.819 123.322  0.00  0.00    +0.000 C 
ENDBRANCH  17  18
ENDBRANCH  16  17
ENDBRANCH   1  16
TORSDOF 6
ENDMDL
MODEL 5
REMARK VINA RESULT:      -7.2      3.638      7.265
REMARK  Name = Trihexyphenidyl
REMARK  6 active torsions:
REMARK  status: ('A' for Active; 'I' for Inactive)
REMARK    1  A    between atoms: O_1  and  C_2
REMARK    2  A    between atoms: C_2  and  C_3
REMARK    3  A    between atoms: C_2  and  C_11
REMARK    4  A    between atoms: C_2  and  C_17
REMARK    5  A    between atoms: C_3  and  C_4
REMARK    6  A    between atoms: C_4  and  N_5
REMARK                            x       y       z     vdW  Elec       q    Type
REMARK                         _______ _______ _______ _____ _____    ______ ____
ROOT
ATOM      1  C   UNL     1      -6.957  -1.187 126.705  0.00  0.00    +0.000 C 
ENDROOT
BRANCH   1   2
ATOM      2  C   UNL     1      -7.084  -1.961 125.354  0.00  0.00    +0.000 C 
ATOM      3  C   UNL     1      -8.511  -2.522 125.127  0.00  0.00    +0.000 C 
ATOM      4  C   UNL     1      -8.687  -3.167 123.763  0.00  0.00    +0.000 C 
ATOM      5  C   UNL     1      -8.292  -2.209 122.651  0.00  0.00    +0.000 C 
ATOM      6  C   UNL     1      -6.858  -1.740 122.829  0.00  0.00    +0.000 C 
ATOM      7  C   UNL     1      -6.669  -1.062 124.174  0.00  0.00    +0.000 C 
ENDBRANCH   1   2
BRANCH   1   8
ATOM      8  C   UNL     1      -6.530  -2.132 127.826  0.00  0.00    +0.000 A 
ATOM      9  C   UNL     1      -7.505  -2.783 128.599  0.00  0.00    +0.000 A 
ATOM     10  C   UNL     1      -7.136  -3.557 129.697  0.00  0.00    +0.000 A 
ATOM     11  C   UNL     1      -5.793  -3.764 129.981  0.00  0.00    +0.000 A 
ATOM     12  C   UNL     1      -4.807  -3.171 129.195  0.00  0.00    +0.000 A 
ATOM     13  C   UNL     1      -5.178  -2.337 128.142  0.00  0.00    +0.000 A 
ENDBRANCH   1   8
BRANCH   1  14
ATOM     14  O   UNL     1      -5.965  -0.154 126.560  0.00  0.00    +0.000 OA
ATOM     15  H   UNL     1      -5.195  -0.529 126.104  0.00  0.00    +0.000 HD
ENDBRANCH   1  14
BRANCH   1  16
ATOM     16  C   UNL     1      -8.279  -0.494 127.041  0.00  0.00    +0.000 C 
BRANCH  16  17
ATOM     17  C   UNL     1      -8.126   1.019 127.136  0.00  0.00    +0.000 C 
BRANCH  17  18
ATOM     18  N   UNL     1      -8.800   1.701 126.024  0.00  0.00    +0.000 NA
ATOM     19  C   UNL     1      -7.754   2.292 125.177  0.00  0.00    +0.000 C 
ATOM     20  C   UNL     1      -8.362   3.023 123.989  0.00  0.00    +0.000 C 
ATOM     21  C   UNL     1      -9.267   2.099 123.181  0.00  0.00    +0.000 C 
ATOM     22  C   UNL     1     -10.308   1.454 124.078  0.00  0.00    +0.000 C 
ATOM     23  C   UNL     1      -9.647   0.775 125.260  0.00  0.00    +0.000 C 
ENDBRANCH  17  18
ENDBRANCH  16  17
ENDBRANCH   1  16
TORSDOF 6
ENDMDL
MODEL 6
REMARK VINA RESULT:      -7.1      3.318      6.929
REMARK  Name = Trihexyphenidyl
REMARK  6 active torsions:
REMARK  status: ('A' for Active; 'I' for Inactive)
REMARK    1  A    between atoms: O_1  and  C_2
REMARK    2  A    between atoms: C_2  and  C_3
REMARK    3  A    between atoms: C_2  and  C_11
REMARK    4  A    between atoms: C_2  and  C_17
REMARK    5  A    between atoms: C_3  and  C_4
REMARK    6  A    between atoms: C_4  and  N_5
REMARK                            x       y       z     vdW  Elec       q    Type
REMARK                         _______ _______ _______ _____ _____    ______ ____
ROOT
ATOM      1  C   UNL     1      -7.800  -1.193 125.806  0.00  0.00    +0.000 C 
ENDROOT
BRANCH   1   2
ATOM      2  C   UNL     1      -7.163  -2.096 124.702  0.00  0.00    +0.000 C 
ATOM      3  C   UNL     1      -6.886  -1.319 123.390  0.00  0.00    +0.000 C 
ATOM      4  C   UNL     1      -6.152  -2.147 122.350  0.00  0.00    +0.000 C 
ATOM      5  C   UNL     1      -4.871  -2.730 122.923  0.00  0.00    +0.000 C 
ATOM      6  C   UNL     1      -5.165  -3.571 124.153  0.00  0.00    +0.000 C 
ATOM      7  C   UNL     1      -5.870  -2.752 125.218  0.00  0.00    +0.000 C 
ENDBRANCH   1   2
BRANCH   1   8
ATOM      8  C   UNL     1      -8.080  -2.005 127.068  0.00  0.00    +0.000 A 
ATOM      9  C   UNL     1      -7.585  -1.562 128.306  0.00  0.00    +0.000 A 
ATOM     10  C   UNL     1      -7.732  -2.348 129.447  0.00  0.00    +0.000 A 
ATOM     11  C   UNL     1      -8.449  -3.535 129.386  0.00  0.00    +0.000 A 
ATOM     12  C   UNL     1      -8.995  -3.967 128.180  0.00  0.00    +0.000 A 
ATOM     13  C   UNL     1      -8.785  -3.217 127.024  0.00  0.00    +0.000 A 
ENDBRANCH   1   8
BRANCH   1  14
ATOM     14  O   UNL     1      -6.883  -0.131 126.127  0.00  0.00    +0.000 OA
ATOM     15  H   UNL     1      -5.977  -0.466 126.029  0.00  0.00    +0.000 HD
ENDBRANCH   1  14
BRANCH   1  16
ATOM     16  C   UNL     1      -9.077  -0.537 125.277  0.00  0.00    +0.000 C 
BRANCH  16  17
ATOM     17  C   UNL     1      -9.343   0.813 125.932  0.00  0.00    +0.000 C 
BRANCH  17  18
ATOM     18  N   UNL     1      -9.191   1.917 124.976  0.00  0.00    +0.000 NA
ATOM     19  C   UNL     1      -7.920   2.589 125.285  0.00  0.00    +0.000 C 
ATOM     20  C   UNL     1      -7.675   3.754 124.337  0.00  0.00    +0.000 C 
ATOM     21  C   UNL     1      -7.715   3.295 122.883  0.00  0.00    +0.000 C 
ATOM     22  C   UNL     1      -9.008   2.555 122.592  0.00  0.00    +0.000 C 
ATOM     23  C   UNL     1      -9.217   1.433 123.589  0.00  0.00    +0.000 C 
ENDBRANCH  17  18
ENDBRANCH  16  17
ENDBRANCH   1  16
TORSDOF 6
ENDMDL
MODEL 7
REMARK VINA RESULT:      -6.8      4.857      9.675
REMARK  Name = Trihexyphenidyl
REMARK  6 active torsions:
REMARK  status: ('A' for Active; 'I' for Inactive)
REMARK    1  A    between atoms: O_1  and  C_2
REMARK    2  A    between atoms: C_2  and  C_3
REMARK    3  A    between atoms: C_2  and  C_11
REMARK    4  A    between atoms: C_2  and  C_17
REMARK    5  A    between atoms: C_3  and  C_4
REMARK    6  A    between atoms: C_4  and  N_5
REMARK                            x       y       z     vdW  Elec       q    Type
REMARK                         _______ _______ _______ _____ _____    ______ ____
ROOT
ATOM      1  C   UNL     1      -3.942   7.067 130.927  0.00  0.00    +0.000 C 
ENDROOT
BRANCH   1   2
ATOM      2  C   UNL     1      -2.902   7.190 132.086  0.00  0.00    +0.000 C 
ATOM      3  C   UNL     1      -1.610   6.381 131.808  0.00  0.00    +0.000 C 
ATOM      4  C   UNL     1      -0.537   6.589 132.863  0.00  0.00    +0.000 C 
ATOM      5  C   UNL     1      -0.230   8.066 133.043  0.00  0.00    +0.000 C 
ATOM      6  C   UNL     1      -1.487   8.837 133.412  0.00  0.00    +0.000 C 
ATOM      7  C   UNL     1      -2.560   8.668 132.353  0.00  0.00    +0.000 C 
ENDBRANCH   1   2
BRANCH   1   8
ATOM      8  C   UNL     1      -5.306   6.648 131.472  0.00  0.00    +0.000 A 
ATOM      9  C   UNL     1      -6.475   7.031 130.795  0.00  0.00    +0.000 A 
ATOM     10  C   UNL     1      -7.728   6.756 131.339  0.00  0.00    +0.000 A 
ATOM     11  C   UNL     1      -7.831   6.021 132.511  0.00  0.00    +0.000 A 
ATOM     12  C   UNL     1      -6.684   5.584 133.172  0.00  0.00    +0.000 A 
ATOM     13  C   UNL     1      -5.430   5.923 132.667  0.00  0.00    +0.000 A 
ENDBRANCH   1   8
BRANCH   1  14
ATOM     14  O   UNL     1      -4.071   8.346 130.278  0.00  0.00    +0.000 OA
ATOM     15  H   UNL     1      -3.856   9.040 130.921  0.00  0.00    +0.000 HD
ENDBRANCH   1  14
BRANCH   1  16
ATOM     16  C   UNL     1      -3.442   6.078 129.873  0.00  0.00    +0.000 C 
BRANCH  16  17
ATOM     17  C   UNL     1      -3.673   6.584 128.455  0.00  0.00    +0.000 C 
BRANCH  17  18
ATOM     18  N   UNL     1      -3.377   5.549 127.456  0.00  0.00    +0.000 NA
ATOM     19  C   UNL     1      -2.506   4.556 128.102  0.00  0.00    +0.000 C 
ATOM     20  C   UNL     1      -2.147   3.436 127.137  0.00  0.00    +0.000 C 
ATOM     21  C   UNL     1      -3.399   2.780 126.567  0.00  0.00    +0.000 C 
ATOM     22  C   UNL     1      -4.315   3.822 125.952  0.00  0.00    +0.000 C 
ATOM     23  C   UNL     1      -4.608   4.929 126.946  0.00  0.00    +0.000 C 
ENDBRANCH  17  18
ENDBRANCH  16  17
ENDBRANCH   1  16
TORSDOF 6
ENDMDL
MODEL 8
REMARK VINA RESULT:      -6.7      3.682      5.215
REMARK  Name = Trihexyphenidyl
REMARK  6 active torsions:
REMARK  status: ('A' for Active; 'I' for Inactive)
REMARK    1  A    between atoms: O_1  and  C_2
REMARK    2  A    between atoms: C_2  and  C_3
REMARK    3  A    between atoms: C_2  and  C_11
REMARK    4  A    between atoms: C_2  and  C_17
REMARK    5  A    between atoms: C_3  and  C_4
REMARK    6  A    between atoms: C_4  and  N_5
REMARK                            x       y       z     vdW  Elec       q    Type
REMARK                         _______ _______ _______ _____ _____    ______ ____
ROOT
ATOM      1  C   UNL     1      -6.407  -1.107 126.667  0.00  0.00    +0.000 C 
ENDROOT
BRANCH   1   2
ATOM      2  C   UNL     1      -6.229  -2.335 127.616  0.00  0.00    +0.000 C 
ATOM      3  C   UNL     1      -4.933  -2.245 128.461  0.00  0.00    +0.000 C 
ATOM      4  C   UNL     1      -4.806  -3.364 129.479  0.00  0.00    +0.000 C 
ATOM      5  C   UNL     1      -6.037  -3.434 130.368  0.00  0.00    +0.000 C 
ATOM      6  C   UNL     1      -7.294  -3.621 129.535  0.00  0.00    +0.000 C 
ATOM      7  C   UNL     1      -7.456  -2.493 128.533  0.00  0.00    +0.000 C 
ENDBRANCH   1   2
BRANCH   1   8
ATOM      8  C   UNL     1      -6.256  -1.530 125.207  0.00  0.00    +0.000 A 
ATOM      9  C   UNL     1      -5.527  -2.688 124.890  0.00  0.00    +0.000 A 
ATOM     10  C   UNL     1      -5.282  -3.026 123.560  0.00  0.00    +0.000 A 
ATOM     11  C   UNL     1      -5.835  -2.267 122.538  0.00  0.00    +0.000 A 
ATOM     12  C   UNL     1      -6.606  -1.145 122.830  0.00  0.00    +0.000 A 
ATOM     13  C   UNL     1      -6.789  -0.766 124.159  0.00  0.00    +0.000 A 
ENDBRANCH   1   8
BRANCH   1  14
ATOM     14  O   UNL     1      -7.723  -0.555 126.859  0.00  0.00    +0.000 OA
ATOM     15  H   UNL     1      -7.919   0.040 126.119  0.00  0.00    +0.000 HD
ENDBRANCH   1  14
BRANCH   1  16
ATOM     16  C   UNL     1      -5.404  -0.011 127.030  0.00  0.00    +0.000 C 
BRANCH  16  17
ATOM     17  C   UNL     1      -6.091   1.251 127.537  0.00  0.00    +0.000 C 
BRANCH  17  18
ATOM     18  N   UNL     1      -5.186   2.407 127.512  0.00  0.00    +0.000 NA
ATOM     19  C   UNL     1      -4.336   2.321 128.708  0.00  0.00    +0.000 C 
ATOM     20  C   UNL     1      -3.357   3.485 128.766  0.00  0.00    +0.000 C 
ATOM     21  C   UNL     1      -2.515   3.557 127.498  0.00  0.00    +0.000 C 
ATOM     22  C   UNL     1      -3.404   3.590 126.268  0.00  0.00    +0.000 C 
ATOM     23  C   UNL     1      -4.380   2.431 126.283  0.00  0.00    +0.000 C 
ENDBRANCH  17  18
ENDBRANCH  16  17
ENDBRANCH   1  16
TORSDOF 6
ENDMDL
MODEL 9
REMARK VINA RESULT:      -6.6      6.170      8.865
REMARK  Name = Trihexyphenidyl
REMARK  6 active torsions:
REMARK  status: ('A' for Active; 'I' for Inactive)
REMARK    1  A    between atoms: O_1  and  C_2
REMARK    2  A    between atoms: C_2  and  C_3
REMARK    3  A    between atoms: C_2  and  C_11
REMARK    4  A    between atoms: C_2  and  C_17
REMARK    5  A    between atoms: C_3  and  C_4
REMARK    6  A    between atoms: C_4  and  N_5
REMARK                            x       y       z     vdW  Elec       q    Type
REMARK                         _______ _______ _______ _____ _____    ______ ____
ROOT
ATOM      1  C   UNL     1      -9.562   5.297 130.508  0.00  0.00    +0.000 C 
ENDROOT
BRANCH   1   2
ATOM      2  C   UNL     1     -10.423   6.600 130.480  0.00  0.00    +0.000 C 
ATOM      3  C   UNL     1     -10.492   7.232 129.067  0.00  0.00    +0.000 C 
ATOM      4  C   UNL     1     -11.426   8.428 128.994  0.00  0.00    +0.000 C 
ATOM      5  C   UNL     1     -12.812   8.068 129.501  0.00  0.00    +0.000 C 
ATOM      6  C   UNL     1     -12.745   7.540 130.924  0.00  0.00    +0.000 C 
ATOM      7  C   UNL     1     -11.842   6.325 131.013  0.00  0.00    +0.000 C 
ENDBRANCH   1   2
BRANCH   1   8
ATOM      8  C   UNL     1      -9.181   4.936 131.943  0.00  0.00    +0.000 A 
ATOM      9  C   UNL     1      -8.660   5.924 132.794  0.00  0.00    +0.000 A 
ATOM     10  C   UNL     1      -8.201   5.589 134.066  0.00  0.00    +0.000 A 
ATOM     11  C   UNL     1      -8.339   4.290 134.535  0.00  0.00    +0.000 A 
ATOM     12  C   UNL     1      -8.903   3.305 133.727  0.00  0.00    +0.000 A 
ATOM     13  C   UNL     1      -9.294   3.625 132.428  0.00  0.00    +0.000 A 
ENDBRANCH   1   8
BRANCH   1  14
ATOM     14  O   UNL     1     -10.331   4.218 129.944  0.00  0.00    +0.000 OA
ATOM     15  H   UNL     1     -11.107   4.593 129.498  0.00  0.00    +0.000 HD
ENDBRANCH   1  14
BRANCH   1  16
ATOM     16  C   UNL     1      -8.320   5.468 129.634  0.00  0.00    +0.000 C 
BRANCH  16  17
ATOM     17  C   UNL     1      -8.164   4.333 128.629  0.00  0.00    +0.000 C 
BRANCH  17  18
ATOM     18  N   UNL     1      -7.277   4.710 127.520  0.00  0.00    +0.000 NA
ATOM     19  C   UNL     1      -5.940   4.186 127.834  0.00  0.00    +0.000 C 
ATOM     20  C   UNL     1      -4.947   4.528 126.733  0.00  0.00    +0.000 C 
ATOM     21  C   UNL     1      -5.433   4.021 125.380  0.00  0.00    +0.000 C 
ATOM     22  C   UNL     1      -6.836   4.525 125.093  0.00  0.00    +0.000 C 
ATOM     23  C   UNL     1      -7.769   4.188 126.238  0.00  0.00    +0.000 C 
ENDBRANCH  17  18
ENDBRANCH  16  17
ENDBRANCH   1  16
TORSDOF 6
ENDMDL
