MODEL 1
REMARK VINA RESULT:      -8.1      0.000      0.000
REMARK  Name = Trilostane
REMARK  5 active torsions:
REMARK  status: ('A' for Active; 'I' for Inactive)
REMARK    1  A    between atoms: C_5  and  O_6
REMARK    2  A    between atoms: C_7  and  C_8
REMARK    3  A    between atoms: C_20  and  O_21
REMARK    4  A    between atoms: C_22  and  C_26
REMARK    5  A    between atoms: C_24  and  C_25
REMARK                            x       y       z     vdW  Elec       q    Type
REMARK                         _______ _______ _______ _____ _____    ______ ____
ROOT
ATOM      1  C   UNL     1      -7.020  -2.097 128.518  0.00  0.00    +0.000 C 
ATOM      2  C   UNL     1      -8.050  -1.231 128.895  0.00  0.00    +0.000 C 
ATOM      3  C   UNL     1      -7.072  -0.466 128.055  0.00  0.00    +0.000 C 
ATOM      4  C   UNL     1      -5.381  -1.556 127.579  0.00  0.00    +0.000 C 
ATOM      5  C   UNL     1      -5.609  -0.913 128.758  0.00  0.00    +0.000 C 
ATOM      6  C   UNL     1      -5.173  -1.023 130.131  0.00  0.00    +0.000 C 
ATOM      7  C   UNL     1      -5.177   0.518 127.689  0.00  0.00    +0.000 C 
ATOM      8  C   UNL     1      -5.577   0.169 126.039  0.00  0.00    +0.000 C 
ATOM      9  C   UNL     1      -6.979  -0.726 125.736  0.00  0.00    +0.000 C 
ATOM     10  C   UNL     1      -7.481  -2.267 126.946  0.00  0.00    +0.000 C 
ATOM     11  C   UNL     1      -8.976  -3.231 126.448  0.00  0.00    +0.000 C 
ATOM     12  C   UNL     1      -9.410  -3.413 124.500  0.00  0.00    +0.000 C 
ATOM     13  C   UNL     1      -8.373  -2.473 123.816  0.00  0.00    +0.000 C 
ATOM     14  O   UNL     1      -8.652  -1.952 124.956  0.00  0.00    +0.000 OA
ATOM     15  C   UNL     1      -7.722  -3.576 124.469  0.00  0.00    +0.000 C 
ATOM     16  C   UNL     1      -6.329  -3.660 124.566  0.00  0.00    +0.000 C 
ATOM     17  C   UNL     1      -5.524  -3.326 123.624  0.00  0.00    +0.000 C 
ATOM     18  C   UNL     1      -5.710  -1.858 123.297  0.00  0.00    +0.000 C 
ATOM     19  C   UNL     1      -7.085  -1.158 123.925  0.00  0.00    +0.000 C 
ATOM     20  C   UNL     1      -7.178   0.279 123.338  0.00  0.00    +0.000 C 
ENDROOT
BRANCH   4  21
ATOM     21  O   UNL     1      -4.799  -2.835 128.111  0.00  0.00    +0.000 OA
ATOM     22  H   UNL     1      -4.843  -3.609 127.512  0.00  0.00    +0.000 HD
ENDBRANCH   4  21
BRANCH  16  23
ATOM     23  O   UNL     1      -6.127  -2.654 125.384  0.00  0.00    +0.000 OA
ATOM     24  H   UNL     1      -5.846  -2.009 124.658  0.00  0.00    +0.000 HD
ENDBRANCH  16  23
BRANCH  17  25
ATOM     25  C   UNL     1      -4.489  -4.316 123.591  0.00  0.00    +0.000 C 
ATOM     26  N   UNL     1      -3.830  -5.150 123.258  0.00  0.00    +0.000 NA
ENDBRANCH  17  25
TORSDOF 3
ENDMDL
MODEL 2
REMARK VINA RESULT:      -7.6      1.742      2.568
REMARK  Name = Trilostane
REMARK  5 active torsions:
REMARK  status: ('A' for Active; 'I' for Inactive)
REMARK    1  A    between atoms: C_5  and  O_6
REMARK    2  A    between atoms: C_7  and  C_8
REMARK    3  A    between atoms: C_20  and  O_21
REMARK    4  A    between atoms: C_22  and  C_26
REMARK    5  A    between atoms: C_24  and  C_25
REMARK                            x       y       z     vdW  Elec       q    Type
REMARK                         _______ _______ _______ _____ _____    ______ ____
ROOT
ATOM      1  C   UNL     1      -6.874   0.798 127.302  0.00  0.00    +0.000 C 
ATOM      2  C   UNL     1      -8.062   1.419 127.697  0.00  0.00    +0.000 C 
ATOM      3  C   UNL     1      -7.855   1.678 126.235  0.00  0.00    +0.000 C 
ATOM      4  C   UNL     1      -6.036   0.991 125.535  0.00  0.00    +0.000 C 
ATOM      5  C   UNL     1      -6.242   2.158 126.207  0.00  0.00    +0.000 C 
ATOM      6  C   UNL     1      -5.473   3.062 127.029  0.00  0.00    +0.000 C 
ATOM      7  C   UNL     1      -6.881   2.623 124.547  0.00  0.00    +0.000 C 
ATOM      8  C   UNL     1      -7.462   1.216 123.718  0.00  0.00    +0.000 C 
ATOM      9  C   UNL     1      -8.248   0.029 124.630  0.00  0.00    +0.000 C 
ATOM     10  C   UNL     1      -7.575  -0.444 126.477  0.00  0.00    +0.000 C 
ATOM     11  C   UNL     1      -8.453  -1.830 127.326  0.00  0.00    +0.000 C 
ATOM     12  C   UNL     1      -9.224  -3.314 126.222  0.00  0.00    +0.000 C 
ATOM     13  C   UNL     1      -9.016  -2.813 124.761  0.00  0.00    +0.000 C 
ATOM     14  O   UNL     1      -9.214  -1.772 125.486  0.00  0.00    +0.000 OA
ATOM     15  C   UNL     1      -7.756  -3.041 125.415  0.00  0.00    +0.000 C 
ATOM     16  C   UNL     1      -6.540  -2.701 124.814  0.00  0.00    +0.000 C 
ATOM     17  C   UNL     1      -6.287  -2.864 123.567  0.00  0.00    +0.000 C 
ATOM     18  C   UNL     1      -7.262  -2.048 122.742  0.00  0.00    +0.000 C 
ATOM     19  C   UNL     1      -8.586  -1.471 123.573  0.00  0.00    +0.000 C 
ATOM     20  C   UNL     1      -9.536  -0.820 122.527  0.00  0.00    +0.000 C 
ENDROOT
BRANCH   4  21
ATOM     21  O   UNL     1      -4.775   0.540 126.218  0.00  0.00    +0.000 OA
ATOM     22  H   UNL     1      -4.779  -0.375 126.565  0.00  0.00    +0.000 HD
ENDBRANCH   4  21
BRANCH  16  23
ATOM     23  O   UNL     1      -6.667  -1.395 124.836  0.00  0.00    +0.000 OA
ATOM     24  H   UNL     1      -7.635  -1.399 124.542  0.00  0.00    +0.000 HD
ENDBRANCH  16  23
BRANCH  17  25
ATOM     25  C   UNL     1      -4.944  -3.355 123.475  0.00  0.00    +0.000 C 
ATOM     26  N   UNL     1      -4.058  -4.028 123.502  0.00  0.00    +0.000 NA
ENDBRANCH  17  25
TORSDOF 3
ENDMDL
MODEL 3
REMARK VINA RESULT:      -7.5      2.884      4.986
REMARK  Name = Trilostane
REMARK  5 active torsions:
REMARK  status: ('A' for Active; 'I' for Inactive)
REMARK    1  A    between atoms: C_5  and  O_6
REMARK    2  A    between atoms: C_7  and  C_8
REMARK    3  A    between atoms: C_20  and  O_21
REMARK    4  A    between atoms: C_22  and  C_26
REMARK    5  A    between atoms: C_24  and  C_25
REMARK                            x       y       z     vdW  Elec       q    Type
REMARK                         _______ _______ _______ _____ _____    ______ ____
ROOT
ATOM      1  C   UNL     1      -7.625  -2.592 123.316  0.00  0.00    +0.000 C 
ATOM      2  C   UNL     1      -8.532  -3.416 123.989  0.00  0.00    +0.000 C 
ATOM      3  C   UNL     1      -7.719  -2.675 125.007  0.00  0.00    +0.000 C 
ATOM      4  C   UNL     1      -6.192  -1.558 124.175  0.00  0.00    +0.000 C 
ATOM      5  C   UNL     1      -6.159  -2.899 124.415  0.00  0.00    +0.000 C 
ATOM      6  C   UNL     1      -5.461  -4.054 123.902  0.00  0.00    +0.000 C 
ATOM      7  C   UNL     1      -5.908  -2.259 126.120  0.00  0.00    +0.000 C 
ATOM      8  C   UNL     1      -6.640  -0.697 126.284  0.00  0.00    +0.000 C 
ATOM      9  C   UNL     1      -8.101  -0.420 125.478  0.00  0.00    +0.000 C 
ATOM     10  C   UNL     1      -8.396  -1.170 123.624  0.00  0.00    +0.000 C 
ATOM     11  C   UNL     1      -9.989  -0.707 122.810  0.00  0.00    +0.000 C 
ATOM     12  C   UNL     1     -10.810   1.073 123.223  0.00  0.00    +0.000 C 
ATOM     13  C   UNL     1      -9.903   1.627 124.362  0.00  0.00    +0.000 C 
ATOM     14  O   UNL     1      -9.932   0.350 124.497  0.00  0.00    +0.000 OA
ATOM     15  C   UNL     1      -9.168   1.489 123.134  0.00  0.00    +0.000 C 
ATOM     16  C   UNL     1      -7.787   1.704 123.071  0.00  0.00    +0.000 C 
ATOM     17  C   UNL     1      -7.178   2.637 123.706  0.00  0.00    +0.000 C 
ATOM     18  C   UNL     1      -7.381   2.452 125.197  0.00  0.00    +0.000 C 
ATOM     19  C   UNL     1      -8.580   1.377 125.622  0.00  0.00    +0.000 C 
ATOM     20  C   UNL     1      -8.745   1.460 127.166  0.00  0.00    +0.000 C 
ENDROOT
BRANCH   4  21
ATOM     21  O   UNL     1      -5.553  -1.542 122.814  0.00  0.00    +0.000 OA
ATOM     22  H   UNL     1      -5.323  -0.659 122.459  0.00  0.00    +0.000 HD
ENDBRANCH   4  21
BRANCH  16  23
ATOM     23  O   UNL     1      -7.395   0.673 123.783  0.00  0.00    +0.000 OA
ATOM     24  H   UNL     1      -7.178   0.095 122.982  0.00  0.00    +0.000 HD
ENDBRANCH  16  23
BRANCH  17  25
ATOM     25  C   UNL     1      -6.200   3.181 122.811  0.00  0.00    +0.000 C 
ATOM     26  N   UNL     1      -5.721   3.635 121.914  0.00  0.00    +0.000 NA
ENDBRANCH  17  25
TORSDOF 3
ENDMDL
MODEL 4
REMARK VINA RESULT:      -7.4      2.592      4.351
REMARK  Name = Trilostane
REMARK  5 active torsions:
REMARK  status: ('A' for Active; 'I' for Inactive)
REMARK    1  A    between atoms: C_5  and  O_6
REMARK    2  A    between atoms: C_7  and  C_8
REMARK    3  A    between atoms: C_20  and  O_21
REMARK    4  A    between atoms: C_22  and  C_26
REMARK    5  A    between atoms: C_24  and  C_25
REMARK                            x       y       z     vdW  Elec       q    Type
REMARK                         _______ _______ _______ _____ _____    ______ ____
ROOT
ATOM      1  C   UNL     1      -9.044   1.747 124.402  0.00  0.00    +0.000 C 
ATOM      2  C   UNL     1      -8.709   2.119 123.098  0.00  0.00    +0.000 C 
ATOM      3  C   UNL     1      -7.443   1.839 123.851  0.00  0.00    +0.000 C 
ATOM      4  C   UNL     1      -7.755   1.466 125.859  0.00  0.00    +0.000 C 
ATOM      5  C   UNL     1      -7.707   2.695 125.275  0.00  0.00    +0.000 C 
ATOM      6  C   UNL     1      -8.213   4.021 125.544  0.00  0.00    +0.000 C 
ATOM      7  C   UNL     1      -5.915   2.287 125.319  0.00  0.00    +0.000 C 
ATOM      8  C   UNL     1      -5.695   0.569 125.277  0.00  0.00    +0.000 C 
ATOM      9  C   UNL     1      -6.752  -0.341 124.321  0.00  0.00    +0.000 C 
ATOM     10  C   UNL     1      -8.714   0.142 124.233  0.00  0.00    +0.000 C 
ATOM     11  C   UNL     1      -9.781  -0.992 123.239  0.00  0.00    +0.000 C 
ATOM     12  C   UNL     1      -9.309  -2.937 123.146  0.00  0.00    +0.000 C 
ATOM     13  C   UNL     1      -7.933  -3.004 123.873  0.00  0.00    +0.000 C 
ATOM     14  O   UNL     1      -7.990  -1.861 123.289  0.00  0.00    +0.000 OA
ATOM     15  C   UNL     1      -8.978  -2.604 124.776  0.00  0.00    +0.000 C 
ATOM     16  C   UNL     1      -8.707  -2.202 126.088  0.00  0.00    +0.000 C 
ATOM     17  C   UNL     1      -7.829  -2.757 126.840  0.00  0.00    +0.000 C 
ATOM     18  C   UNL     1      -6.460  -2.626 126.203  0.00  0.00    +0.000 C 
ATOM     19  C   UNL     1      -6.463  -2.163 124.602  0.00  0.00    +0.000 C 
ATOM     20  C   UNL     1      -4.996  -2.256 124.094  0.00  0.00    +0.000 C 
ENDROOT
BRANCH   4  21
ATOM     21  O   UNL     1      -8.928   1.681 126.775  0.00  0.00    +0.000 OA
ATOM     22  H   UNL     1      -8.712   1.876 127.710  0.00  0.00    +0.000 HD
ENDBRANCH   4  21
BRANCH  16  23
ATOM     23  O   UNL     1      -8.080  -1.079 125.824  0.00  0.00    +0.000 OA
ATOM     24  H   UNL     1      -7.962  -0.817 126.793  0.00  0.00    +0.000 HD
ENDBRANCH  16  23
BRANCH  17  25
ATOM     25  C   UNL     1      -8.403  -2.854 128.150  0.00  0.00    +0.000 C 
ATOM     26  N   UNL     1      -8.520  -2.993 129.248  0.00  0.00    +0.000 NA
ENDBRANCH  17  25
TORSDOF 3
ENDMDL
MODEL 5
REMARK VINA RESULT:      -7.0      8.882     11.063
REMARK  Name = Trilostane
REMARK  5 active torsions:
REMARK  status: ('A' for Active; 'I' for Inactive)
REMARK    1  A    between atoms: C_5  and  O_6
REMARK    2  A    between atoms: C_7  and  C_8
REMARK    3  A    between atoms: C_20  and  O_21
REMARK    4  A    between atoms: C_22  and  C_26
REMARK    5  A    between atoms: C_24  and  C_25
REMARK                            x       y       z     vdW  Elec       q    Type
REMARK                         _______ _______ _______ _____ _____    ______ ____
ROOT
ATOM      1  C   UNL     1     -10.201   4.446 131.426  0.00  0.00    +0.000 C 
ATOM      2  C   UNL     1      -9.921   3.834 130.202  0.00  0.00    +0.000 C 
ATOM      3  C   UNL     1      -9.068   5.060 130.325  0.00  0.00    +0.000 C 
ATOM      4  C   UNL     1      -9.505   6.192 131.998  0.00  0.00    +0.000 C 
ATOM      5  C   UNL     1     -10.197   6.203 130.825  0.00  0.00    +0.000 C 
ATOM      6  C   UNL     1     -11.536   6.518 130.384  0.00  0.00    +0.000 C 
ATOM      7  C   UNL     1      -8.730   7.199 130.343  0.00  0.00    +0.000 C 
ATOM      8  C   UNL     1      -7.360   6.743 131.302  0.00  0.00    +0.000 C 
ATOM      9  C   UNL     1      -7.185   5.110 131.704  0.00  0.00    +0.000 C 
ATOM     10  C   UNL     1      -8.807   4.002 132.183  0.00  0.00    +0.000 C 
ATOM     11  C   UNL     1      -8.471   2.263 132.707  0.00  0.00    +0.000 C 
ATOM     12  C   UNL     1      -6.761   1.850 133.666  0.00  0.00    +0.000 C 
ATOM     13  C   UNL     1      -5.979   3.195 133.592  0.00  0.00    +0.000 C 
ATOM     14  O   UNL     1      -6.680   3.113 132.518  0.00  0.00    +0.000 OA
ATOM     15  C   UNL     1      -7.177   3.334 134.374  0.00  0.00    +0.000 C 
ATOM     16  C   UNL     1      -7.603   4.576 134.858  0.00  0.00    +0.000 C 
ATOM     17  C   UNL     1      -6.812   5.475 135.319  0.00  0.00    +0.000 C 
ATOM     18  C   UNL     1      -5.839   5.898 134.237  0.00  0.00    +0.000 C 
ATOM     19  C   UNL     1      -5.776   4.896 132.908  0.00  0.00    +0.000 C 
ATOM     20  C   UNL     1      -4.611   5.399 132.008  0.00  0.00    +0.000 C 
ENDROOT
BRANCH   4  21
ATOM     21  O   UNL     1     -10.660   6.202 132.960  0.00  0.00    +0.000 OA
ATOM     22  H   UNL     1     -11.489   6.606 132.631  0.00  0.00    +0.000 HD
ENDBRANCH   4  21
BRANCH  16  23
ATOM     23  O   UNL     1      -7.915   5.137 133.713  0.00  0.00    +0.000 OA
ATOM     24  H   UNL     1      -6.970   5.425 133.498  0.00  0.00    +0.000 HD
ENDBRANCH  16  23
BRANCH  17  25
ATOM     25  C   UNL     1      -7.447   6.033 136.477  0.00  0.00    +0.000 C 
ATOM     26  N   UNL     1      -8.004   6.721 137.151  0.00  0.00    +0.000 NA
ENDBRANCH  17  25
TORSDOF 3
ENDMDL
MODEL 6
REMARK VINA RESULT:      -6.9      2.046      5.077
REMARK  Name = Trilostane
REMARK  5 active torsions:
REMARK  status: ('A' for Active; 'I' for Inactive)
REMARK    1  A    between atoms: C_5  and  O_6
REMARK    2  A    between atoms: C_7  and  C_8
REMARK    3  A    between atoms: C_20  and  O_21
REMARK    4  A    between atoms: C_22  and  C_26
REMARK    5  A    between atoms: C_24  and  C_25
REMARK                            x       y       z     vdW  Elec       q    Type
REMARK                         _______ _______ _______ _____ _____    ______ ____
ROOT
ATOM      1  C   UNL     1      -6.858  -0.468 124.801  0.00  0.00    +0.000 C 
ATOM      2  C   UNL     1      -8.150   0.005 124.554  0.00  0.00    +0.000 C 
ATOM      3  C   UNL     1      -8.231  -1.462 124.852  0.00  0.00    +0.000 C 
ATOM      4  C   UNL     1      -6.379  -2.357 125.046  0.00  0.00    +0.000 C 
ATOM      5  C   UNL     1      -7.006  -2.069 123.872  0.00  0.00    +0.000 C 
ATOM      6  C   UNL     1      -6.630  -1.817 122.500  0.00  0.00    +0.000 C 
ATOM      7  C   UNL     1      -7.952  -3.559 124.387  0.00  0.00    +0.000 C 
ATOM      8  C   UNL     1      -7.939  -3.705 126.113  0.00  0.00    +0.000 C 
ATOM      9  C   UNL     1      -8.024  -2.285 127.028  0.00  0.00    +0.000 C 
ATOM     10  C   UNL     1      -7.024  -0.631 126.431  0.00  0.00    +0.000 C 
ATOM     11  C   UNL     1      -7.111   0.820 127.571  0.00  0.00    +0.000 C 
ATOM     12  C   UNL     1      -7.262   0.499 129.543  0.00  0.00    +0.000 C 
ATOM     13  C   UNL     1      -7.448  -1.044 129.638  0.00  0.00    +0.000 C 
ATOM     14  O   UNL     1      -8.006  -0.669 128.544  0.00  0.00    +0.000 OA
ATOM     15  C   UNL     1      -6.156  -0.709 129.104  0.00  0.00    +0.000 C 
ATOM     16  C   UNL     1      -5.282  -1.688 128.618  0.00  0.00    +0.000 C 
ATOM     17  C   UNL     1      -5.114  -2.835 129.166  0.00  0.00    +0.000 C 
ATOM     18  C   UNL     1      -6.428  -3.590 129.171  0.00  0.00    +0.000 C 
ATOM     19  C   UNL     1      -7.777  -2.672 128.836  0.00  0.00    +0.000 C 
ATOM     20  C   UNL     1      -9.019  -3.580 129.060  0.00  0.00    +0.000 C 
ENDROOT
BRANCH   4  21
ATOM     21  O   UNL     1      -4.984  -1.924 124.687  0.00  0.00    +0.000 OA
ATOM     22  H   UNL     1      -4.515  -2.484 124.035  0.00  0.00    +0.000 HD
ENDBRANCH   4  21
BRANCH  16  23
ATOM     23  O   UNL     1      -5.967  -2.055 127.560  0.00  0.00    +0.000 OA
ATOM     24  H   UNL     1      -5.287  -2.737 127.252  0.00  0.00    +0.000 HD
ENDBRANCH  16  23
BRANCH  17  25
ATOM     25  C   UNL     1      -3.709  -3.115 129.124  0.00  0.00    +0.000 C 
ATOM     26  N   UNL     1      -2.725  -3.620 129.252  0.00  0.00    +0.000 NA
ENDBRANCH  17  25
TORSDOF 3
ENDMDL
MODEL 7
REMARK VINA RESULT:      -6.9      1.951      4.474
REMARK  Name = Trilostane
REMARK  5 active torsions:
REMARK  status: ('A' for Active; 'I' for Inactive)
REMARK    1  A    between atoms: C_5  and  O_6
REMARK    2  A    between atoms: C_7  and  C_8
REMARK    3  A    between atoms: C_20  and  O_21
REMARK    4  A    between atoms: C_22  and  C_26
REMARK    5  A    between atoms: C_24  and  C_25
REMARK                            x       y       z     vdW  Elec       q    Type
REMARK                         _______ _______ _______ _____ _____    ______ ____
ROOT
ATOM      1  C   UNL     1      -7.423   1.896 124.791  0.00  0.00    +0.000 C 
ATOM      2  C   UNL     1      -8.421   2.467 125.586  0.00  0.00    +0.000 C 
ATOM      3  C   UNL     1      -9.043   1.398 124.740  0.00  0.00    +0.000 C 
ATOM      4  C   UNL     1      -7.735   0.587 123.360  0.00  0.00    +0.000 C 
ATOM      5  C   UNL     1      -8.410   1.762 123.224  0.00  0.00    +0.000 C 
ATOM      6  C   UNL     1      -8.251   3.001 122.498  0.00  0.00    +0.000 C 
ATOM      7  C   UNL     1      -9.764   0.569 122.873  0.00  0.00    +0.000 C 
ATOM      8  C   UNL     1      -9.461  -0.931 123.686  0.00  0.00    +0.000 C 
ATOM      9  C   UNL     1      -8.758  -0.869 125.223  0.00  0.00    +0.000 C 
ATOM     10  C   UNL     1      -7.306   0.480 125.623  0.00  0.00    +0.000 C 
ATOM     11  C   UNL     1      -6.546   0.374 127.303  0.00  0.00    +0.000 C 
ATOM     12  C   UNL     1      -6.411  -1.414 128.198  0.00  0.00    +0.000 C 
ATOM     13  C   UNL     1      -7.200  -2.352 127.237  0.00  0.00    +0.000 C 
ATOM     14  O   UNL     1      -7.761  -1.199 127.174  0.00  0.00    +0.000 OA
ATOM     15  C   UNL     1      -6.024  -1.825 126.599  0.00  0.00    +0.000 C 
ATOM     16  C   UNL     1      -5.756  -2.048 125.244  0.00  0.00    +0.000 C 
ATOM     17  C   UNL     1      -5.974  -3.161 124.645  0.00  0.00    +0.000 C 
ATOM     18  C   UNL     1      -7.452  -3.492 124.712  0.00  0.00    +0.000 C 
ATOM     19  C   UNL     1      -8.333  -2.591 125.802  0.00  0.00    +0.000 C 
ATOM     20  C   UNL     1      -9.766  -3.193 125.844  0.00  0.00    +0.000 C 
ENDROOT
BRANCH   4  21
ATOM     21  O   UNL     1      -6.393   1.018 122.839  0.00  0.00    +0.000 OA
ATOM     22  H   UNL     1      -6.234   0.866 121.885  0.00  0.00    +0.000 HD
ENDBRANCH   4  21
BRANCH  16  23
ATOM     23  O   UNL     1      -6.732  -1.336 124.730  0.00  0.00    +0.000 OA
ATOM     24  H   UNL     1      -6.759  -1.846 123.858  0.00  0.00    +0.000 HD
ENDBRANCH  16  23
BRANCH  17  25
ATOM     25  C   UNL     1      -4.855  -3.395 123.781  0.00  0.00    +0.000 C 
ATOM     26  N   UNL     1      -4.034  -3.899 123.223  0.00  0.00    +0.000 NA
ENDBRANCH  17  25
TORSDOF 3
ENDMDL
MODEL 8
REMARK VINA RESULT:      -6.8      2.601      5.419
REMARK  Name = Trilostane
REMARK  5 active torsions:
REMARK  status: ('A' for Active; 'I' for Inactive)
REMARK    1  A    between atoms: C_5  and  O_6
REMARK    2  A    between atoms: C_7  and  C_8
REMARK    3  A    between atoms: C_20  and  O_21
REMARK    4  A    between atoms: C_22  and  C_26
REMARK    5  A    between atoms: C_24  and  C_25
REMARK                            x       y       z     vdW  Elec       q    Type
REMARK                         _______ _______ _______ _____ _____    ______ ____
ROOT
ATOM      1  C   UNL     1      -8.693  -2.779 125.084  0.00  0.00    +0.000 C 
ATOM      2  C   UNL     1      -8.337  -4.108 124.842  0.00  0.00    +0.000 C 
ATOM      3  C   UNL     1      -7.090  -3.276 124.843  0.00  0.00    +0.000 C 
ATOM      4  C   UNL     1      -7.464  -1.249 124.992  0.00  0.00    +0.000 C 
ATOM      5  C   UNL     1      -7.546  -1.993 123.854  0.00  0.00    +0.000 C 
ATOM      6  C   UNL     1      -8.238  -1.926 122.589  0.00  0.00    +0.000 C 
ATOM      7  C   UNL     1      -5.721  -1.825 124.000  0.00  0.00    +0.000 C 
ATOM      8  C   UNL     1      -5.273  -1.624 125.662  0.00  0.00    +0.000 C 
ATOM      9  C   UNL     1      -6.144  -2.487 126.826  0.00  0.00    +0.000 C 
ATOM     10  C   UNL     1      -8.144  -2.716 126.636  0.00  0.00    +0.000 C 
ATOM     11  C   UNL     1      -8.994  -3.586 128.027  0.00  0.00    +0.000 C 
ATOM     12  C   UNL     1      -8.263  -3.396 129.883  0.00  0.00    +0.000 C 
ATOM     13  C   UNL     1      -6.934  -2.614 129.662  0.00  0.00    +0.000 C 
ATOM     14  O   UNL     1      -7.108  -3.350 128.625  0.00  0.00    +0.000 OA
ATOM     15  C   UNL     1      -8.072  -1.815 129.299  0.00  0.00    +0.000 C 
ATOM     16  C   UNL     1      -7.932  -0.560 128.696  0.00  0.00    +0.000 C 
ATOM     17  C   UNL     1      -7.032   0.294 129.021  0.00  0.00    +0.000 C 
ATOM     18  C   UNL     1      -5.658  -0.303 128.785  0.00  0.00    +0.000 C 
ATOM     19  C   UNL     1      -5.632  -1.950 128.538  0.00  0.00    +0.000 C 
ATOM     20  C   UNL     1      -4.139  -2.384 128.491  0.00  0.00    +0.000 C 
ENDROOT
BRANCH   4  21
ATOM     21  O   UNL     1      -8.704  -0.417 124.826  0.00  0.00    +0.000 OA
ATOM     22  H   UNL     1      -8.808   0.032 123.962  0.00  0.00    +0.000 HD
ENDBRANCH   4  21
BRANCH  16  23
ATOM     23  O   UNL     1      -7.446  -0.950 127.540  0.00  0.00    +0.000 OA
ATOM     24  H   UNL     1      -7.695  -0.101 127.052  0.00  0.00    +0.000 HD
ENDBRANCH  16  23
BRANCH  17  25
ATOM     25  C   UNL     1      -7.662   1.581 129.027  0.00  0.00    +0.000 C 
ATOM     26  N   UNL     1      -8.368   2.416 128.817  0.00  0.00    +0.000 NA
ENDBRANCH  17  25
TORSDOF 3
ENDMDL
MODEL 9
REMARK VINA RESULT:      -6.7      7.333      9.794
REMARK  Name = Trilostane
REMARK  5 active torsions:
REMARK  status: ('A' for Active; 'I' for Inactive)
REMARK    1  A    between atoms: C_5  and  O_6
REMARK    2  A    between atoms: C_7  and  C_8
REMARK    3  A    between atoms: C_20  and  O_21
REMARK    4  A    between atoms: C_22  and  C_26
REMARK    5  A    between atoms: C_24  and  C_25
REMARK                            x       y       z     vdW  Elec       q    Type
REMARK                         _______ _______ _______ _____ _____    ______ ____
ROOT
ATOM      1  C   UNL     1      -4.422   4.533 130.136  0.00  0.00    +0.000 C 
ATOM      2  C   UNL     1      -3.779   3.471 130.776  0.00  0.00    +0.000 C 
ATOM      3  C   UNL     1      -4.234   4.446 131.819  0.00  0.00    +0.000 C 
ATOM      4  C   UNL     1      -5.033   6.177 131.021  0.00  0.00    +0.000 C 
ATOM      5  C   UNL     1      -3.707   5.904 131.164  0.00  0.00    +0.000 C 
ATOM      6  C   UNL     1      -2.465   6.312 130.550  0.00  0.00    +0.000 C 
ATOM      7  C   UNL     1      -4.140   6.319 132.902  0.00  0.00    +0.000 C 
ATOM      8  C   UNL     1      -5.811   5.968 133.198  0.00  0.00    +0.000 C 
ATOM      9  C   UNL     1      -6.475   4.599 132.460  0.00  0.00    +0.000 C 
ATOM     10  C   UNL     1      -5.955   4.114 130.567  0.00  0.00    +0.000 C 
ATOM     11  C   UNL     1      -6.829   2.658 129.837  0.00  0.00    +0.000 C 
ATOM     12  C   UNL     1      -8.713   2.274 130.401  0.00  0.00    +0.000 C 
ATOM     13  C   UNL     1      -8.957   3.300 131.547  0.00  0.00    +0.000 C 
ATOM     14  O   UNL     1      -7.714   2.980 131.593  0.00  0.00    +0.000 OA
ATOM     15  C   UNL     1      -8.750   3.966 130.291  0.00  0.00    +0.000 C 
ATOM     16  C   UNL     1      -8.648   5.359 130.201  0.00  0.00    +0.000 C 
ATOM     17  C   UNL     1      -9.367   6.175 130.881  0.00  0.00    +0.000 C 
ATOM     18  C   UNL     1      -9.119   5.955 132.361  0.00  0.00    +0.000 C 
ATOM     19  C   UNL     1      -8.317   4.547 132.746  0.00  0.00    +0.000 C 
ATOM     20  C   UNL     1      -8.318   4.427 134.296  0.00  0.00    +0.000 C 
ENDROOT
BRANCH   4  21
ATOM     21  O   UNL     1      -5.007   6.784 129.646  0.00  0.00    +0.000 OA
ATOM     22  H   UNL     1      -5.636   7.517 129.488  0.00  0.00    +0.000 HD
ENDBRANCH   4  21
BRANCH  16  23
ATOM     23  O   UNL     1      -7.504   5.513 130.825  0.00  0.00    +0.000 OA
ATOM     24  H   UNL     1      -7.861   5.235 131.729  0.00  0.00    +0.000 HD
ENDBRANCH  16  23
BRANCH  17  25
ATOM     25  C   UNL     1      -9.739   7.239 129.997  0.00  0.00    +0.000 C 
ATOM     26  N   UNL     1      -9.707   8.010 129.195  0.00  0.00    +0.000 NA
ENDBRANCH  17  25
TORSDOF 3
ENDMDL
