MODEL 1
REMARK VINA RESULT:      -9.8      0.000      0.000
REMARK  Name = Trilaciclib
REMARK  2 active torsions:
REMARK  status: ('A' for Active; 'I' for Inactive)
REMARK    1  A    between atoms: C_1  and  N_2
REMARK    2  A    between atoms: N_5  and  C_8
REMARK                            x       y       z     vdW  Elec       q    Type
REMARK                         _______ _______ _______ _____ _____    ______ ____
ROOT
ATOM      1  C   UNL     1      -4.148   5.054 129.922  0.00  0.00    +0.000 A 
ATOM      2  C   UNL     1      -3.032   4.489 129.302  0.00  0.00    +0.000 A 
ATOM      3  N   UNL     1      -3.025   3.832 128.092  0.00  0.00    +0.000 NA
ATOM      4  C   UNL     1      -4.197   3.734 127.424  0.00  0.00    +0.000 A 
ATOM      5  N   UNL     1      -4.257   3.047 126.198  0.00  0.00    +0.000 N 
ATOM      6  C   UNL     1      -5.389   2.854 125.400  0.00  0.00    +0.000 A 
ATOM      7  N   UNL     1      -5.866   1.587 125.211  0.00  0.00    +0.000 NA
ATOM      8  C   UNL     1      -7.116   1.538 124.674  0.00  0.00    +0.000 A 
ATOM      9  C   UNL     1      -7.801   2.680 124.238  0.00  0.00    +0.000 A 
ATOM     10  C   UNL     1      -9.017   2.288 123.668  0.00  0.00    +0.000 A 
ATOM     11  C   UNL     1      -9.080   0.912 123.729  0.00  0.00    +0.000 A 
ATOM     12  N   UNL     1      -7.939   0.397 124.429  0.00  0.00    +0.000 N 
ATOM     13  C   UNL     1      -7.542  -1.059 124.174  0.00  0.00    +0.000 C 
ATOM     14  C   UNL     1      -6.449  -0.810 123.088  0.00  0.00    +0.000 C 
ATOM     15  C   UNL     1      -5.928  -2.134 122.993  0.00  0.00    +0.000 C 
ATOM     16  C   UNL     1      -4.944  -3.161 123.104  0.00  0.00    +0.000 C 
ATOM     17  C   UNL     1      -5.809  -3.739 124.386  0.00  0.00    +0.000 C 
ATOM     18  C   UNL     1      -6.874  -2.412 125.227  0.00  0.00    +0.000 C 
ATOM     19  C   UNL     1      -8.870  -1.781 123.711  0.00  0.00    +0.000 C 
ATOM     20  N   UNL     1      -9.554  -1.092 122.663  0.00  0.00    +0.000 N 
ATOM     21  C   UNL     1     -10.063   0.141 122.989  0.00  0.00    +0.000 C 
ATOM     22  O   UNL     1     -11.132   0.533 122.594  0.00  0.00    +0.000 OA
ATOM     23  C   UNL     1      -7.190   3.918 124.391  0.00  0.00    +0.000 A 
ATOM     24  N   UNL     1      -5.996   3.991 124.992  0.00  0.00    +0.000 NA
ATOM     25  C   UNL     1      -5.356   4.272 127.978  0.00  0.00    +0.000 A 
ATOM     26  C   UNL     1      -5.333   4.913 129.216  0.00  0.00    +0.000 A 
ATOM     27  H   UNL     1      -3.411   2.592 125.908  0.00  0.00    +0.000 HD
ATOM     28  H   UNL     1      -9.987  -1.576 121.889  0.00  0.00    +0.000 HD
ENDROOT
BRANCH   1  33
ATOM     29  C   UNL     1      -2.535   7.531 134.640  0.00  0.00    +0.000 C 
ATOM     30  N   UNL     1      -3.432   7.077 133.583  0.00  0.00    +0.000 NA
ATOM     31  C   UNL     1      -3.434   5.598 133.480  0.00  0.00    +0.000 C 
ATOM     32  C   UNL     1      -4.424   5.086 132.396  0.00  0.00    +0.000 C 
ATOM     33  N   UNL     1      -4.140   5.739 131.113  0.00  0.00    +0.000 N 
ATOM     34  C   UNL     1      -3.998   7.201 131.150  0.00  0.00    +0.000 C 
ATOM     35  C   UNL     1      -3.018   7.621 132.269  0.00  0.00    +0.000 C 
ENDBRANCH   1  33
TORSDOF 1
ENDMDL
MODEL 2
REMARK VINA RESULT:      -9.1      2.098      2.464
REMARK  Name = Trilaciclib
REMARK  2 active torsions:
REMARK  status: ('A' for Active; 'I' for Inactive)
REMARK    1  A    between atoms: C_1  and  N_2
REMARK    2  A    between atoms: N_5  and  C_8
REMARK                            x       y       z     vdW  Elec       q    Type
REMARK                         _______ _______ _______ _____ _____    ______ ____
ROOT
ATOM      1  C   UNL     1      -5.678   3.334 131.790  0.00  0.00    +0.000 A 
ATOM      2  C   UNL     1      -4.442   2.939 131.275  0.00  0.00    +0.000 A 
ATOM      3  N   UNL     1      -4.190   2.569 129.973  0.00  0.00    +0.000 NA
ATOM      4  C   UNL     1      -5.222   2.606 129.098  0.00  0.00    +0.000 A 
ATOM      5  N   UNL     1      -5.031   2.210 127.763  0.00  0.00    +0.000 N 
ATOM      6  C   UNL     1      -5.996   2.184 126.751  0.00  0.00    +0.000 A 
ATOM      7  N   UNL     1      -6.364   0.984 126.207  0.00  0.00    +0.000 NA
ATOM      8  C   UNL     1      -7.497   1.039 125.456  0.00  0.00    +0.000 A 
ATOM      9  C   UNL     1      -8.158   2.239 125.162  0.00  0.00    +0.000 A 
ATOM     10  C   UNL     1      -9.234   1.966 124.311  0.00  0.00    +0.000 A 
ATOM     11  C   UNL     1      -9.231   0.610 124.059  0.00  0.00    +0.000 A 
ATOM     12  N   UNL     1      -8.202  -0.031 124.824  0.00  0.00    +0.000 N 
ATOM     13  C   UNL     1      -7.689  -1.387 124.334  0.00  0.00    +0.000 C 
ATOM     14  C   UNL     1      -6.439  -0.885 123.544  0.00  0.00    +0.000 C 
ATOM     15  C   UNL     1      -5.838  -2.146 123.259  0.00  0.00    +0.000 C 
ATOM     16  C   UNL     1      -4.834  -3.158 123.320  0.00  0.00    +0.000 C 
ATOM     17  C   UNL     1      -5.874  -4.020 124.268  0.00  0.00    +0.000 C 
ATOM     18  C   UNL     1      -7.139  -2.931 125.170  0.00  0.00    +0.000 C 
ATOM     19  C   UNL     1      -8.875  -2.007 123.493  0.00  0.00    +0.000 C 
ATOM     20  N   UNL     1      -9.404  -1.110 122.514  0.00  0.00    +0.000 N 
ATOM     21  C   UNL     1     -10.028   0.010 123.003  0.00  0.00    +0.000 C 
ATOM     22  O   UNL     1     -11.032   0.465 122.516  0.00  0.00    +0.000 OA
ATOM     23  C   UNL     1      -7.652   3.420 125.689  0.00  0.00    +0.000 A 
ATOM     24  N   UNL     1      -6.585   3.374 126.496  0.00  0.00    +0.000 NA
ATOM     25  C   UNL     1      -6.487   2.990 129.538  0.00  0.00    +0.000 A 
ATOM     26  C   UNL     1      -6.714   3.337 130.869  0.00  0.00    +0.000 A 
ATOM     27  H   UNL     1      -4.124   1.844 127.538  0.00  0.00    +0.000 HD
ATOM     28  H   UNL     1      -9.669  -1.416 121.588  0.00  0.00    +0.000 HD
ENDROOT
BRANCH   1  33
ATOM     29  C   UNL     1      -7.534   6.060 136.276  0.00  0.00    +0.000 C 
ATOM     30  N   UNL     1      -6.820   5.054 135.498  0.00  0.00    +0.000 NA
ATOM     31  C   UNL     1      -5.812   5.679 134.610  0.00  0.00    +0.000 C 
ATOM     32  C   UNL     1      -4.998   4.624 133.809  0.00  0.00    +0.000 C 
ATOM     33  N   UNL     1      -5.913   3.735 133.084  0.00  0.00    +0.000 N 
ATOM     34  C   UNL     1      -7.020   3.168 133.867  0.00  0.00    +0.000 C 
ATOM     35  C   UNL     1      -7.755   4.281 134.648  0.00  0.00    +0.000 C 
ENDBRANCH   1  33
TORSDOF 1
ENDMDL
MODEL 3
REMARK VINA RESULT:      -8.9      6.618      8.274
REMARK  Name = Trilaciclib
REMARK  2 active torsions:
REMARK  status: ('A' for Active; 'I' for Inactive)
REMARK    1  A    between atoms: C_1  and  N_2
REMARK    2  A    between atoms: N_5  and  C_8
REMARK                            x       y       z     vdW  Elec       q    Type
REMARK                         _______ _______ _______ _____ _____    ______ ____
ROOT
ATOM      1  C   UNL     1      -4.871  -4.391 133.025  0.00  0.00    +0.000 A 
ATOM      2  C   UNL     1      -5.414  -3.183 133.466  0.00  0.00    +0.000 A 
ATOM      3  N   UNL     1      -6.261  -2.368 132.749  0.00  0.00    +0.000 NA
ATOM      4  C   UNL     1      -6.622  -2.772 131.509  0.00  0.00    +0.000 A 
ATOM      5  N   UNL     1      -7.459  -1.966 130.719  0.00  0.00    +0.000 N 
ATOM      6  C   UNL     1      -7.908  -2.241 129.423  0.00  0.00    +0.000 A 
ATOM      7  N   UNL     1      -7.510  -1.436 128.391  0.00  0.00    +0.000 NA
ATOM      8  C   UNL     1      -7.756  -1.953 127.157  0.00  0.00    +0.000 A 
ATOM      9  C   UNL     1      -8.468  -3.145 126.959  0.00  0.00    +0.000 A 
ATOM     10  C   UNL     1      -8.618  -3.358 125.585  0.00  0.00    +0.000 A 
ATOM     11  C   UNL     1      -8.025  -2.299 124.931  0.00  0.00    +0.000 A 
ATOM     12  N   UNL     1      -7.396  -1.426 125.879  0.00  0.00    +0.000 N 
ATOM     13  C   UNL     1      -7.140   0.022 125.456  0.00  0.00    +0.000 C 
ATOM     14  C   UNL     1      -8.414   0.671 126.082  0.00  0.00    +0.000 C 
ATOM     15  C   UNL     1      -8.086   2.043 125.876  0.00  0.00    +0.000 C 
ATOM     16  C   UNL     1      -7.766   3.381 126.256  0.00  0.00    +0.000 C 
ATOM     17  C   UNL     1      -6.229   3.075 125.737  0.00  0.00    +0.000 C 
ATOM     18  C   UNL     1      -5.786   1.231 125.760  0.00  0.00    +0.000 C 
ATOM     19  C   UNL     1      -7.048  -0.012 123.878  0.00  0.00    +0.000 C 
ATOM     20  N   UNL     1      -8.141  -0.695 123.261  0.00  0.00    +0.000 N 
ATOM     21  C   UNL     1      -8.226  -2.042 123.517  0.00  0.00    +0.000 C 
ATOM     22  O   UNL     1      -8.546  -2.848 122.680  0.00  0.00    +0.000 OA
ATOM     23  C   UNL     1      -8.911  -3.844 128.074  0.00  0.00    +0.000 A 
ATOM     24  N   UNL     1      -8.606  -3.392 129.296  0.00  0.00    +0.000 NA
ATOM     25  C   UNL     1      -6.119  -3.967 130.998  0.00  0.00    +0.000 A 
ATOM     26  C   UNL     1      -5.246  -4.759 131.742  0.00  0.00    +0.000 A 
ATOM     27  H   UNL     1      -7.698  -1.070 131.104  0.00  0.00    +0.000 HD
ATOM     28  H   UNL     1      -8.580  -0.360 122.415  0.00  0.00    +0.000 HD
ENDROOT
BRANCH   1  33
ATOM     29  C   UNL     1      -1.772  -6.574 137.103  0.00  0.00    +0.000 C 
ATOM     30  N   UNL     1      -2.429  -6.469 135.805  0.00  0.00    +0.000 NA
ATOM     31  C   UNL     1      -1.947  -5.285 135.054  0.00  0.00    +0.000 C 
ATOM     32  C   UNL     1      -2.592  -5.182 133.643  0.00  0.00    +0.000 C 
ATOM     33  N   UNL     1      -4.054  -5.217 133.760  0.00  0.00    +0.000 N 
ATOM     34  C   UNL     1      -4.611  -6.292 134.594  0.00  0.00    +0.000 C 
ATOM     35  C   UNL     1      -3.896  -6.338 135.964  0.00  0.00    +0.000 C 
ENDBRANCH   1  33
TORSDOF 1
ENDMDL
MODEL 4
REMARK VINA RESULT:      -8.7      7.218      8.199
REMARK  Name = Trilaciclib
REMARK  2 active torsions:
REMARK  status: ('A' for Active; 'I' for Inactive)
REMARK    1  A    between atoms: C_1  and  N_2
REMARK    2  A    between atoms: N_5  and  C_8
REMARK                            x       y       z     vdW  Elec       q    Type
REMARK                         _______ _______ _______ _____ _____    ______ ____
ROOT
ATOM      1  C   UNL     1      -7.584  -3.945 134.475  0.00  0.00    +0.000 A 
ATOM      2  C   UNL     1      -6.371  -4.427 133.978  0.00  0.00    +0.000 A 
ATOM      3  N   UNL     1      -5.722  -3.973 132.852  0.00  0.00    +0.000 NA
ATOM      4  C   UNL     1      -6.292  -2.955 132.165  0.00  0.00    +0.000 A 
ATOM      5  N   UNL     1      -5.690  -2.472 130.990  0.00  0.00    +0.000 N 
ATOM      6  C   UNL     1      -6.161  -1.439 130.172  0.00  0.00    +0.000 A 
ATOM      7  N   UNL     1      -6.550  -1.724 128.893  0.00  0.00    +0.000 NA
ATOM      8  C   UNL     1      -7.255  -0.727 128.291  0.00  0.00    +0.000 A 
ATOM      9  C   UNL     1      -7.453   0.528 128.884  0.00  0.00    +0.000 A 
ATOM     10  C   UNL     1      -8.142   1.348 127.984  0.00  0.00    +0.000 A 
ATOM     11  C   UNL     1      -8.352   0.619 126.833  0.00  0.00    +0.000 A 
ATOM     12  N   UNL     1      -7.881  -0.724 127.008  0.00  0.00    +0.000 N 
ATOM     13  C   UNL     1      -7.542  -1.531 125.752  0.00  0.00    +0.000 C 
ATOM     14  C   UNL     1      -6.005  -1.264 125.717  0.00  0.00    +0.000 C 
ATOM     15  C   UNL     1      -5.646  -2.173 124.680  0.00  0.00    +0.000 C 
ATOM     16  C   UNL     1      -5.006  -3.312 124.104  0.00  0.00    +0.000 C 
ATOM     17  C   UNL     1      -6.502  -4.004 124.009  0.00  0.00    +0.000 C 
ATOM     18  C   UNL     1      -7.733  -3.296 125.268  0.00  0.00    +0.000 C 
ATOM     19  C   UNL     1      -8.412  -0.894 124.596  0.00  0.00    +0.000 C 
ATOM     20  N   UNL     1      -8.296   0.527 124.516  0.00  0.00    +0.000 N 
ATOM     21  C   UNL     1      -8.787   1.229 125.589  0.00  0.00    +0.000 C 
ATOM     22  O   UNL     1      -9.387   2.268 125.472  0.00  0.00    +0.000 OA
ATOM     23  C   UNL     1      -6.938   0.749 130.154  0.00  0.00    +0.000 A 
ATOM     24  N   UNL     1      -6.314  -0.248 130.792  0.00  0.00    +0.000 NA
ATOM     25  C   UNL     1      -7.503  -2.422 132.599  0.00  0.00    +0.000 A 
ATOM     26  C   UNL     1      -8.146  -2.919 133.732  0.00  0.00    +0.000 A 
ATOM     27  H   UNL     1      -4.878  -2.969 130.676  0.00  0.00    +0.000 HD
ATOM     28  H   UNL     1      -8.240   1.017 123.634  0.00  0.00    +0.000 HD
ENDROOT
BRANCH   1  33
ATOM     29  C   UNL     1     -11.424  -5.324 138.263  0.00  0.00    +0.000 C 
ATOM     30  N   UNL     1     -10.103  -5.153 137.670  0.00  0.00    +0.000 NA
ATOM     31  C   UNL     1      -9.831  -3.727 137.368  0.00  0.00    +0.000 C 
ATOM     32  C   UNL     1      -8.406  -3.511 136.785  0.00  0.00    +0.000 C 
ATOM     33  N   UNL     1      -8.208  -4.380 135.620  0.00  0.00    +0.000 N 
ATOM     34  C   UNL     1      -8.572  -5.793 135.798  0.00  0.00    +0.000 C 
ATOM     35  C   UNL     1      -9.989  -5.912 136.404  0.00  0.00    +0.000 C 
ENDBRANCH   1  33
TORSDOF 1
ENDMDL
MODEL 5
REMARK VINA RESULT:      -8.5      7.071      9.256
REMARK  Name = Trilaciclib
REMARK  2 active torsions:
REMARK  status: ('A' for Active; 'I' for Inactive)
REMARK    1  A    between atoms: C_1  and  N_2
REMARK    2  A    between atoms: N_5  and  C_8
REMARK                            x       y       z     vdW  Elec       q    Type
REMARK                         _______ _______ _______ _____ _____    ______ ____
ROOT
ATOM      1  C   UNL     1      -9.691   5.526 131.602  0.00  0.00    +0.000 A 
ATOM      2  C   UNL     1      -9.789   5.392 132.988  0.00  0.00    +0.000 A 
ATOM      3  N   UNL     1      -9.066   4.518 133.768  0.00  0.00    +0.000 NA
ATOM      4  C   UNL     1      -8.161   3.724 133.150  0.00  0.00    +0.000 A 
ATOM      5  N   UNL     1      -7.416   2.791 133.891  0.00  0.00    +0.000 N 
ATOM      6  C   UNL     1      -6.457   1.901 133.396  0.00  0.00    +0.000 A 
ATOM      7  N   UNL     1      -6.694   0.556 133.466  0.00  0.00    +0.000 NA
ATOM      8  C   UNL     1      -5.852  -0.196 132.705  0.00  0.00    +0.000 A 
ATOM      9  C   UNL     1      -4.761   0.348 132.013  0.00  0.00    +0.000 A 
ATOM     10  C   UNL     1      -4.054  -0.689 131.398  0.00  0.00    +0.000 A 
ATOM     11  C   UNL     1      -4.684  -1.872 131.721  0.00  0.00    +0.000 A 
ATOM     12  N   UNL     1      -5.872  -1.606 132.478  0.00  0.00    +0.000 N 
ATOM     13  C   UNL     1      -6.425  -2.730 133.357  0.00  0.00    +0.000 C 
ATOM     14  C   UNL     1      -5.771  -2.307 134.709  0.00  0.00    +0.000 C 
ATOM     15  C   UNL     1      -6.441  -3.220 135.574  0.00  0.00    +0.000 C 
ATOM     16  C   UNL     1      -7.308  -3.616 136.636  0.00  0.00    +0.000 C 
ATOM     17  C   UNL     1      -8.347  -4.163 135.475  0.00  0.00    +0.000 C 
ATOM     18  C   UNL     1      -8.118  -3.300 133.801  0.00  0.00    +0.000 C 
ATOM     19  C   UNL     1      -5.913  -4.072 132.695  0.00  0.00    +0.000 C 
ATOM     20  N   UNL     1      -4.509  -4.073 132.431  0.00  0.00    +0.000 N 
ATOM     21  C   UNL     1      -4.076  -3.170 131.491  0.00  0.00    +0.000 C 
ATOM     22  O   UNL     1      -3.220  -3.428 130.682  0.00  0.00    +0.000 OA
ATOM     23  C   UNL     1      -4.552   1.720 132.080  0.00  0.00    +0.000 A 
ATOM     24  N   UNL     1      -5.418   2.483 132.756  0.00  0.00    +0.000 NA
ATOM     25  C   UNL     1      -8.006   3.800 131.767  0.00  0.00    +0.000 A 
ATOM     26  C   UNL     1      -8.770   4.681 131.003  0.00  0.00    +0.000 A 
ATOM     27  H   UNL     1      -7.652   2.713 134.864  0.00  0.00    +0.000 HD
ATOM     28  H   UNL     1      -3.930  -4.886 132.588  0.00  0.00    +0.000 HD
ENDROOT
BRANCH   1  33
ATOM     29  C   UNL     1     -12.852   7.840 127.645  0.00  0.00    +0.000 C 
ATOM     30  N   UNL     1     -12.033   7.751 128.849  0.00  0.00    +0.000 NA
ATOM     31  C   UNL     1     -10.662   7.285 128.531  0.00  0.00    +0.000 C 
ATOM     32  C   UNL     1      -9.752   7.233 129.790  0.00  0.00    +0.000 C 
ATOM     33  N   UNL     1     -10.392   6.426 130.834  0.00  0.00    +0.000 N 
ATOM     34  C   UNL     1     -11.798   6.743 131.126  0.00  0.00    +0.000 C 
ATOM     35  C   UNL     1     -12.620   6.798 129.819  0.00  0.00    +0.000 C 
ENDBRANCH   1  33
TORSDOF 1
ENDMDL
MODEL 6
REMARK VINA RESULT:      -8.3      3.096      4.602
REMARK  Name = Trilaciclib
REMARK  2 active torsions:
REMARK  status: ('A' for Active; 'I' for Inactive)
REMARK    1  A    between atoms: C_1  and  N_2
REMARK    2  A    between atoms: N_5  and  C_8
REMARK                            x       y       z     vdW  Elec       q    Type
REMARK                         _______ _______ _______ _____ _____    ______ ____
ROOT
ATOM      1  C   UNL     1      -3.698   6.487 131.261  0.00  0.00    +0.000 A 
ATOM      2  C   UNL     1      -4.718   7.163 130.589  0.00  0.00    +0.000 A 
ATOM      3  N   UNL     1      -5.852   6.591 130.055  0.00  0.00    +0.000 NA
ATOM      4  C   UNL     1      -6.013   5.256 130.207  0.00  0.00    +0.000 A 
ATOM      5  N   UNL     1      -7.135   4.613 129.656  0.00  0.00    +0.000 N 
ATOM      6  C   UNL     1      -7.433   3.248 129.720  0.00  0.00    +0.000 A 
ATOM      7  N   UNL     1      -7.454   2.513 128.567  0.00  0.00    +0.000 NA
ATOM      8  C   UNL     1      -7.462   1.166 128.767  0.00  0.00    +0.000 A 
ATOM      9  C   UNL     1      -7.568   0.586 130.038  0.00  0.00    +0.000 A 
ATOM     10  C   UNL     1      -7.628  -0.804 129.898  0.00  0.00    +0.000 A 
ATOM     11  C   UNL     1      -7.582  -1.088 128.549  0.00  0.00    +0.000 A 
ATOM     12  N   UNL     1      -7.396   0.119 127.798  0.00  0.00    +0.000 N 
ATOM     13  C   UNL     1      -7.823   0.118 126.328  0.00  0.00    +0.000 C 
ATOM     14  C   UNL     1      -9.243   0.743 126.502  0.00  0.00    +0.000 C 
ATOM     15  C   UNL     1      -9.567   0.939 125.128  0.00  0.00    +0.000 C 
ATOM     16  C   UNL     1      -9.875   1.688 123.953  0.00  0.00    +0.000 C 
ATOM     17  C   UNL     1      -8.372   1.285 123.401  0.00  0.00    +0.000 C 
ATOM     18  C   UNL     1      -7.149   0.878 124.793  0.00  0.00    +0.000 C 
ATOM     19  C   UNL     1      -7.750  -1.394 125.870  0.00  0.00    +0.000 C 
ATOM     20  N   UNL     1      -8.431  -2.286 126.754  0.00  0.00    +0.000 N 
ATOM     21  C   UNL     1      -7.900  -2.400 128.016  0.00  0.00    +0.000 C 
ATOM     22  O   UNL     1      -7.837  -3.449 128.607  0.00  0.00    +0.000 OA
ATOM     23  C   UNL     1      -7.632   1.424 131.145  0.00  0.00    +0.000 A 
ATOM     24  N   UNL     1      -7.543   2.748 130.971  0.00  0.00    +0.000 NA
ATOM     25  C   UNL     1      -5.036   4.513 130.866  0.00  0.00    +0.000 A 
ATOM     26  C   UNL     1      -3.889   5.119 131.376  0.00  0.00    +0.000 A 
ATOM     27  H   UNL     1      -7.744   5.188 129.103  0.00  0.00    +0.000 HD
ATOM     28  H   UNL     1      -8.987  -3.060 126.419  0.00  0.00    +0.000 HD
ENDROOT
BRANCH   1  33
ATOM     29  C   UNL     1       0.386   7.910 134.768  0.00  0.00    +0.000 C 
ATOM     30  N   UNL     1      -0.402   7.885 133.541  0.00  0.00    +0.000 NA
ATOM     31  C   UNL     1      -1.790   8.346 133.785  0.00  0.00    +0.000 C 
ATOM     32  C   UNL     1      -2.636   8.380 132.482  0.00  0.00    +0.000 C 
ATOM     33  N   UNL     1      -2.587   7.071 131.821  0.00  0.00    +0.000 N 
ATOM     34  C   UNL     1      -1.251   6.483 131.650  0.00  0.00    +0.000 C 
ATOM     35  C   UNL     1      -0.473   6.513 132.986  0.00  0.00    +0.000 C 
ENDBRANCH   1  33
TORSDOF 1
ENDMDL
MODEL 7
REMARK VINA RESULT:      -8.3      2.711      4.222
REMARK  Name = Trilaciclib
REMARK  2 active torsions:
REMARK  status: ('A' for Active; 'I' for Inactive)
REMARK    1  A    between atoms: C_1  and  N_2
REMARK    2  A    between atoms: N_5  and  C_8
REMARK                            x       y       z     vdW  Elec       q    Type
REMARK                         _______ _______ _______ _____ _____    ______ ____
ROOT
ATOM      1  C   UNL     1      -4.217   4.493 131.755  0.00  0.00    +0.000 A 
ATOM      2  C   UNL     1      -5.578   4.797 131.681  0.00  0.00    +0.000 A 
ATOM      3  N   UNL     1      -6.534   4.066 131.011  0.00  0.00    +0.000 NA
ATOM      4  C   UNL     1      -6.133   2.939 130.377  0.00  0.00    +0.000 A 
ATOM      5  N   UNL     1      -7.059   2.171 129.650  0.00  0.00    +0.000 N 
ATOM      6  C   UNL     1      -6.796   0.995 128.939  0.00  0.00    +0.000 A 
ATOM      7  N   UNL     1      -6.945   0.987 127.580  0.00  0.00    +0.000 NA
ATOM      8  C   UNL     1      -6.391  -0.094 126.966  0.00  0.00    +0.000 A 
ATOM      9  C   UNL     1      -5.832  -1.166 127.675  0.00  0.00    +0.000 A 
ATOM     10  C   UNL     1      -5.425  -2.146 126.764  0.00  0.00    +0.000 A 
ATOM     11  C   UNL     1      -5.748  -1.699 125.500  0.00  0.00    +0.000 A 
ATOM     12  N   UNL     1      -6.287  -0.373 125.570  0.00  0.00    +0.000 N 
ATOM     13  C   UNL     1      -7.163   0.103 124.409  0.00  0.00    +0.000 C 
ATOM     14  C   UNL     1      -8.559  -0.225 125.027  0.00  0.00    +0.000 C 
ATOM     15  C   UNL     1      -9.386   0.401 124.049  0.00  0.00    +0.000 C 
ATOM     16  C   UNL     1     -10.331   1.347 123.550  0.00  0.00    +0.000 C 
ATOM     17  C   UNL     1      -9.076   2.056 122.747  0.00  0.00    +0.000 C 
ATOM     18  C   UNL     1      -7.389   1.712 123.544  0.00  0.00    +0.000 C 
ATOM     19  C   UNL     1      -6.707  -0.751 123.160  0.00  0.00    +0.000 C 
ATOM     20  N   UNL     1      -6.664  -2.156 123.419  0.00  0.00    +0.000 N 
ATOM     21  C   UNL     1      -5.728  -2.567 124.335  0.00  0.00    +0.000 C 
ATOM     22  O   UNL     1      -5.087  -3.579 124.206  0.00  0.00    +0.000 OA
ATOM     23  C   UNL     1      -5.811  -1.105 129.062  0.00  0.00    +0.000 A 
ATOM     24  N   UNL     1      -6.277  -0.011 129.677  0.00  0.00    +0.000 NA
ATOM     25  C   UNL     1      -4.790   2.571 130.405  0.00  0.00    +0.000 A 
ATOM     26  C   UNL     1      -3.843   3.345 131.075  0.00  0.00    +0.000 A 
ATOM     27  H   UNL     1      -7.986   2.548 129.581  0.00  0.00    +0.000 HD
ATOM     28  H   UNL     1      -6.979  -2.840 122.746  0.00  0.00    +0.000 HD
ENDROOT
BRANCH   1  33
ATOM     29  C   UNL     1      -0.006   7.873 133.110  0.00  0.00    +0.000 C 
ATOM     30  N   UNL     1      -1.119   6.950 133.297  0.00  0.00    +0.000 NA
ATOM     31  C   UNL     1      -0.849   5.646 132.646  0.00  0.00    +0.000 C 
ATOM     32  C   UNL     1      -1.998   4.624 132.876  0.00  0.00    +0.000 C 
ATOM     33  N   UNL     1      -3.276   5.209 132.456  0.00  0.00    +0.000 N 
ATOM     34  C   UNL     1      -3.567   6.558 132.961  0.00  0.00    +0.000 C 
ATOM     35  C   UNL     1      -2.365   7.498 132.713  0.00  0.00    +0.000 C 
ENDBRANCH   1  33
TORSDOF 1
ENDMDL
MODEL 8
REMARK VINA RESULT:      -8.2      6.808      8.386
REMARK  Name = Trilaciclib
REMARK  2 active torsions:
REMARK  status: ('A' for Active; 'I' for Inactive)
REMARK    1  A    between atoms: C_1  and  N_2
REMARK    2  A    between atoms: N_5  and  C_8
REMARK                            x       y       z     vdW  Elec       q    Type
REMARK                         _______ _______ _______ _____ _____    ______ ____
ROOT
ATOM      1  C   UNL     1      -0.369   9.160 133.578  0.00  0.00    +0.000 A 
ATOM      2  C   UNL     1       0.171   8.003 133.014  0.00  0.00    +0.000 A 
ATOM      3  N   UNL     1      -0.532   7.026 132.344  0.00  0.00    +0.000 NA
ATOM      4  C   UNL     1      -1.866   7.200 132.198  0.00  0.00    +0.000 A 
ATOM      5  N   UNL     1      -2.639   6.221 131.550  0.00  0.00    +0.000 N 
ATOM      6  C   UNL     1      -4.020   6.253 131.332  0.00  0.00    +0.000 A 
ATOM      7  N   UNL     1      -4.816   5.324 131.943  0.00  0.00    +0.000 NA
ATOM      8  C   UNL     1      -6.145   5.618 131.903  0.00  0.00    +0.000 A 
ATOM      9  C   UNL     1      -6.661   6.709 131.191  0.00  0.00    +0.000 A 
ATOM     10  C   UNL     1      -8.056   6.689 131.283  0.00  0.00    +0.000 A 
ATOM     11  C   UNL     1      -8.409   5.583 132.028  0.00  0.00    +0.000 A 
ATOM     12  N   UNL     1      -7.233   4.920 132.510  0.00  0.00    +0.000 N 
ATOM     13  C   UNL     1      -7.354   3.444 132.897  0.00  0.00    +0.000 C 
ATOM     14  C   UNL     1      -6.854   2.815 131.558  0.00  0.00    +0.000 C 
ATOM     15  C   UNL     1      -6.765   1.455 131.974  0.00  0.00    +0.000 C 
ATOM     16  C   UNL     1      -6.114   0.221 132.273  0.00  0.00    +0.000 C 
ATOM     17  C   UNL     1      -6.406   0.547 133.865  0.00  0.00    +0.000 C 
ATOM     18  C   UNL     1      -6.621   2.398 134.221  0.00  0.00    +0.000 C 
ATOM     19  C   UNL     1      -8.875   3.231 133.271  0.00  0.00    +0.000 C 
ATOM     20  N   UNL     1      -9.777   3.729 132.281  0.00  0.00    +0.000 N 
ATOM     21  C   UNL     1      -9.772   5.090 132.096  0.00  0.00    +0.000 C 
ATOM     22  O   UNL     1     -10.776   5.727 131.901  0.00  0.00    +0.000 OA
ATOM     23  C   UNL     1      -5.774   7.546 130.526  0.00  0.00    +0.000 A 
ATOM     24  N   UNL     1      -4.459   7.317 130.623  0.00  0.00    +0.000 NA
ATOM     25  C   UNL     1      -2.478   8.330 132.735  0.00  0.00    +0.000 A 
ATOM     26  C   UNL     1      -1.741   9.290 133.426  0.00  0.00    +0.000 A 
ATOM     27  H   UNL     1      -2.154   5.384 131.282  0.00  0.00    +0.000 HD
ATOM     28  H   UNL     1     -10.617   3.233 132.016  0.00  0.00    +0.000 HD
ENDROOT
BRANCH   1  33
ATOM     29  C   UNL     1       1.106  13.921 136.058  0.00  0.00    +0.000 C 
ATOM     30  N   UNL     1       1.236  12.565 135.537  0.00  0.00    +0.000 NA
ATOM     31  C   UNL     1       0.999  12.528 134.074  0.00  0.00    +0.000 C 
ATOM     32  C   UNL     1       1.186  11.102 133.484  0.00  0.00    +0.000 C 
ATOM     33  N   UNL     1       0.344  10.147 134.214  0.00  0.00    +0.000 N 
ATOM     34  C   UNL     1       0.427  10.202 135.681  0.00  0.00    +0.000 C 
ATOM     35  C   UNL     1       0.256  11.657 136.176  0.00  0.00    +0.000 C 
ENDBRANCH   1  33
TORSDOF 1
ENDMDL
MODEL 9
REMARK VINA RESULT:      -8.2      4.343     12.311
REMARK  Name = Trilaciclib
REMARK  2 active torsions:
REMARK  status: ('A' for Active; 'I' for Inactive)
REMARK    1  A    between atoms: C_1  and  N_2
REMARK    2  A    between atoms: N_5  and  C_8
REMARK                            x       y       z     vdW  Elec       q    Type
REMARK                         _______ _______ _______ _____ _____    ______ ____
ROOT
ATOM      1  C   UNL     1      -5.005   4.280 127.536  0.00  0.00    +0.000 A 
ATOM      2  C   UNL     1      -3.787   4.738 127.030  0.00  0.00    +0.000 A 
ATOM      3  N   UNL     1      -2.761   5.285 127.768  0.00  0.00    +0.000 NA
ATOM      4  C   UNL     1      -2.929   5.376 129.108  0.00  0.00    +0.000 A 
ATOM      5  N   UNL     1      -1.927   5.954 129.908  0.00  0.00    +0.000 N 
ATOM      6  C   UNL     1      -1.959   6.125 131.295  0.00  0.00    +0.000 A 
ATOM      7  N   UNL     1      -1.974   7.391 131.813  0.00  0.00    +0.000 NA
ATOM      8  C   UNL     1      -2.297   7.447 133.134  0.00  0.00    +0.000 A 
ATOM      9  C   UNL     1      -2.475   6.302 133.923  0.00  0.00    +0.000 A 
ATOM     10  C   UNL     1      -2.719   6.696 135.242  0.00  0.00    +0.000 A 
ATOM     11  C   UNL     1      -2.672   8.074 135.281  0.00  0.00    +0.000 A 
ATOM     12  N   UNL     1      -2.489   8.598 133.959  0.00  0.00    +0.000 N 
ATOM     13  C   UNL     1      -1.907  10.006 133.823  0.00  0.00    +0.000 C 
ATOM     14  C   UNL     1      -0.412   9.615 133.603  0.00  0.00    +0.000 C 
ATOM     15  C   UNL     1       0.106  10.901 133.270  0.00  0.00    +0.000 C 
ATOM     16  C   UNL     1       0.710  11.890 132.437  0.00  0.00    +0.000 C 
ATOM     17  C   UNL     1      -0.771  12.616 132.362  0.00  0.00    +0.000 C 
ATOM     18  C   UNL     1      -2.207  11.416 132.679  0.00  0.00    +0.000 C 
ATOM     19  C   UNL     1      -2.270  10.743 135.174  0.00  0.00    +0.000 C 
ATOM     20  N   UNL     1      -1.919   9.995 136.339  0.00  0.00    +0.000 N 
ATOM     21  C   UNL     1      -2.604   8.819 136.525  0.00  0.00    +0.000 C 
ATOM     22  O   UNL     1      -2.973   8.441 137.608  0.00  0.00    +0.000 OA
ATOM     23  C   UNL     1      -2.348   5.057 133.321  0.00  0.00    +0.000 A 
ATOM     24  N   UNL     1      -2.111   4.985 132.005  0.00  0.00    +0.000 NA
ATOM     25  C   UNL     1      -4.118   4.940 129.686  0.00  0.00    +0.000 A 
ATOM     26  C   UNL     1      -5.147   4.410 128.908  0.00  0.00    +0.000 A 
ATOM     27  H   UNL     1      -1.143   6.344 129.417  0.00  0.00    +0.000 HD
ATOM     28  H   UNL     1      -1.520  10.428 137.160  0.00  0.00    +0.000 HD
ENDROOT
BRANCH   1  33
ATOM     29  C   UNL     1      -8.469   2.902 123.400  0.00  0.00    +0.000 C 
ATOM     30  N   UNL     1      -7.865   2.884 124.728  0.00  0.00    +0.000 NA
ATOM     31  C   UNL     1      -7.979   4.207 125.387  0.00  0.00    +0.000 C 
ATOM     32  C   UNL     1      -7.390   4.200 126.826  0.00  0.00    +0.000 C 
ATOM     33  N   UNL     1      -6.010   3.703 126.797  0.00  0.00    +0.000 N 
ATOM     34  C   UNL     1      -5.788   2.454 126.054  0.00  0.00    +0.000 C 
ATOM     35  C   UNL     1      -6.426   2.541 124.649  0.00  0.00    +0.000 C 
ENDBRANCH   1  33
TORSDOF 1
ENDMDL
