MODEL 1
REMARK VINA RESULT:      -7.3      0.000      0.000
REMARK  Name = Trimetrexate
REMARK  10 active torsions:
REMARK  status: ('A' for Active; 'I' for Inactive)
REMARK    1  A    between atoms: C_1  and  O_2
REMARK    2  A    between atoms: O_2  and  C_3
REMARK    3  A    between atoms: C_5  and  N_6
REMARK    4  A    between atoms: N_6  and  C_7
REMARK    5  A    between atoms: C_7  and  C_8
REMARK    6  A    between atoms: C_9  and  C_10
REMARK    7  A    between atoms: C_22  and  O_23
REMARK    8  A    between atoms: O_23  and  C_24
REMARK    9  A    between atoms: C_25  and  O_26
REMARK   10  A    between atoms: O_26  and  C_27
REMARK                            x       y       z     vdW  Elec       q    Type
REMARK                         _______ _______ _______ _____ _____    ______ ____
ROOT
ATOM      1  C   UNL     1      -7.095   3.140 124.240  0.00  0.00    +0.000 A 
ATOM      2  C   UNL     1      -5.835   3.733 123.869  0.00  0.00    +0.000 A 
ATOM      3  C   UNL     1      -4.762   3.772 124.953  0.00  0.00    +0.000 C 
ATOM      4  C   UNL     1      -5.641   4.207 122.406  0.00  0.00    +0.000 A 
ATOM      5  C   UNL     1      -6.602   3.592 121.630  0.00  0.00    +0.000 A 
ATOM      6  C   UNL     1      -7.873   3.451 122.045  0.00  0.00    +0.000 A 
ATOM      7  C   UNL     1      -8.115   3.075 123.300  0.00  0.00    +0.000 A 
ATOM      8  N   UNL     1      -6.443   3.208 120.406  0.00  0.00    +0.000 NA
ATOM      9  C   UNL     1      -6.318   4.219 119.622  0.00  0.00    +0.000 A 
ATOM     10  N   UNL     1      -7.578   4.385 119.018  0.00  0.00    +0.000 N 
ATOM     11  N   UNL     1      -5.460   5.154 120.036  0.00  0.00    +0.000 NA
ATOM     12  C   UNL     1      -4.972   5.003 121.343  0.00  0.00    +0.000 A 
ATOM     13  N   UNL     1      -3.890   5.823 121.551  0.00  0.00    +0.000 N 
ATOM     14  H   UNL     1      -8.032   3.630 119.554  0.00  0.00    +0.000 HD
ATOM     15  H   UNL     1      -7.697   3.957 118.111  0.00  0.00    +0.000 HD
ATOM     16  H   UNL     1      -3.114   6.432 121.416  0.00  0.00    +0.000 HD
ATOM     17  H   UNL     1      -4.126   6.159 120.589  0.00  0.00    +0.000 HD
ENDROOT
BRANCH   1  18
ATOM     18  C   UNL     1      -7.609   2.689 125.578  0.00  0.00    +0.000 C 
BRANCH  18  19
ATOM     19  N   UNL     1      -8.758   1.819 125.485  0.00  0.00    +0.000 N 
ATOM     20  H   UNL     1      -9.365   1.980 124.693  0.00  0.00    +0.000 HD
BRANCH  19  23
ATOM     21  C   UNL     1      -7.513  -1.148 127.385  0.00  0.00    +0.000 A 
ATOM     22  C   UNL     1      -7.704   0.178 126.934  0.00  0.00    +0.000 A 
ATOM     23  C   UNL     1      -8.565   0.488 125.867  0.00  0.00    +0.000 A 
ATOM     24  C   UNL     1      -9.158  -0.565 125.168  0.00  0.00    +0.000 A 
ATOM     25  C   UNL     1      -8.998  -1.883 125.580  0.00  0.00    +0.000 A 
ATOM     26  C   UNL     1      -8.187  -2.180 126.701  0.00  0.00    +0.000 A 
BRANCH  21  28
ATOM     27  C   UNL     1      -5.553  -1.669 128.754  0.00  0.00    +0.000 C 
ATOM     28  O   UNL     1      -6.905  -1.232 128.623  0.00  0.00    +0.000 OA
ENDBRANCH  21  28
BRANCH  25  29
ATOM     29  O   UNL     1      -9.733  -2.777 124.820  0.00  0.00    +0.000 OA
ATOM     30  C   UNL     1      -9.293  -3.033 123.487  0.00  0.00    +0.000 C 
ENDBRANCH  25  29
BRANCH  26  31
ATOM     31  O   UNL     1      -8.264  -3.494 127.019  0.00  0.00    +0.000 OA
ATOM     32  C   UNL     1      -8.988  -3.943 128.105  0.00  0.00    +0.000 C 
ENDBRANCH  26  31
ENDBRANCH  19  23
ENDBRANCH  18  19
ENDBRANCH   1  18
TORSDOF 6
ENDMDL
MODEL 2
REMARK VINA RESULT:      -7.2      0.272      2.430
REMARK  Name = Trimetrexate
REMARK  10 active torsions:
REMARK  status: ('A' for Active; 'I' for Inactive)
REMARK    1  A    between atoms: C_1  and  O_2
REMARK    2  A    between atoms: O_2  and  C_3
REMARK    3  A    between atoms: C_5  and  N_6
REMARK    4  A    between atoms: N_6  and  C_7
REMARK    5  A    between atoms: C_7  and  C_8
REMARK    6  A    between atoms: C_9  and  C_10
REMARK    7  A    between atoms: C_22  and  O_23
REMARK    8  A    between atoms: O_23  and  C_24
REMARK    9  A    between atoms: C_25  and  O_26
REMARK   10  A    between atoms: O_26  and  C_27
REMARK                            x       y       z     vdW  Elec       q    Type
REMARK                         _______ _______ _______ _____ _____    ______ ____
ROOT
ATOM      1  C   UNL     1      -6.901   3.192 124.326  0.00  0.00    +0.000 A 
ATOM      2  C   UNL     1      -5.670   3.813 123.906  0.00  0.00    +0.000 A 
ATOM      3  C   UNL     1      -4.565   3.900 124.955  0.00  0.00    +0.000 C 
ATOM      4  C   UNL     1      -5.535   4.266 122.430  0.00  0.00    +0.000 A 
ATOM      5  C   UNL     1      -6.502   3.613 121.694  0.00  0.00    +0.000 A 
ATOM      6  C   UNL     1      -7.755   3.444 122.151  0.00  0.00    +0.000 A 
ATOM      7  C   UNL     1      -7.947   3.083 123.420  0.00  0.00    +0.000 A 
ATOM      8  N   UNL     1      -6.369   3.212 120.473  0.00  0.00    +0.000 NA
ATOM      9  C   UNL     1      -6.297   4.213 119.669  0.00  0.00    +0.000 A 
ATOM     10  N   UNL     1      -7.579   4.333 119.102  0.00  0.00    +0.000 N 
ATOM     11  N   UNL     1      -5.454   5.177 120.041  0.00  0.00    +0.000 NA
ATOM     12  C   UNL     1      -4.921   5.062 121.333  0.00  0.00    +0.000 A 
ATOM     13  N   UNL     1      -3.856   5.915 121.494  0.00  0.00    +0.000 N 
ATOM     14  H   UNL     1      -7.995   3.575 119.664  0.00  0.00    +0.000 HD
ATOM     15  H   UNL     1      -7.714   3.886 118.206  0.00  0.00    +0.000 HD
ATOM     16  H   UNL     1      -3.103   6.544 121.326  0.00  0.00    +0.000 HD
ATOM     17  H   UNL     1      -4.132   6.228 120.534  0.00  0.00    +0.000 HD
ENDROOT
BRANCH   1  18
ATOM     18  C   UNL     1      -7.361   2.751 125.686  0.00  0.00    +0.000 C 
BRANCH  18  19
ATOM     19  N   UNL     1      -8.591   1.994 125.657  0.00  0.00    +0.000 N 
ATOM     20  H   UNL     1      -9.204   2.189 124.877  0.00  0.00    +0.000 HD
BRANCH  19  23
ATOM     21  C   UNL     1      -9.136  -1.702 125.746  0.00  0.00    +0.000 A 
ATOM     22  C   UNL     1      -9.217  -0.337 125.384  0.00  0.00    +0.000 A 
ATOM     23  C   UNL     1      -8.516   0.664 126.079  0.00  0.00    +0.000 A 
ATOM     24  C   UNL     1      -7.810   0.301 127.227  0.00  0.00    +0.000 A 
ATOM     25  C   UNL     1      -7.704  -1.030 127.617  0.00  0.00    +0.000 A 
ATOM     26  C   UNL     1      -8.353  -2.039 126.867  0.00  0.00    +0.000 A 
BRANCH  21  28
ATOM     27  C   UNL     1      -9.035  -2.600 123.472  0.00  0.00    +0.000 C 
ATOM     28  O   UNL     1      -9.614  -2.563 124.776  0.00  0.00    +0.000 OA
ENDBRANCH  21  28
BRANCH  25  29
ATOM     29  O   UNL     1      -6.890  -1.202 128.724  0.00  0.00    +0.000 OA
ATOM     30  C   UNL     1      -5.485  -1.033 128.546  0.00  0.00    +0.000 C 
ENDBRANCH  25  29
BRANCH  26  31
ATOM     31  O   UNL     1      -8.022  -3.270 127.326  0.00  0.00    +0.000 OA
ATOM     32  C   UNL     1      -8.907  -4.047 128.045  0.00  0.00    +0.000 C 
ENDBRANCH  26  31
ENDBRANCH  19  23
ENDBRANCH  18  19
ENDBRANCH   1  18
TORSDOF 6
ENDMDL
MODEL 3
REMARK VINA RESULT:      -7.0      5.023      7.817
REMARK  Name = Trimetrexate
REMARK  10 active torsions:
REMARK  status: ('A' for Active; 'I' for Inactive)
REMARK    1  A    between atoms: C_1  and  O_2
REMARK    2  A    between atoms: O_2  and  C_3
REMARK    3  A    between atoms: C_5  and  N_6
REMARK    4  A    between atoms: N_6  and  C_7
REMARK    5  A    between atoms: C_7  and  C_8
REMARK    6  A    between atoms: C_9  and  C_10
REMARK    7  A    between atoms: C_22  and  O_23
REMARK    8  A    between atoms: O_23  and  C_24
REMARK    9  A    between atoms: C_25  and  O_26
REMARK   10  A    between atoms: O_26  and  C_27
REMARK                            x       y       z     vdW  Elec       q    Type
REMARK                         _______ _______ _______ _____ _____    ______ ____
ROOT
ATOM      1  C   UNL     1      -8.025  -2.631 128.251  0.00  0.00    +0.000 A 
ATOM      2  C   UNL     1      -7.868  -1.391 127.533  0.00  0.00    +0.000 A 
ATOM      3  C   UNL     1      -7.165  -0.262 128.281  0.00  0.00    +0.000 C 
ATOM      4  C   UNL     1      -8.347  -1.321 126.061  0.00  0.00    +0.000 A 
ATOM      5  C   UNL     1      -8.474  -2.613 125.593  0.00  0.00    +0.000 A 
ATOM      6  C   UNL     1      -9.003  -3.595 126.344  0.00  0.00    +0.000 A 
ATOM      7  C   UNL     1      -8.659  -3.698 127.627  0.00  0.00    +0.000 A 
ATOM      8  N   UNL     1      -8.233  -2.999 124.384  0.00  0.00    +0.000 NA
ATOM      9  C   UNL     1      -9.101  -2.516 123.568  0.00  0.00    +0.000 A 
ATOM     10  N   UNL     1     -10.012  -3.561 123.327  0.00  0.00    +0.000 N 
ATOM     11  N   UNL     1      -9.343  -1.211 123.706  0.00  0.00    +0.000 NA
ATOM     12  C   UNL     1      -8.775  -0.598 124.833  0.00  0.00    +0.000 A 
ATOM     13  N   UNL     1      -8.826   0.770 124.715  0.00  0.00    +0.000 N 
ATOM     14  H   UNL     1      -9.569  -4.217 123.987  0.00  0.00    +0.000 HD
ATOM     15  H   UNL     1      -9.846  -4.115 122.499  0.00  0.00    +0.000 HD
ATOM     16  H   UNL     1      -8.918   1.694 124.357  0.00  0.00    +0.000 HD
ATOM     17  H   UNL     1      -9.361   0.543 123.845  0.00  0.00    +0.000 HD
ENDROOT
BRANCH   1  18
ATOM     18  C   UNL     1      -7.760  -2.971 129.689  0.00  0.00    +0.000 C 
BRANCH  18  19
ATOM     19  N   UNL     1      -6.822  -4.056 129.858  0.00  0.00    +0.000 N 
ATOM     20  H   UNL     1      -6.577  -4.555 129.014  0.00  0.00    +0.000 HD
BRANCH  19  23
ATOM     21  C   UNL     1      -4.462  -4.712 132.680  0.00  0.00    +0.000 A 
ATOM     22  C   UNL     1      -5.517  -4.847 131.747  0.00  0.00    +0.000 A 
ATOM     23  C   UNL     1      -5.799  -3.858 130.789  0.00  0.00    +0.000 A 
ATOM     24  C   UNL     1      -5.080  -2.662 130.842  0.00  0.00    +0.000 A 
ATOM     25  C   UNL     1      -4.035  -2.489 131.742  0.00  0.00    +0.000 A 
ATOM     26  C   UNL     1      -3.710  -3.521 132.655  0.00  0.00    +0.000 A 
BRANCH  21  28
ATOM     27  C   UNL     1      -4.511  -6.140 134.666  0.00  0.00    +0.000 C 
ATOM     28  O   UNL     1      -4.127  -5.893 133.314  0.00  0.00    +0.000 OA
ENDBRANCH  21  28
BRANCH  25  29
ATOM     29  O   UNL     1      -3.384  -1.278 131.583  0.00  0.00    +0.000 OA
ATOM     30  C   UNL     1      -4.132  -0.189 131.045  0.00  0.00    +0.000 C 
ENDBRANCH  25  29
BRANCH  26  31
ATOM     31  O   UNL     1      -2.589  -3.215 133.350  0.00  0.00    +0.000 OA
ATOM     32  C   UNL     1      -2.632  -2.806 134.667  0.00  0.00    +0.000 C 
ENDBRANCH  26  31
ENDBRANCH  19  23
ENDBRANCH  18  19
ENDBRANCH   1  18
TORSDOF 6
ENDMDL
MODEL 4
REMARK VINA RESULT:      -7.0      4.929      7.701
REMARK  Name = Trimetrexate
REMARK  10 active torsions:
REMARK  status: ('A' for Active; 'I' for Inactive)
REMARK    1  A    between atoms: C_1  and  O_2
REMARK    2  A    between atoms: O_2  and  C_3
REMARK    3  A    between atoms: C_5  and  N_6
REMARK    4  A    between atoms: N_6  and  C_7
REMARK    5  A    between atoms: C_7  and  C_8
REMARK    6  A    between atoms: C_9  and  C_10
REMARK    7  A    between atoms: C_22  and  O_23
REMARK    8  A    between atoms: O_23  and  C_24
REMARK    9  A    between atoms: C_25  and  O_26
REMARK   10  A    between atoms: O_26  and  C_27
REMARK                            x       y       z     vdW  Elec       q    Type
REMARK                         _______ _______ _______ _____ _____    ______ ____
ROOT
ATOM      1  C   UNL     1      -8.097  -2.569 128.090  0.00  0.00    +0.000 A 
ATOM      2  C   UNL     1      -7.902  -1.370 127.314  0.00  0.00    +0.000 A 
ATOM      3  C   UNL     1      -7.157  -0.232 128.006  0.00  0.00    +0.000 C 
ATOM      4  C   UNL     1      -8.385  -1.354 125.842  0.00  0.00    +0.000 A 
ATOM      5  C   UNL     1      -8.558  -2.661 125.437  0.00  0.00    +0.000 A 
ATOM      6  C   UNL     1      -9.116  -3.588 126.235  0.00  0.00    +0.000 A 
ATOM      7  C   UNL     1      -8.770  -3.641 127.520  0.00  0.00    +0.000 A 
ATOM      8  N   UNL     1      -8.335  -3.112 124.246  0.00  0.00    +0.000 NA
ATOM      9  C   UNL     1      -9.191  -2.639 123.411  0.00  0.00    +0.000 A 
ATOM     10  N   UNL     1     -10.138  -3.662 123.223  0.00  0.00    +0.000 N 
ATOM     11  N   UNL     1      -9.387  -1.322 123.488  0.00  0.00    +0.000 NA
ATOM     12  C   UNL     1      -8.794  -0.675 124.583  0.00  0.00    +0.000 A 
ATOM     13  N   UNL     1      -8.800   0.686 124.400  0.00  0.00    +0.000 N 
ATOM     14  H   UNL     1      -9.714  -4.302 123.912  0.00  0.00    +0.000 HD
ATOM     15  H   UNL     1      -9.994  -4.261 122.421  0.00  0.00    +0.000 HD
ATOM     16  H   UNL     1      -8.862   1.595 123.999  0.00  0.00    +0.000 HD
ATOM     17  H   UNL     1      -9.346   0.437 123.544  0.00  0.00    +0.000 HD
ENDROOT
BRANCH   1  18
ATOM     18  C   UNL     1      -7.837  -2.849 129.543  0.00  0.00    +0.000 C 
BRANCH  18  19
ATOM     19  N   UNL     1      -7.048  -4.038 129.764  0.00  0.00    +0.000 N 
ATOM     20  H   UNL     1      -6.949  -4.650 128.966  0.00  0.00    +0.000 HD
BRANCH  19  23
ATOM     21  C   UNL     1      -3.932  -2.616 131.257  0.00  0.00    +0.000 A 
ATOM     22  C   UNL     1      -5.049  -2.821 130.415  0.00  0.00    +0.000 A 
ATOM     23  C   UNL     1      -5.931  -3.901 130.592  0.00  0.00    +0.000 A 
ATOM     24  C   UNL     1      -5.620  -4.856 131.564  0.00  0.00    +0.000 A 
ATOM     25  C   UNL     1      -4.532  -4.691 132.413  0.00  0.00    +0.000 A 
ATOM     26  C   UNL     1      -3.692  -3.561 132.274  0.00  0.00    +0.000 A 
BRANCH  21  28
ATOM     27  C   UNL     1      -4.136  -0.185 131.457  0.00  0.00    +0.000 C 
ATOM     28  O   UNL     1      -3.378  -1.355 131.147  0.00  0.00    +0.000 OA
ENDBRANCH  21  28
BRANCH  25  29
ATOM     29  O   UNL     1      -4.439  -5.690 133.367  0.00  0.00    +0.000 OA
ATOM     30  C   UNL     1      -5.344  -5.641 134.469  0.00  0.00    +0.000 C 
ENDBRANCH  25  29
BRANCH  26  31
ATOM     31  O   UNL     1      -2.776  -3.514 133.271  0.00  0.00    +0.000 OA
ATOM     32  C   UNL     1      -2.886  -2.632 134.326  0.00  0.00    +0.000 C 
ENDBRANCH  26  31
ENDBRANCH  19  23
ENDBRANCH  18  19
ENDBRANCH   1  18
TORSDOF 6
ENDMDL
MODEL 5
REMARK VINA RESULT:      -7.0      4.966      7.680
REMARK  Name = Trimetrexate
REMARK  10 active torsions:
REMARK  status: ('A' for Active; 'I' for Inactive)
REMARK    1  A    between atoms: C_1  and  O_2
REMARK    2  A    between atoms: O_2  and  C_3
REMARK    3  A    between atoms: C_5  and  N_6
REMARK    4  A    between atoms: N_6  and  C_7
REMARK    5  A    between atoms: C_7  and  C_8
REMARK    6  A    between atoms: C_9  and  C_10
REMARK    7  A    between atoms: C_22  and  O_23
REMARK    8  A    between atoms: O_23  and  C_24
REMARK    9  A    between atoms: C_25  and  O_26
REMARK   10  A    between atoms: O_26  and  C_27
REMARK                            x       y       z     vdW  Elec       q    Type
REMARK                         _______ _______ _______ _____ _____    ______ ____
ROOT
ATOM      1  C   UNL     1      -8.176   2.585 130.427  0.00  0.00    +0.000 A 
ATOM      2  C   UNL     1      -7.683   3.425 131.489  0.00  0.00    +0.000 A 
ATOM      3  C   UNL     1      -6.264   3.141 131.971  0.00  0.00    +0.000 C 
ATOM      4  C   UNL     1      -8.584   4.578 132.000  0.00  0.00    +0.000 A 
ATOM      5  C   UNL     1      -9.547   4.822 131.043  0.00  0.00    +0.000 A 
ATOM      6  C   UNL     1     -10.170   3.828 130.387  0.00  0.00    +0.000 A 
ATOM      7  C   UNL     1      -9.462   2.789 129.944  0.00  0.00    +0.000 A 
ATOM      8  N   UNL     1     -10.044   5.981 130.759  0.00  0.00    +0.000 NA
ATOM      9  C   UNL     1     -10.762   6.420 131.731  0.00  0.00    +0.000 A 
ATOM     10  N   UNL     1     -12.094   6.167 131.358  0.00  0.00    +0.000 N 
ATOM     11  N   UNL     1     -10.199   6.328 132.937  0.00  0.00    +0.000 NA
ATOM     12  C   UNL     1      -9.005   5.594 133.003  0.00  0.00    +0.000 A 
ATOM     13  N   UNL     1      -8.366   5.817 134.198  0.00  0.00    +0.000 N 
ATOM     14  H   UNL     1     -11.849   5.680 130.483  0.00  0.00    +0.000 HD
ATOM     15  H   UNL     1     -12.588   6.932 130.919  0.00  0.00    +0.000 HD
ATOM     16  H   UNL     1      -8.087   6.197 135.075  0.00  0.00    +0.000 HD
ATOM     17  H   UNL     1      -9.230   6.369 134.406  0.00  0.00    +0.000 HD
ENDROOT
BRANCH   1  18
ATOM     18  C   UNL     1      -7.592   1.349 129.803  0.00  0.00    +0.000 C 
BRANCH  18  19
ATOM     19  N   UNL     1      -7.329   1.491 128.390  0.00  0.00    +0.000 N 
ATOM     20  H   UNL     1      -6.409   1.833 128.150  0.00  0.00    +0.000 HD
BRANCH  19  23
ATOM     21  C   UNL     1      -8.091  -1.868 126.942  0.00  0.00    +0.000 A 
ATOM     22  C   UNL     1      -7.532  -0.839 127.734  0.00  0.00    +0.000 A 
ATOM     23  C   UNL     1      -7.872   0.513 127.553  0.00  0.00    +0.000 A 
ATOM     24  C   UNL     1      -8.704   0.847 126.482  0.00  0.00    +0.000 A 
ATOM     25  C   UNL     1      -9.276  -0.134 125.681  0.00  0.00    +0.000 A 
ATOM     26  C   UNL     1      -8.985  -1.498 125.918  0.00  0.00    +0.000 A 
BRANCH  21  28
ATOM     27  C   UNL     1      -8.597  -3.564 128.633  0.00  0.00    +0.000 C 
ATOM     28  O   UNL     1      -7.902  -3.135 127.462  0.00  0.00    +0.000 OA
ENDBRANCH  21  28
BRANCH  25  29
ATOM     29  O   UNL     1     -10.141   0.384 124.732  0.00  0.00    +0.000 OA
ATOM     30  C   UNL     1      -9.806   1.641 124.145  0.00  0.00    +0.000 C 
ENDBRANCH  25  29
BRANCH  26  31
ATOM     31  O   UNL     1      -9.737  -2.297 125.123  0.00  0.00    +0.000 OA
ATOM     32  C   UNL     1      -9.185  -3.036 124.096  0.00  0.00    +0.000 C 
ENDBRANCH  26  31
ENDBRANCH  19  23
ENDBRANCH  18  19
ENDBRANCH   1  18
TORSDOF 6
ENDMDL
MODEL 6
REMARK VINA RESULT:      -6.8      4.877      9.851
REMARK  Name = Trimetrexate
REMARK  10 active torsions:
REMARK  status: ('A' for Active; 'I' for Inactive)
REMARK    1  A    between atoms: C_1  and  O_2
REMARK    2  A    between atoms: O_2  and  C_3
REMARK    3  A    between atoms: C_5  and  N_6
REMARK    4  A    between atoms: N_6  and  C_7
REMARK    5  A    between atoms: C_7  and  C_8
REMARK    6  A    between atoms: C_9  and  C_10
REMARK    7  A    between atoms: C_22  and  O_23
REMARK    8  A    between atoms: O_23  and  C_24
REMARK    9  A    between atoms: C_25  and  O_26
REMARK   10  A    between atoms: O_26  and  C_27
REMARK                            x       y       z     vdW  Elec       q    Type
REMARK                         _______ _______ _______ _____ _____    ______ ____
ROOT
ATOM      1  C   UNL     1      -6.289  -2.790 129.470  0.00  0.00    +0.000 A 
ATOM      2  C   UNL     1      -5.313  -3.507 130.252  0.00  0.00    +0.000 A 
ATOM      3  C   UNL     1      -3.959  -3.743 129.590  0.00  0.00    +0.000 C 
ATOM      4  C   UNL     1      -5.677  -3.908 131.704  0.00  0.00    +0.000 A 
ATOM      5  C   UNL     1      -6.748  -3.135 132.104  0.00  0.00    +0.000 A 
ATOM      6  C   UNL     1      -7.780  -2.867 131.285  0.00  0.00    +0.000 A 
ATOM      7  C   UNL     1      -7.543  -2.543 130.014  0.00  0.00    +0.000 A 
ATOM      8  N   UNL     1      -6.949  -2.698 133.303  0.00  0.00    +0.000 NA
ATOM      9  C   UNL     1      -7.227  -3.666 134.102  0.00  0.00    +0.000 A 
ATOM     10  N   UNL     1      -8.625  -3.640 134.253  0.00  0.00    +0.000 N 
ATOM     11  N   UNL     1      -6.415  -4.721 134.015  0.00  0.00    +0.000 NA
ATOM     12  C   UNL     1      -5.508  -4.712 132.945  0.00  0.00    +0.000 A 
ATOM     13  N   UNL     1      -4.539  -5.669 133.125  0.00  0.00    +0.000 N 
ATOM     14  H   UNL     1      -8.771  -2.870 133.582  0.00  0.00    +0.000 HD
ATOM     15  H   UNL     1      -8.977  -3.145 135.061  0.00  0.00    +0.000 HD
ATOM     16  H   UNL     1      -3.940  -6.358 133.522  0.00  0.00    +0.000 HD
ATOM     17  H   UNL     1      -5.122  -5.913 133.959  0.00  0.00    +0.000 HD
ENDROOT
BRANCH   1  18
ATOM     18  C   UNL     1      -6.270  -2.364 128.030  0.00  0.00    +0.000 C 
BRANCH  18  19
ATOM     19  N   UNL     1      -6.500  -0.951 127.847  0.00  0.00    +0.000 N 
ATOM     20  H   UNL     1      -5.686  -0.360 127.946  0.00  0.00    +0.000 HD
BRANCH  19  23
ATOM     21  C   UNL     1      -8.945  -1.263 125.039  0.00  0.00    +0.000 A 
ATOM     22  C   UNL     1      -7.977  -1.572 126.023  0.00  0.00    +0.000 A 
ATOM     23  C   UNL     1      -7.420  -0.590 126.859  0.00  0.00    +0.000 A 
ATOM     24  C   UNL     1      -7.759   0.745 126.628  0.00  0.00    +0.000 A 
ATOM     25  C   UNL     1      -8.707   1.092 125.673  0.00  0.00    +0.000 A 
ATOM     26  C   UNL     1      -9.317   0.088 124.885  0.00  0.00    +0.000 A 
BRANCH  21  28
ATOM     27  C   UNL     1      -9.149  -3.048 123.378  0.00  0.00    +0.000 C 
ATOM     28  O   UNL     1      -9.610  -2.369 124.546  0.00  0.00    +0.000 OA
ENDBRANCH  21  28
BRANCH  25  29
ATOM     29  O   UNL     1      -8.976   2.450 125.652  0.00  0.00    +0.000 OA
ATOM     30  C   UNL     1      -8.101   3.288 124.898  0.00  0.00    +0.000 C 
ENDBRANCH  25  29
BRANCH  26  31
ATOM     31  O   UNL     1     -10.300   0.610 124.113  0.00  0.00    +0.000 OA
ATOM     32  C   UNL     1     -10.133   0.826 122.760  0.00  0.00    +0.000 C 
ENDBRANCH  26  31
ENDBRANCH  19  23
ENDBRANCH  18  19
ENDBRANCH   1  18
TORSDOF 6
ENDMDL
MODEL 7
REMARK VINA RESULT:      -6.8      5.121      7.960
REMARK  Name = Trimetrexate
REMARK  10 active torsions:
REMARK  status: ('A' for Active; 'I' for Inactive)
REMARK    1  A    between atoms: C_1  and  O_2
REMARK    2  A    between atoms: O_2  and  C_3
REMARK    3  A    between atoms: C_5  and  N_6
REMARK    4  A    between atoms: N_6  and  C_7
REMARK    5  A    between atoms: C_7  and  C_8
REMARK    6  A    between atoms: C_9  and  C_10
REMARK    7  A    between atoms: C_22  and  O_23
REMARK    8  A    between atoms: O_23  and  C_24
REMARK    9  A    between atoms: C_25  and  O_26
REMARK   10  A    between atoms: O_26  and  C_27
REMARK                            x       y       z     vdW  Elec       q    Type
REMARK                         _______ _______ _______ _____ _____    ______ ____
ROOT
ATOM      1  C   UNL     1      -8.126  -2.636 128.262  0.00  0.00    +0.000 A 
ATOM      2  C   UNL     1      -7.886  -1.418 127.529  0.00  0.00    +0.000 A 
ATOM      3  C   UNL     1      -7.153  -0.311 128.280  0.00  0.00    +0.000 C 
ATOM      4  C   UNL     1      -8.314  -1.354 126.041  0.00  0.00    +0.000 A 
ATOM      5  C   UNL     1      -8.489  -2.646 125.591  0.00  0.00    +0.000 A 
ATOM      6  C   UNL     1      -9.088  -3.588 126.341  0.00  0.00    +0.000 A 
ATOM      7  C   UNL     1      -8.790  -3.683 127.637  0.00  0.00    +0.000 A 
ATOM      8  N   UNL     1      -8.228  -3.065 124.397  0.00  0.00    +0.000 NA
ATOM      9  C   UNL     1      -9.046  -2.557 123.545  0.00  0.00    +0.000 A 
ATOM     10  N   UNL     1      -9.998  -3.561 123.293  0.00  0.00    +0.000 N 
ATOM     11  N   UNL     1      -9.228  -1.240 123.654  0.00  0.00    +0.000 NA
ATOM     12  C   UNL     1      -8.667  -0.633 124.788  0.00  0.00    +0.000 A 
ATOM     13  N   UNL     1      -8.649   0.733 124.645  0.00  0.00    +0.000 N 
ATOM     14  H   UNL     1      -9.609  -4.226 123.978  0.00  0.00    +0.000 HD
ATOM     15  H   UNL     1      -9.834  -4.138 122.480  0.00  0.00    +0.000 HD
ATOM     16  H   UNL     1      -8.685   1.654 124.268  0.00  0.00    +0.000 HD
ATOM     17  H   UNL     1      -9.167   0.515 123.762  0.00  0.00    +0.000 HD
ENDROOT
BRANCH   1  18
ATOM     18  C   UNL     1      -7.922  -2.961 129.714  0.00  0.00    +0.000 C 
BRANCH  18  19
ATOM     19  N   UNL     1      -6.672  -3.633 129.981  0.00  0.00    +0.000 N 
ATOM     20  H   UNL     1      -5.976  -3.563 129.252  0.00  0.00    +0.000 HD
BRANCH  19  23
ATOM     21  C   UNL     1      -4.405  -4.032 132.924  0.00  0.00    +0.000 A 
ATOM     22  C   UNL     1      -4.937  -4.097 131.615  0.00  0.00    +0.000 A 
ATOM     23  C   UNL     1      -6.208  -3.589 131.298  0.00  0.00    +0.000 A 
ATOM     24  C   UNL     1      -7.006  -3.108 132.338  0.00  0.00    +0.000 A 
ATOM     25  C   UNL     1      -6.522  -3.026 133.639  0.00  0.00    +0.000 A 
ATOM     26  C   UNL     1      -5.212  -3.473 133.935  0.00  0.00    +0.000 A 
BRANCH  21  28
ATOM     27  C   UNL     1      -2.519  -5.333 133.784  0.00  0.00    +0.000 C 
ATOM     28  O   UNL     1      -3.046  -4.273 132.985  0.00  0.00    +0.000 OA
ENDBRANCH  21  28
BRANCH  25  29
ATOM     29  O   UNL     1      -7.423  -2.441 134.512  0.00  0.00    +0.000 OA
ATOM     30  C   UNL     1      -8.297  -3.303 135.240  0.00  0.00    +0.000 C 
ENDBRANCH  25  29
BRANCH  26  31
ATOM     31  O   UNL     1      -4.883  -3.188 135.217  0.00  0.00    +0.000 OA
ATOM     32  C   UNL     1      -4.096  -2.103 135.548  0.00  0.00    +0.000 C 
ENDBRANCH  26  31
ENDBRANCH  19  23
ENDBRANCH  18  19
ENDBRANCH   1  18
TORSDOF 6
ENDMDL
MODEL 8
REMARK VINA RESULT:      -6.8      7.395     10.365
REMARK  Name = Trimetrexate
REMARK  10 active torsions:
REMARK  status: ('A' for Active; 'I' for Inactive)
REMARK    1  A    between atoms: C_1  and  O_2
REMARK    2  A    between atoms: O_2  and  C_3
REMARK    3  A    between atoms: C_5  and  N_6
REMARK    4  A    between atoms: N_6  and  C_7
REMARK    5  A    between atoms: C_7  and  C_8
REMARK    6  A    between atoms: C_9  and  C_10
REMARK    7  A    between atoms: C_22  and  O_23
REMARK    8  A    between atoms: O_23  and  C_24
REMARK    9  A    between atoms: C_25  and  O_26
REMARK   10  A    between atoms: O_26  and  C_27
REMARK                            x       y       z     vdW  Elec       q    Type
REMARK                         _______ _______ _______ _____ _____    ______ ____
ROOT
ATOM      1  C   UNL     1      -8.763   2.979 133.431  0.00  0.00    +0.000 A 
ATOM      2  C   UNL     1      -7.377   2.610 133.575  0.00  0.00    +0.000 A 
ATOM      3  C   UNL     1      -6.553   3.445 134.550  0.00  0.00    +0.000 C 
ATOM      4  C   UNL     1      -6.857   1.371 132.803  0.00  0.00    +0.000 A 
ATOM      5  C   UNL     1      -7.948   0.615 132.427  0.00  0.00    +0.000 A 
ATOM      6  C   UNL     1      -9.078   1.174 131.960  0.00  0.00    +0.000 A 
ATOM      7  C   UNL     1      -9.568   2.260 132.558  0.00  0.00    +0.000 A 
ATOM      8  N   UNL     1      -7.976  -0.675 132.356  0.00  0.00    +0.000 NA
ATOM      9  C   UNL     1      -7.233  -1.096 131.395  0.00  0.00    +0.000 A 
ATOM     10  N   UNL     1      -8.114  -1.387 130.338  0.00  0.00    +0.000 N 
ATOM     11  N   UNL     1      -6.014  -0.555 131.344  0.00  0.00    +0.000 NA
ATOM     12  C   UNL     1      -5.786   0.526 132.209  0.00  0.00    +0.000 A 
ATOM     13  N   UNL     1      -4.443   0.800 132.294  0.00  0.00    +0.000 N 
ATOM     14  H   UNL     1      -8.956  -1.056 130.832  0.00  0.00    +0.000 HD
ATOM     15  H   UNL     1      -8.410  -2.349 130.256  0.00  0.00    +0.000 HD
ATOM     16  H   UNL     1      -3.451   0.740 132.236  0.00  0.00    +0.000 HD
ATOM     17  H   UNL     1      -4.379   0.056 131.562  0.00  0.00    +0.000 HD
ENDROOT
BRANCH   1  18
ATOM     18  C   UNL     1      -9.521   4.165 133.958  0.00  0.00    +0.000 C 
BRANCH  18  19
ATOM     19  N   UNL     1      -9.085   5.420 133.392  0.00  0.00    +0.000 N 
ATOM     20  H   UNL     1      -8.139   5.694 133.618  0.00  0.00    +0.000 HD
BRANCH  19  23
ATOM     21  C   UNL     1      -9.091   5.784 129.674  0.00  0.00    +0.000 A 
ATOM     22  C   UNL     1      -8.670   5.546 131.003  0.00  0.00    +0.000 A 
ATOM     23  C   UNL     1      -9.532   5.711 132.101  0.00  0.00    +0.000 A 
ATOM     24  C   UNL     1     -10.806   6.234 131.869  0.00  0.00    +0.000 A 
ATOM     25  C   UNL     1     -11.259   6.481 130.578  0.00  0.00    +0.000 A 
ATOM     26  C   UNL     1     -10.409   6.241 129.473  0.00  0.00    +0.000 A 
BRANCH  21  28
ATOM     27  C   UNL     1      -7.901   3.879 128.703  0.00  0.00    +0.000 C 
ATOM     28  O   UNL     1      -8.237   5.266 128.719  0.00  0.00    +0.000 OA
ENDBRANCH  21  28
BRANCH  25  29
ATOM     29  O   UNL     1     -12.575   6.909 130.544  0.00  0.00    +0.000 OA
ATOM     30  C   UNL     1     -13.016   7.782 131.582  0.00  0.00    +0.000 C 
ENDBRANCH  25  29
BRANCH  26  31
ATOM     31  O   UNL     1     -11.074   6.414 128.305  0.00  0.00    +0.000 OA
ATOM     32  C   UNL     1     -10.839   7.496 127.482  0.00  0.00    +0.000 C 
ENDBRANCH  26  31
ENDBRANCH  19  23
ENDBRANCH  18  19
ENDBRANCH   1  18
TORSDOF 6
ENDMDL
MODEL 9
REMARK VINA RESULT:      -6.8      4.668      9.420
REMARK  Name = Trimetrexate
REMARK  10 active torsions:
REMARK  status: ('A' for Active; 'I' for Inactive)
REMARK    1  A    between atoms: C_1  and  O_2
REMARK    2  A    between atoms: O_2  and  C_3
REMARK    3  A    between atoms: C_5  and  N_6
REMARK    4  A    between atoms: N_6  and  C_7
REMARK    5  A    between atoms: C_7  and  C_8
REMARK    6  A    between atoms: C_9  and  C_10
REMARK    7  A    between atoms: C_22  and  O_23
REMARK    8  A    between atoms: O_23  and  C_24
REMARK    9  A    between atoms: C_25  and  O_26
REMARK   10  A    between atoms: O_26  and  C_27
REMARK                            x       y       z     vdW  Elec       q    Type
REMARK                         _______ _______ _______ _____ _____    ______ ____
ROOT
ATOM      1  C   UNL     1      -5.620  -2.672 128.811  0.00  0.00    +0.000 A 
ATOM      2  C   UNL     1      -6.635  -2.960 129.794  0.00  0.00    +0.000 A 
ATOM      3  C   UNL     1      -8.079  -2.935 129.301  0.00  0.00    +0.000 C 
ATOM      4  C   UNL     1      -6.190  -3.340 131.229  0.00  0.00    +0.000 A 
ATOM      5  C   UNL     1      -4.865  -3.720 131.176  0.00  0.00    +0.000 A 
ATOM      6  C   UNL     1      -3.962  -3.060 130.430  0.00  0.00    +0.000 A 
ATOM      7  C   UNL     1      -4.286  -2.676 129.196  0.00  0.00    +0.000 A 
ATOM      8  N   UNL     1      -4.319  -4.637 131.906  0.00  0.00    +0.000 NA
ATOM      9  C   UNL     1      -4.264  -4.269 133.137  0.00  0.00    +0.000 A 
ATOM     10  N   UNL     1      -2.942  -3.836 133.341  0.00  0.00    +0.000 N 
ATOM     11  N   UNL     1      -5.396  -3.758 133.625  0.00  0.00    +0.000 NA
ATOM     12  C   UNL     1      -6.413  -3.512 132.690  0.00  0.00    +0.000 A 
ATOM     13  N   UNL     1      -7.609  -3.284 133.325  0.00  0.00    +0.000 N 
ATOM     14  H   UNL     1      -2.654  -3.967 132.360  0.00  0.00    +0.000 HD
ATOM     15  H   UNL     1      -2.305  -4.517 133.731  0.00  0.00    +0.000 HD
ATOM     16  H   UNL     1      -8.333  -3.232 134.007  0.00  0.00    +0.000 HD
ATOM     17  H   UNL     1      -7.014  -3.350 134.184  0.00  0.00    +0.000 HD
ENDROOT
BRANCH   1  18
ATOM     18  C   UNL     1      -5.738  -2.182 127.396  0.00  0.00    +0.000 C 
BRANCH  18  19
ATOM     19  N   UNL     1      -6.032  -0.772 127.300  0.00  0.00    +0.000 N 
ATOM     20  H   UNL     1      -5.228  -0.164 127.224  0.00  0.00    +0.000 HD
BRANCH  19  23
ATOM     21  C   UNL     1      -8.736   1.323 125.796  0.00  0.00    +0.000 A 
ATOM     22  C   UNL     1      -7.627   0.908 126.569  0.00  0.00    +0.000 A 
ATOM     23  C   UNL     1      -7.159  -0.418 126.556  0.00  0.00    +0.000 A 
ATOM     24  C   UNL     1      -7.889  -1.368 125.838  0.00  0.00    +0.000 A 
ATOM     25  C   UNL     1      -8.984  -1.002 125.065  0.00  0.00    +0.000 A 
ATOM     26  C   UNL     1      -9.403   0.350 125.027  0.00  0.00    +0.000 A 
BRANCH  21  28
ATOM     27  C   UNL     1      -8.068   3.422 124.730  0.00  0.00    +0.000 C 
ATOM     28  O   UNL     1      -8.848   2.695 125.679  0.00  0.00    +0.000 OA
ENDBRANCH  21  28
BRANCH  25  29
ATOM     29  O   UNL     1      -9.522  -2.063 124.356  0.00  0.00    +0.000 OA
ATOM     30  C   UNL     1      -8.679  -2.726 123.415  0.00  0.00    +0.000 C 
ENDBRANCH  25  29
BRANCH  26  31
ATOM     31  O   UNL     1     -10.394   0.523 124.120  0.00  0.00    +0.000 OA
ATOM     32  C   UNL     1     -10.141   0.936 122.828  0.00  0.00    +0.000 C 
ENDBRANCH  26  31
ENDBRANCH  19  23
ENDBRANCH  18  19
ENDBRANCH   1  18
TORSDOF 6
ENDMDL
