MODEL 1
REMARK VINA RESULT:      -8.9      0.000      0.000
REMARK  Name = Trimethaphan
REMARK  4 active torsions:
REMARK  status: ('A' for Active; 'I' for Inactive)
REMARK    1  A    between atoms: N_3  and  C_4
REMARK    2  A    between atoms: C_4  and  C_5
REMARK    3  A    between atoms: N_19  and  C_20
REMARK    4  A    between atoms: C_20  and  C_21
REMARK                            x       y       z     vdW  Elec       q    Type
REMARK                         _______ _______ _______ _____ _____    ______ ____
ROOT
ATOM      1  O   UNL     1      -9.453   2.296 125.041  0.00  0.00    +0.000 OA
ATOM      2  C   UNL     1      -8.385   1.774 124.858  0.00  0.00    +0.000 C 
ATOM      3  N   UNL     1      -7.944   1.523 123.561  0.00  0.00    +0.000 N 
ATOM      4  C   UNL     1      -8.066   0.066 123.575  0.00  0.00    +0.000 C 
ATOM      5  C   UNL     1      -6.877  -0.767 123.239  0.00  0.00    +0.000 C 
ATOM      6  S   UNL     1      -7.066  -2.370 123.942  0.00  0.00    +0.000 S 
ATOM      7  C   UNL     1      -8.723  -2.992 123.669  0.00  0.00    +0.000 C 
ATOM      8  C   UNL     1      -8.684  -3.659 125.064  0.00  0.00    +0.000 C 
ATOM      9  C   UNL     1      -9.276  -2.578 125.886  0.00  0.00    +0.000 C 
ATOM     10  C   UNL     1      -8.101  -1.575 125.653  0.00  0.00    +0.000 C 
ATOM     11  C   UNL     1      -8.430  -0.236 125.105  0.00  0.00    +0.000 C 
ATOM     12  N   UNL     1      -7.703   0.818 125.718  0.00  0.00    +0.000 N 
ENDROOT
BRANCH   3  13
ATOM     13  C   UNL     1      -6.772   2.347 123.422  0.00  0.00    +0.000 C 
BRANCH  13  14
ATOM     14  C   UNL     1      -6.989   3.434 122.180  0.00  0.00    +0.000 A 
ATOM     15  C   UNL     1      -8.253   3.478 121.657  0.00  0.00    +0.000 A 
ATOM     16  C   UNL     1      -8.378   3.905 120.323  0.00  0.00    +0.000 A 
ATOM     17  C   UNL     1      -7.281   4.239 119.477  0.00  0.00    +0.000 A 
ATOM     18  C   UNL     1      -6.013   4.361 119.990  0.00  0.00    +0.000 A 
ATOM     19  C   UNL     1      -5.910   4.123 121.366  0.00  0.00    +0.000 A 
ENDBRANCH  13  14
ENDBRANCH   3  13
BRANCH  12  20
ATOM     20  C   UNL     1      -6.126   0.636 126.127  0.00  0.00    +0.000 C 
BRANCH  20  21
ATOM     21  C   UNL     1      -5.134   1.680 126.781  0.00  0.00    +0.000 A 
ATOM     22  C   UNL     1      -4.829   1.787 128.126  0.00  0.00    +0.000 A 
ATOM     23  C   UNL     1      -3.708   2.582 128.576  0.00  0.00    +0.000 A 
ATOM     24  C   UNL     1      -2.822   3.245 127.730  0.00  0.00    +0.000 A 
ATOM     25  C   UNL     1      -3.254   3.382 126.461  0.00  0.00    +0.000 A 
ATOM     26  C   UNL     1      -4.399   2.656 126.122  0.00  0.00    +0.000 A 
ENDBRANCH  20  21
ENDBRANCH  12  20
TORSDOF 4
ENDMDL
MODEL 2
REMARK VINA RESULT:      -8.7      1.839      6.106
REMARK  Name = Trimethaphan
REMARK  4 active torsions:
REMARK  status: ('A' for Active; 'I' for Inactive)
REMARK    1  A    between atoms: N_3  and  C_4
REMARK    2  A    between atoms: C_4  and  C_5
REMARK    3  A    between atoms: N_19  and  C_20
REMARK    4  A    between atoms: C_20  and  C_21
REMARK                            x       y       z     vdW  Elec       q    Type
REMARK                         _______ _______ _______ _____ _____    ______ ____
ROOT
ATOM      1  O   UNL     1      -9.582   2.444 124.864  0.00  0.00    +0.000 OA
ATOM      2  C   UNL     1      -8.423   2.266 124.593  0.00  0.00    +0.000 C 
ATOM      3  N   UNL     1      -7.848   1.011 124.778  0.00  0.00    +0.000 N 
ATOM      4  C   UNL     1      -6.989   1.340 125.915  0.00  0.00    +0.000 C 
ATOM      5  C   UNL     1      -5.527   1.065 125.826  0.00  0.00    +0.000 C 
ATOM      6  S   UNL     1      -4.665   2.100 126.958  0.00  0.00    +0.000 S 
ATOM      7  C   UNL     1      -5.492   2.131 128.546  0.00  0.00    +0.000 C 
ATOM      8  C   UNL     1      -5.111   3.623 128.696  0.00  0.00    +0.000 C 
ATOM      9  C   UNL     1      -6.314   4.259 128.110  0.00  0.00    +0.000 C 
ATOM     10  C   UNL     1      -6.068   3.705 126.669  0.00  0.00    +0.000 C 
ATOM     11  C   UNL     1      -7.159   2.928 126.030  0.00  0.00    +0.000 C 
ATOM     12  N   UNL     1      -7.337   3.231 124.655  0.00  0.00    +0.000 N 
ENDROOT
BRANCH   3  13
ATOM     13  C   UNL     1      -7.494   0.586 123.450  0.00  0.00    +0.000 C 
BRANCH  13  14
ATOM     14  C   UNL     1      -7.619  -1.070 123.334  0.00  0.00    +0.000 A 
ATOM     15  C   UNL     1      -8.889  -1.548 123.155  0.00  0.00    +0.000 A 
ATOM     16  C   UNL     1      -9.147  -2.857 123.599  0.00  0.00    +0.000 A 
ATOM     17  C   UNL     1      -8.197  -3.685 124.263  0.00  0.00    +0.000 A 
ATOM     18  C   UNL     1      -6.876  -3.319 124.331  0.00  0.00    +0.000 A 
ATOM     19  C   UNL     1      -6.572  -2.097 123.718  0.00  0.00    +0.000 A 
ENDBRANCH  13  14
ENDBRANCH   3  13
BRANCH  12  20
ATOM     20  C   UNL     1      -6.052   3.507 123.674  0.00  0.00    +0.000 C 
BRANCH  20  21
ATOM     21  C   UNL     1      -6.026   3.827 122.124  0.00  0.00    +0.000 A 
ATOM     22  C   UNL     1      -7.022   3.529 121.211  0.00  0.00    +0.000 A 
ATOM     23  C   UNL     1      -7.018   4.111 119.888  0.00  0.00    +0.000 A 
ATOM     24  C   UNL     1      -6.082   5.039 119.437  0.00  0.00    +0.000 A 
ATOM     25  C   UNL     1      -4.971   5.127 120.194  0.00  0.00    +0.000 A 
ATOM     26  C   UNL     1      -5.011   4.461 121.422  0.00  0.00    +0.000 A 
ENDBRANCH  20  21
ENDBRANCH  12  20
TORSDOF 4
ENDMDL
MODEL 3
REMARK VINA RESULT:      -8.4      2.268      2.974
REMARK  Name = Trimethaphan
REMARK  4 active torsions:
REMARK  status: ('A' for Active; 'I' for Inactive)
REMARK    1  A    between atoms: N_3  and  C_4
REMARK    2  A    between atoms: C_4  and  C_5
REMARK    3  A    between atoms: N_19  and  C_20
REMARK    4  A    between atoms: C_20  and  C_21
REMARK                            x       y       z     vdW  Elec       q    Type
REMARK                         _______ _______ _______ _____ _____    ______ ____
ROOT
ATOM      1  O   UNL     1     -10.282   1.666 124.207  0.00  0.00    +0.000 OA
ATOM      2  C   UNL     1      -9.200   1.444 124.682  0.00  0.00    +0.000 C 
ATOM      3  N   UNL     1      -8.086   1.322 123.855  0.00  0.00    +0.000 N 
ATOM      4  C   UNL     1      -7.867  -0.115 124.009  0.00  0.00    +0.000 C 
ATOM      5  C   UNL     1      -6.534  -0.604 124.463  0.00  0.00    +0.000 C 
ATOM      6  S   UNL     1      -6.708  -2.201 125.182  0.00  0.00    +0.000 S 
ATOM      7  C   UNL     1      -7.766  -3.238 124.177  0.00  0.00    +0.000 C 
ATOM      8  C   UNL     1      -8.338  -3.875 125.465  0.00  0.00    +0.000 C 
ATOM      9  C   UNL     1      -9.504  -2.991 125.696  0.00  0.00    +0.000 C 
ATOM     10  C   UNL     1      -8.649  -1.712 125.971  0.00  0.00    +0.000 C 
ATOM     11  C   UNL     1      -8.920  -0.506 125.151  0.00  0.00    +0.000 C 
ATOM     12  N   UNL     1      -8.897   0.701 125.896  0.00  0.00    +0.000 N 
ENDROOT
BRANCH   3  13
ATOM     13  C   UNL     1      -7.244   2.427 124.233  0.00  0.00    +0.000 C 
BRANCH  13  14
ATOM     14  C   UNL     1      -6.981   3.413 122.917  0.00  0.00    +0.000 A 
ATOM     15  C   UNL     1      -7.965   3.392 121.967  0.00  0.00    +0.000 A 
ATOM     16  C   UNL     1      -7.589   3.715 120.651  0.00  0.00    +0.000 A 
ATOM     17  C   UNL     1      -6.256   4.006 120.242  0.00  0.00    +0.000 A 
ATOM     18  C   UNL     1      -5.263   4.192 121.171  0.00  0.00    +0.000 A 
ATOM     19  C   UNL     1      -5.673   4.060 122.504  0.00  0.00    +0.000 A 
ENDBRANCH  13  14
ENDBRANCH   3  13
BRANCH  12  20
ATOM     20  C   UNL     1      -7.796   0.941 127.088  0.00  0.00    +0.000 C 
BRANCH  20  21
ATOM     21  C   UNL     1      -7.950   0.734 128.649  0.00  0.00    +0.000 A 
ATOM     22  C   UNL     1      -8.412   1.671 129.556  0.00  0.00    +0.000 A 
ATOM     23  C   UNL     1      -8.775   1.289 130.903  0.00  0.00    +0.000 A 
ATOM     24  C   UNL     1      -8.754  -0.017 131.384  0.00  0.00    +0.000 A 
ATOM     25  C   UNL     1      -8.057  -0.884 130.623  0.00  0.00    +0.000 A 
ATOM     26  C   UNL     1      -7.656  -0.415 129.369  0.00  0.00    +0.000 A 
ENDBRANCH  20  21
ENDBRANCH  12  20
TORSDOF 4
ENDMDL
MODEL 4
REMARK VINA RESULT:      -8.4      7.523      9.646
REMARK  Name = Trimethaphan
REMARK  4 active torsions:
REMARK  status: ('A' for Active; 'I' for Inactive)
REMARK    1  A    between atoms: N_3  and  C_4
REMARK    2  A    between atoms: C_4  and  C_5
REMARK    3  A    between atoms: N_19  and  C_20
REMARK    4  A    between atoms: C_20  and  C_21
REMARK                            x       y       z     vdW  Elec       q    Type
REMARK                         _______ _______ _______ _____ _____    ______ ____
ROOT
ATOM      1  O   UNL     1      -9.292   3.327 129.194  0.00  0.00    +0.000 OA
ATOM      2  C   UNL     1      -9.376   4.229 129.986  0.00  0.00    +0.000 C 
ATOM      3  N   UNL     1     -10.326   4.178 131.004  0.00  0.00    +0.000 N 
ATOM      4  C   UNL     1     -11.219   5.225 130.509  0.00  0.00    +0.000 C 
ATOM      5  C   UNL     1     -11.559   6.372 131.398  0.00  0.00    +0.000 C 
ATOM      6  S   UNL     1     -12.056   7.747 130.418  0.00  0.00    +0.000 S 
ATOM      7  C   UNL     1     -13.182   7.231 129.125  0.00  0.00    +0.000 C 
ATOM      8  C   UNL     1     -12.543   8.272 128.177  0.00  0.00    +0.000 C 
ATOM      9  C   UNL     1     -11.501   7.435 127.537  0.00  0.00    +0.000 C 
ATOM     10  C   UNL     1     -10.682   7.218 128.850  0.00  0.00    +0.000 C 
ATOM     11  C   UNL     1     -10.400   5.823 129.269  0.00  0.00    +0.000 C 
ATOM     12  N   UNL     1      -9.083   5.637 129.764  0.00  0.00    +0.000 N 
ENDROOT
BRANCH   3  13
ATOM     13  C   UNL     1      -9.545   4.130 132.211  0.00  0.00    +0.000 C 
BRANCH  13  14
ATOM     14  C   UNL     1      -9.141   2.553 132.560  0.00  0.00    +0.000 A 
ATOM     15  C   UNL     1      -7.926   2.382 133.165  0.00  0.00    +0.000 A 
ATOM     16  C   UNL     1      -7.289   1.142 132.981  0.00  0.00    +0.000 A 
ATOM     17  C   UNL     1      -7.798   0.087 132.171  0.00  0.00    +0.000 A 
ATOM     18  C   UNL     1      -9.075   0.143 131.669  0.00  0.00    +0.000 A 
ATOM     19  C   UNL     1      -9.791   1.298 132.010  0.00  0.00    +0.000 A 
ENDBRANCH  13  14
ENDBRANCH   3  13
BRANCH  12  20
ATOM     20  C   UNL     1      -8.360   6.772 130.701  0.00  0.00    +0.000 C 
BRANCH  20  21
ATOM     21  C   UNL     1      -6.921   6.761 131.356  0.00  0.00    +0.000 A 
ATOM     22  C   UNL     1      -6.570   6.155 132.550  0.00  0.00    +0.000 A 
ATOM     23  C   UNL     1      -5.182   5.966 132.911  0.00  0.00    +0.000 A 
ATOM     24  C   UNL     1      -4.103   6.307 132.099  0.00  0.00    +0.000 A 
ATOM     25  C   UNL     1      -4.408   7.134 131.080  0.00  0.00    +0.000 A 
ATOM     26  C   UNL     1      -5.770   7.345 130.847  0.00  0.00    +0.000 A 
ENDBRANCH  20  21
ENDBRANCH  12  20
TORSDOF 4
ENDMDL
MODEL 5
REMARK VINA RESULT:      -8.4      7.754      8.698
REMARK  Name = Trimethaphan
REMARK  4 active torsions:
REMARK  status: ('A' for Active; 'I' for Inactive)
REMARK    1  A    between atoms: N_3  and  C_4
REMARK    2  A    between atoms: C_4  and  C_5
REMARK    3  A    between atoms: N_19  and  C_20
REMARK    4  A    between atoms: C_20  and  C_21
REMARK                            x       y       z     vdW  Elec       q    Type
REMARK                         _______ _______ _______ _____ _____    ______ ____
ROOT
ATOM      1  O   UNL     1     -10.687   6.500 132.820  0.00  0.00    +0.000 OA
ATOM      2  C   UNL     1      -9.973   6.164 131.912  0.00  0.00    +0.000 C 
ATOM      3  N   UNL     1     -10.482   5.389 130.873  0.00  0.00    +0.000 N 
ATOM      4  C   UNL     1      -9.794   4.138 131.187  0.00  0.00    +0.000 C 
ATOM      5  C   UNL     1      -8.959   3.484 130.140  0.00  0.00    +0.000 C 
ATOM      6  S   UNL     1      -7.768   2.438 130.907  0.00  0.00    +0.000 S 
ATOM      7  C   UNL     1      -8.521   1.469 132.211  0.00  0.00    +0.000 C 
ATOM      8  C   UNL     1      -7.221   1.602 133.037  0.00  0.00    +0.000 C 
ATOM      9  C   UNL     1      -7.536   2.817 133.824  0.00  0.00    +0.000 C 
ATOM     10  C   UNL     1      -7.576   3.770 132.586  0.00  0.00    +0.000 C 
ATOM     11  C   UNL     1      -8.804   4.573 132.368  0.00  0.00    +0.000 C 
ATOM     12  N   UNL     1      -8.541   5.906 131.956  0.00  0.00    +0.000 N 
ENDROOT
BRANCH   3  13
ATOM     13  C   UNL     1     -10.369   6.235 129.715  0.00  0.00    +0.000 C 
BRANCH  13  14
ATOM     14  C   UNL     1     -11.803   7.043 129.463  0.00  0.00    +0.000 A 
ATOM     15  C   UNL     1     -12.787   6.310 128.857  0.00  0.00    +0.000 A 
ATOM     16  C   UNL     1     -13.757   7.022 128.129  0.00  0.00    +0.000 A 
ATOM     17  C   UNL     1     -13.748   8.434 127.939  0.00  0.00    +0.000 A 
ATOM     18  C   UNL     1     -12.880   9.229 128.645  0.00  0.00    +0.000 A 
ATOM     19  C   UNL     1     -12.034   8.541 129.523  0.00  0.00    +0.000 A 
ENDBRANCH  13  14
ENDBRANCH   3  13
BRANCH  12  20
ATOM     20  C   UNL     1      -7.329   6.246 130.906  0.00  0.00    +0.000 C 
BRANCH  20  21
ATOM     21  C   UNL     1      -5.877   6.801 131.199  0.00  0.00    +0.000 A 
ATOM     22  C   UNL     1      -5.078   6.472 132.281  0.00  0.00    +0.000 A 
ATOM     23  C   UNL     1      -3.674   6.816 132.302  0.00  0.00    +0.000 A 
ATOM     24  C   UNL     1      -2.997   7.433 131.254  0.00  0.00    +0.000 A 
ATOM     25  C   UNL     1      -3.795   8.001 130.328  0.00  0.00    +0.000 A 
ATOM     26  C   UNL     1      -5.157   7.699 130.425  0.00  0.00    +0.000 A 
ENDBRANCH  20  21
ENDBRANCH  12  20
TORSDOF 4
ENDMDL
MODEL 6
REMARK VINA RESULT:      -7.9      2.905      6.257
REMARK  Name = Trimethaphan
REMARK  4 active torsions:
REMARK  status: ('A' for Active; 'I' for Inactive)
REMARK    1  A    between atoms: N_3  and  C_4
REMARK    2  A    between atoms: C_4  and  C_5
REMARK    3  A    between atoms: N_19  and  C_20
REMARK    4  A    between atoms: C_20  and  C_21
REMARK                            x       y       z     vdW  Elec       q    Type
REMARK                         _______ _______ _______ _____ _____    ______ ____
ROOT
ATOM      1  O   UNL     1      -5.408   0.276 127.502  0.00  0.00    +0.000 OA
ATOM      2  C   UNL     1      -6.325   0.780 126.908  0.00  0.00    +0.000 C 
ATOM      3  N   UNL     1      -7.637   0.494 127.277  0.00  0.00    +0.000 N 
ATOM      4  C   UNL     1      -8.011  -0.309 126.113  0.00  0.00    +0.000 C 
ATOM      5  C   UNL     1      -9.210   0.078 125.317  0.00  0.00    +0.000 C 
ATOM      6  S   UNL     1      -9.071  -0.578 123.690  0.00  0.00    +0.000 S 
ATOM      7  C   UNL     1      -8.518  -2.281 123.738  0.00  0.00    +0.000 C 
ATOM      8  C   UNL     1      -7.695  -2.032 122.452  0.00  0.00    +0.000 C 
ATOM      9  C   UNL     1      -6.395  -1.643 123.047  0.00  0.00    +0.000 C 
ATOM     10  C   UNL     1      -6.934  -0.327 123.694  0.00  0.00    +0.000 C 
ATOM     11  C   UNL     1      -6.740  -0.142 125.153  0.00  0.00    +0.000 C 
ATOM     12  N   UNL     1      -6.366   1.180 125.510  0.00  0.00    +0.000 N 
ENDROOT
BRANCH   3  13
ATOM     13  C   UNL     1      -8.159   1.756 127.730  0.00  0.00    +0.000 C 
BRANCH  13  14
ATOM     14  C   UNL     1      -8.336   1.734 129.385  0.00  0.00    +0.000 A 
ATOM     15  C   UNL     1      -8.089   0.527 129.982  0.00  0.00    +0.000 A 
ATOM     16  C   UNL     1      -8.730   0.278 131.208  0.00  0.00    +0.000 A 
ATOM     17  C   UNL     1      -9.651   1.169 131.832  0.00  0.00    +0.000 A 
ATOM     18  C   UNL     1      -9.816   2.447 131.361  0.00  0.00    +0.000 A 
ATOM     19  C   UNL     1      -9.032   2.770 130.247  0.00  0.00    +0.000 A 
ENDBRANCH  13  14
ENDBRANCH   3  13
BRANCH  12  20
ATOM     20  C   UNL     1      -7.022   2.480 124.755  0.00  0.00    +0.000 C 
BRANCH  20  21
ATOM     21  C   UNL     1      -6.496   3.276 123.494  0.00  0.00    +0.000 A 
ATOM     22  C   UNL     1      -5.465   4.200 123.481  0.00  0.00    +0.000 A 
ATOM     23  C   UNL     1      -4.886   4.653 122.236  0.00  0.00    +0.000 A 
ATOM     24  C   UNL     1      -5.251   4.180 120.978  0.00  0.00    +0.000 A 
ATOM     25  C   UNL     1      -6.417   3.505 120.950  0.00  0.00    +0.000 A 
ATOM     26  C   UNL     1      -6.969   3.181 122.193  0.00  0.00    +0.000 A 
ENDBRANCH  20  21
ENDBRANCH  12  20
TORSDOF 4
ENDMDL
MODEL 7
REMARK VINA RESULT:      -7.9      6.986      9.318
REMARK  Name = Trimethaphan
REMARK  4 active torsions:
REMARK  status: ('A' for Active; 'I' for Inactive)
REMARK    1  A    between atoms: N_3  and  C_4
REMARK    2  A    between atoms: C_4  and  C_5
REMARK    3  A    between atoms: N_19  and  C_20
REMARK    4  A    between atoms: C_20  and  C_21
REMARK                            x       y       z     vdW  Elec       q    Type
REMARK                         _______ _______ _______ _____ _____    ______ ____
ROOT
ATOM      1  O   UNL     1      -8.982   7.763 129.874  0.00  0.00    +0.000 OA
ATOM      2  C   UNL     1      -9.255   6.663 130.276  0.00  0.00    +0.000 C 
ATOM      3  N   UNL     1     -10.199   6.503 131.288  0.00  0.00    +0.000 N 
ATOM      4  C   UNL     1      -9.290   6.098 132.360  0.00  0.00    +0.000 C 
ATOM      5  C   UNL     1      -9.540   4.818 133.081  0.00  0.00    +0.000 C 
ATOM      6  S   UNL     1      -8.040   4.248 133.803  0.00  0.00    +0.000 S 
ATOM      7  C   UNL     1      -7.171   5.593 134.606  0.00  0.00    +0.000 C 
ATOM      8  C   UNL     1      -5.828   4.972 134.156  0.00  0.00    +0.000 C 
ATOM      9  C   UNL     1      -5.635   5.679 132.868  0.00  0.00    +0.000 C 
ATOM     10  C   UNL     1      -6.874   5.030 132.173  0.00  0.00    +0.000 C 
ATOM     11  C   UNL     1      -7.896   5.935 131.590  0.00  0.00    +0.000 C 
ATOM     12  N   UNL     1      -8.388   5.496 130.333  0.00  0.00    +0.000 N 
ENDROOT
BRANCH   3  13
ATOM     13  C   UNL     1     -11.267   5.771 130.662  0.00  0.00    +0.000 C 
BRANCH  13  14
ATOM     14  C   UNL     1     -12.387   6.831 130.034  0.00  0.00    +0.000 A 
ATOM     15  C   UNL     1     -12.932   6.461 128.835  0.00  0.00    +0.000 A 
ATOM     16  C   UNL     1     -13.411   7.490 128.006  0.00  0.00    +0.000 A 
ATOM     17  C   UNL     1     -13.316   8.880 128.308  0.00  0.00    +0.000 A 
ATOM     18  C   UNL     1     -12.922   9.299 129.554  0.00  0.00    +0.000 A 
ATOM     19  C   UNL     1     -12.625   8.269 130.455  0.00  0.00    +0.000 A 
ENDBRANCH  13  14
ENDBRANCH   3  13
BRANCH  12  20
ATOM     20  C   UNL     1      -8.660   3.906 130.037  0.00  0.00    +0.000 C 
BRANCH  20  21
ATOM     21  C   UNL     1      -8.297   3.049 128.758  0.00  0.00    +0.000 A 
ATOM     22  C   UNL     1      -8.490   1.688 128.603  0.00  0.00    +0.000 A 
ATOM     23  C   UNL     1      -8.385   1.062 127.304  0.00  0.00    +0.000 A 
ATOM     24  C   UNL     1      -8.147   1.748 126.116  0.00  0.00    +0.000 A 
ATOM     25  C   UNL     1      -7.689   3.005 126.276  0.00  0.00    +0.000 A 
ATOM     26  C   UNL     1      -7.733   3.513 127.578  0.00  0.00    +0.000 A 
ENDBRANCH  20  21
ENDBRANCH  12  20
TORSDOF 4
ENDMDL
MODEL 8
REMARK VINA RESULT:      -7.9      7.458      9.790
REMARK  Name = Trimethaphan
REMARK  4 active torsions:
REMARK  status: ('A' for Active; 'I' for Inactive)
REMARK    1  A    between atoms: N_3  and  C_4
REMARK    2  A    between atoms: C_4  and  C_5
REMARK    3  A    between atoms: N_19  and  C_20
REMARK    4  A    between atoms: C_20  and  C_21
REMARK                            x       y       z     vdW  Elec       q    Type
REMARK                         _______ _______ _______ _____ _____    ______ ____
ROOT
ATOM      1  O   UNL     1      -5.928   4.829 128.781  0.00  0.00    +0.000 OA
ATOM      2  C   UNL     1      -6.442   5.368 129.726  0.00  0.00    +0.000 C 
ATOM      3  N   UNL     1      -5.762   5.447 130.939  0.00  0.00    +0.000 N 
ATOM      4  C   UNL     1      -6.580   4.502 131.699  0.00  0.00    +0.000 C 
ATOM      5  C   UNL     1      -7.199   4.942 132.981  0.00  0.00    +0.000 C 
ATOM      6  S   UNL     1      -8.594   3.929 133.338  0.00  0.00    +0.000 S 
ATOM      7  C   UNL     1      -8.213   2.203 133.054  0.00  0.00    +0.000 C 
ATOM      8  C   UNL     1      -9.654   1.987 132.536  0.00  0.00    +0.000 C 
ATOM      9  C   UNL     1      -9.447   2.221 131.088  0.00  0.00    +0.000 C 
ATOM     10  C   UNL     1      -9.073   3.730 131.250  0.00  0.00    +0.000 C 
ATOM     11  C   UNL     1      -7.780   4.188 130.685  0.00  0.00    +0.000 C 
ATOM     12  N   UNL     1      -7.860   5.450 130.041  0.00  0.00    +0.000 N 
ENDROOT
BRANCH   3  13
ATOM     13  C   UNL     1      -5.561   6.857 131.139  0.00  0.00    +0.000 C 
BRANCH  13  14
ATOM     14  C   UNL     1      -3.931   7.189 131.220  0.00  0.00    +0.000 A 
ATOM     15  C   UNL     1      -3.189   6.729 130.167  0.00  0.00    +0.000 A 
ATOM     16  C   UNL     1      -1.829   6.468 130.410  0.00  0.00    +0.000 A 
ATOM     17  C   UNL     1      -1.197   6.598 131.680  0.00  0.00    +0.000 A 
ATOM     18  C   UNL     1      -1.850   7.198 132.728  0.00  0.00    +0.000 A 
ATOM     19  C   UNL     1      -3.147   7.639 132.439  0.00  0.00    +0.000 A 
ENDBRANCH  13  14
ENDBRANCH   3  13
BRANCH  12  20
ATOM     20  C   UNL     1      -8.784   6.658 130.654  0.00  0.00    +0.000 C 
BRANCH  20  21
ATOM     21  C   UNL     1     -10.225   7.139 130.212  0.00  0.00    +0.000 A 
ATOM     22  C   UNL     1     -11.406   6.919 130.898  0.00  0.00    +0.000 A 
ATOM     23  C   UNL     1     -12.613   7.637 130.554  0.00  0.00    +0.000 A 
ATOM     24  C   UNL     1     -12.691   8.626 129.577  0.00  0.00    +0.000 A 
ATOM     25  C   UNL     1     -11.646   8.658 128.727  0.00  0.00    +0.000 A 
ATOM     26  C   UNL     1     -10.548   7.865 129.074  0.00  0.00    +0.000 A 
ENDBRANCH  20  21
ENDBRANCH  12  20
TORSDOF 4
ENDMDL
MODEL 9
REMARK VINA RESULT:      -7.7      6.162      8.614
REMARK  Name = Trimethaphan
REMARK  4 active torsions:
REMARK  status: ('A' for Active; 'I' for Inactive)
REMARK    1  A    between atoms: N_3  and  C_4
REMARK    2  A    between atoms: C_4  and  C_5
REMARK    3  A    between atoms: N_19  and  C_20
REMARK    4  A    between atoms: C_20  and  C_21
REMARK                            x       y       z     vdW  Elec       q    Type
REMARK                         _______ _______ _______ _____ _____    ______ ____
ROOT
ATOM      1  O   UNL     1      -8.877   2.080 129.062  0.00  0.00    +0.000 OA
ATOM      2  C   UNL     1      -8.497   3.202 129.273  0.00  0.00    +0.000 C 
ATOM      3  N   UNL     1      -7.133   3.475 129.343  0.00  0.00    +0.000 N 
ATOM      4  C   UNL     1      -7.044   3.735 130.780  0.00  0.00    +0.000 C 
ATOM      5  C   UNL     1      -6.470   5.026 131.252  0.00  0.00    +0.000 C 
ATOM      6  S   UNL     1      -7.058   5.372 132.875  0.00  0.00    +0.000 S 
ATOM      7  C   UNL     1      -6.979   3.908 133.903  0.00  0.00    +0.000 C 
ATOM      8  C   UNL     1      -8.293   4.343 134.594  0.00  0.00    +0.000 C 
ATOM      9  C   UNL     1      -9.279   3.635 133.744  0.00  0.00    +0.000 C 
ATOM     10  C   UNL     1      -8.961   4.460 132.456  0.00  0.00    +0.000 C 
ATOM     11  C   UNL     1      -8.581   3.715 131.231  0.00  0.00    +0.000 C 
ATOM     12  N   UNL     1      -9.166   4.236 130.048  0.00  0.00    +0.000 N 
ENDROOT
BRANCH   3  13
ATOM     13  C   UNL     1      -6.893   4.358 128.232  0.00  0.00    +0.000 C 
BRANCH  13  14
ATOM     14  C   UNL     1      -5.297   4.263 127.769  0.00  0.00    +0.000 A 
ATOM     15  C   UNL     1      -5.067   4.433 126.431  0.00  0.00    +0.000 A 
ATOM     16  C   UNL     1      -3.911   3.834 125.901  0.00  0.00    +0.000 A 
ATOM     17  C   UNL     1      -3.005   3.027 126.648  0.00  0.00    +0.000 A 
ATOM     18  C   UNL     1      -3.101   2.951 128.015  0.00  0.00    +0.000 A 
ATOM     19  C   UNL     1      -4.141   3.703 128.575  0.00  0.00    +0.000 A 
ENDBRANCH  13  14
ENDBRANCH   3  13
BRANCH  12  20
ATOM     20  C   UNL     1      -9.324   5.853 129.821  0.00  0.00    +0.000 C 
BRANCH  20  21
ATOM     21  C   UNL     1     -10.638   6.730 129.753  0.00  0.00    +0.000 A 
ATOM     22  C   UNL     1     -11.643   6.773 130.704  0.00  0.00    +0.000 A 
ATOM     23  C   UNL     1     -12.652   7.808 130.677  0.00  0.00    +0.000 A 
ATOM     24  C   UNL     1     -12.678   8.860 129.764  0.00  0.00    +0.000 A 
ATOM     25  C   UNL     1     -11.890   8.685 128.685  0.00  0.00    +0.000 A 
ATOM     26  C   UNL     1     -11.003   7.606 128.741  0.00  0.00    +0.000 A 
ENDBRANCH  20  21
ENDBRANCH  12  20
TORSDOF 4
ENDMDL
