MODEL 1
REMARK VINA RESULT:      -5.2      0.000      0.000
REMARK  Name = Trimethadione
REMARK  3 active torsions:
REMARK  status: ('A' for Active; 'I' for Inactive)
REMARK    1  A    between atoms: C_1  and  N_2
REMARK    2  A    between atoms: C_6  and  C_7
REMARK    3  A    between atoms: C_6  and  C_8
REMARK                            x       y       z     vdW  Elec       q    Type
REMARK                         _______ _______ _______ _____ _____    ______ ____
ROOT
ATOM      1  C   UNL     1      -9.697   6.471 130.660  0.00  0.00    +0.000 C 
ATOM      2  N   UNL     1     -10.920   6.979 130.081  0.00  0.00    +0.000 N 
ATOM      3  C   UNL     1     -12.151   6.835 130.599  0.00  0.00    +0.000 C 
ATOM      4  O   UNL     1     -12.440   6.597 131.763  0.00  0.00    +0.000 OA
ATOM      5  O   UNL     1     -13.082   7.041 129.621  0.00  0.00    +0.000 OA
ATOM      6  C   UNL     1     -12.464   7.828 128.592  0.00  0.00    +0.000 C 
ATOM      7  C   UNL     1     -13.123   9.194 128.625  0.00  0.00    +0.000 C 
ATOM      8  C   UNL     1     -12.606   7.216 127.202  0.00  0.00    +0.000 C 
ATOM      9  C   UNL     1     -11.006   7.804 129.010  0.00  0.00    +0.000 C 
ATOM     10  O   UNL     1     -10.094   8.413 128.473  0.00  0.00    +0.000 OA
ENDROOT
TORSDOF 0
ENDMDL
MODEL 2
REMARK VINA RESULT:      -5.1      1.158      2.606
REMARK  Name = Trimethadione
REMARK  3 active torsions:
REMARK  status: ('A' for Active; 'I' for Inactive)
REMARK    1  A    between atoms: C_1  and  N_2
REMARK    2  A    between atoms: C_6  and  C_7
REMARK    3  A    between atoms: C_6  and  C_8
REMARK                            x       y       z     vdW  Elec       q    Type
REMARK                         _______ _______ _______ _____ _____    ______ ____
ROOT
ATOM      1  C   UNL     1      -9.827   6.807 130.617  0.00  0.00    +0.000 C 
ATOM      2  N   UNL     1     -10.818   7.146 129.621  0.00  0.00    +0.000 N 
ATOM      3  C   UNL     1     -10.633   7.119 128.291  0.00  0.00    +0.000 C 
ATOM      4  O   UNL     1      -9.782   6.492 127.675  0.00  0.00    +0.000 OA
ATOM      5  O   UNL     1     -11.587   7.886 127.684  0.00  0.00    +0.000 OA
ATOM      6  C   UNL     1     -12.700   7.987 128.585  0.00  0.00    +0.000 C 
ATOM      7  C   UNL     1     -13.841   7.202 127.967  0.00  0.00    +0.000 C 
ATOM      8  C   UNL     1     -13.137   9.427 128.839  0.00  0.00    +0.000 C 
ATOM      9  C   UNL     1     -12.127   7.398 129.860  0.00  0.00    +0.000 C 
ATOM     10  O   UNL     1     -12.739   7.200 130.898  0.00  0.00    +0.000 OA
ENDROOT
TORSDOF 0
ENDMDL
MODEL 3
REMARK VINA RESULT:      -4.8      1.314      3.195
REMARK  Name = Trimethadione
REMARK  3 active torsions:
REMARK  status: ('A' for Active; 'I' for Inactive)
REMARK    1  A    between atoms: C_1  and  N_2
REMARK    2  A    between atoms: C_6  and  C_7
REMARK    3  A    between atoms: C_6  and  C_8
REMARK                            x       y       z     vdW  Elec       q    Type
REMARK                         _______ _______ _______ _____ _____    ______ ____
ROOT
ATOM      1  C   UNL     1     -12.368   8.860 129.203  0.00  0.00    +0.000 C 
ATOM      2  N   UNL     1     -11.652   7.796 129.869  0.00  0.00    +0.000 N 
ATOM      3  C   UNL     1     -12.049   7.165 130.986  0.00  0.00    +0.000 C 
ATOM      4  O   UNL     1     -13.186   7.095 131.431  0.00  0.00    +0.000 OA
ATOM      5  O   UNL     1     -10.976   6.549 131.565  0.00  0.00    +0.000 OA
ATOM      6  C   UNL     1      -9.988   6.348 130.544  0.00  0.00    +0.000 C 
ATOM      7  C   UNL     1      -9.907   4.855 130.294  0.00  0.00    +0.000 C 
ATOM      8  C   UNL     1      -8.612   6.886 130.927  0.00  0.00    +0.000 C 
ATOM      9  C   UNL     1     -10.550   7.166 129.397  0.00  0.00    +0.000 C 
ATOM     10  O   UNL     1     -10.086   7.237 128.269  0.00  0.00    +0.000 OA
ENDROOT
TORSDOF 0
ENDMDL
MODEL 4
REMARK VINA RESULT:      -4.8      1.248      3.694
REMARK  Name = Trimethadione
REMARK  3 active torsions:
REMARK  status: ('A' for Active; 'I' for Inactive)
REMARK    1  A    between atoms: C_1  and  N_2
REMARK    2  A    between atoms: C_6  and  C_7
REMARK    3  A    between atoms: C_6  and  C_8
REMARK                            x       y       z     vdW  Elec       q    Type
REMARK                         _______ _______ _______ _____ _____    ______ ____
ROOT
ATOM      1  C   UNL     1     -12.945   8.583 128.843  0.00  0.00    +0.000 C 
ATOM      2  N   UNL     1     -11.890   7.766 129.397  0.00  0.00    +0.000 N 
ATOM      3  C   UNL     1     -10.613   7.750 128.983  0.00  0.00    +0.000 C 
ATOM      4  O   UNL     1     -10.027   8.623 128.358  0.00  0.00    +0.000 OA
ATOM      5  O   UNL     1     -10.013   6.598 129.407  0.00  0.00    +0.000 OA
ATOM      6  C   UNL     1     -10.754   6.112 130.535  0.00  0.00    +0.000 C 
ATOM      7  C   UNL     1      -9.864   6.275 131.752  0.00  0.00    +0.000 C 
ATOM      8  C   UNL     1     -11.177   4.653 130.392  0.00  0.00    +0.000 C 
ATOM      9  C   UNL     1     -11.983   7.000 130.511  0.00  0.00    +0.000 C 
ATOM     10  O   UNL     1     -12.880   7.011 131.340  0.00  0.00    +0.000 OA
ENDROOT
TORSDOF 0
ENDMDL
MODEL 5
REMARK VINA RESULT:      -4.5      1.601      1.811
REMARK  Name = Trimethadione
REMARK  3 active torsions:
REMARK  status: ('A' for Active; 'I' for Inactive)
REMARK    1  A    between atoms: C_1  and  N_2
REMARK    2  A    between atoms: C_6  and  C_7
REMARK    3  A    between atoms: C_6  and  C_8
REMARK                            x       y       z     vdW  Elec       q    Type
REMARK                         _______ _______ _______ _____ _____    ______ ____
ROOT
ATOM      1  C   UNL     1      -8.684   5.098 129.761  0.00  0.00    +0.000 C 
ATOM      2  N   UNL     1      -9.794   6.020 129.842  0.00  0.00    +0.000 N 
ATOM      3  C   UNL     1     -10.295   6.544 130.973  0.00  0.00    +0.000 C 
ATOM      4  O   UNL     1      -9.732   6.647 132.054  0.00  0.00    +0.000 OA
ATOM      5  O   UNL     1     -11.559   7.007 130.737  0.00  0.00    +0.000 OA
ATOM      6  C   UNL     1     -11.676   7.251 129.328  0.00  0.00    +0.000 C 
ATOM      7  C   UNL     1     -11.775   8.753 129.146  0.00  0.00    +0.000 C 
ATOM      8  C   UNL     1     -12.889   6.571 128.700  0.00  0.00    +0.000 C 
ATOM      9  C   UNL     1     -10.406   6.618 128.792  0.00  0.00    +0.000 C 
ATOM     10  O   UNL     1     -10.022   6.645 127.633  0.00  0.00    +0.000 OA
ENDROOT
TORSDOF 0
ENDMDL
MODEL 6
REMARK VINA RESULT:      -4.4     10.525     11.147
REMARK  Name = Trimethadione
REMARK  3 active torsions:
REMARK  status: ('A' for Active; 'I' for Inactive)
REMARK    1  A    between atoms: C_1  and  N_2
REMARK    2  A    between atoms: C_6  and  C_7
REMARK    3  A    between atoms: C_6  and  C_8
REMARK                            x       y       z     vdW  Elec       q    Type
REMARK                         _______ _______ _______ _____ _____    ______ ____
ROOT
ATOM      1  C   UNL     1      -7.265   0.702 124.326  0.00  0.00    +0.000 C 
ATOM      2  N   UNL     1      -8.039  -0.517 124.368  0.00  0.00    +0.000 N 
ATOM      3  C   UNL     1      -9.169  -0.703 125.069  0.00  0.00    +0.000 C 
ATOM      4  O   UNL     1      -9.932   0.158 125.485  0.00  0.00    +0.000 OA
ATOM      5  O   UNL     1      -9.389  -2.042 125.229  0.00  0.00    +0.000 OA
ATOM      6  C   UNL     1      -8.678  -2.726 124.187  0.00  0.00    +0.000 C 
ATOM      7  C   UNL     1      -9.720  -3.311 123.253  0.00  0.00    +0.000 C 
ATOM      8  C   UNL     1      -7.768  -3.834 124.708  0.00  0.00    +0.000 C 
ATOM      9  C   UNL     1      -7.835  -1.612 123.597  0.00  0.00    +0.000 C 
ATOM     10  O   UNL     1      -7.112  -1.700 122.617  0.00  0.00    +0.000 OA
ENDROOT
TORSDOF 0
ENDMDL
MODEL 7
REMARK VINA RESULT:      -4.4      2.187      2.889
REMARK  Name = Trimethadione
REMARK  3 active torsions:
REMARK  status: ('A' for Active; 'I' for Inactive)
REMARK    1  A    between atoms: C_1  and  N_2
REMARK    2  A    between atoms: C_6  and  C_7
REMARK    3  A    between atoms: C_6  and  C_8
REMARK                            x       y       z     vdW  Elec       q    Type
REMARK                         _______ _______ _______ _____ _____    ______ ____
ROOT
ATOM      1  C   UNL     1      -8.669   4.168 130.798  0.00  0.00    +0.000 C 
ATOM      2  N   UNL     1      -9.873   4.947 130.624  0.00  0.00    +0.000 N 
ATOM      3  C   UNL     1     -11.051   4.479 130.180  0.00  0.00    +0.000 C 
ATOM      4  O   UNL     1     -11.436   3.318 130.188  0.00  0.00    +0.000 OA
ATOM      5  O   UNL     1     -11.815   5.521 129.737  0.00  0.00    +0.000 OA
ATOM      6  C   UNL     1     -11.336   6.713 130.375  0.00  0.00    +0.000 C 
ATOM      7  C   UNL     1     -12.415   7.161 131.342  0.00  0.00    +0.000 C 
ATOM      8  C   UNL     1     -11.022   7.836 129.391  0.00  0.00    +0.000 C 
ATOM      9  C   UNL     1     -10.051   6.231 131.020  0.00  0.00    +0.000 C 
ATOM     10  O   UNL     1      -9.323   6.885 131.749  0.00  0.00    +0.000 OA
ENDROOT
TORSDOF 0
ENDMDL
MODEL 8
REMARK VINA RESULT:      -4.3      2.374      4.348
REMARK  Name = Trimethadione
REMARK  3 active torsions:
REMARK  status: ('A' for Active; 'I' for Inactive)
REMARK    1  A    between atoms: C_1  and  N_2
REMARK    2  A    between atoms: C_6  and  C_7
REMARK    3  A    between atoms: C_6  and  C_8
REMARK                            x       y       z     vdW  Elec       q    Type
REMARK                         _______ _______ _______ _____ _____    ______ ____
ROOT
ATOM      1  C   UNL     1     -12.021   6.865 131.388  0.00  0.00    +0.000 C 
ATOM      2  N   UNL     1     -10.643   6.757 130.966  0.00  0.00    +0.000 N 
ATOM      3  C   UNL     1     -10.148   7.183 129.792  0.00  0.00    +0.000 C 
ATOM      4  O   UNL     1     -10.631   8.024 129.047  0.00  0.00    +0.000 OA
ATOM      5  O   UNL     1      -8.958   6.556 129.548  0.00  0.00    +0.000 OA
ATOM      6  C   UNL     1      -8.432   6.115 130.808  0.00  0.00    +0.000 C 
ATOM      7  C   UNL     1      -7.205   6.958 131.093  0.00  0.00    +0.000 C 
ATOM      8  C   UNL     1      -8.061   4.635 130.818  0.00  0.00    +0.000 C 
ATOM      9  C   UNL     1      -9.607   6.349 131.738  0.00  0.00    +0.000 C 
ATOM     10  O   UNL     1      -9.608   6.192 132.949  0.00  0.00    +0.000 OA
ENDROOT
TORSDOF 0
ENDMDL
MODEL 9
REMARK VINA RESULT:      -4.2      2.702      3.355
REMARK  Name = Trimethadione
REMARK  3 active torsions:
REMARK  status: ('A' for Active; 'I' for Inactive)
REMARK    1  A    between atoms: C_1  and  N_2
REMARK    2  A    between atoms: C_6  and  C_7
REMARK    3  A    between atoms: C_6  and  C_8
REMARK                            x       y       z     vdW  Elec       q    Type
REMARK                         _______ _______ _______ _____ _____    ______ ____
ROOT
ATOM      1  C   UNL     1      -7.225   6.844 131.169  0.00  0.00    +0.000 C 
ATOM      2  N   UNL     1      -8.616   6.546 131.423  0.00  0.00    +0.000 N 
ATOM      3  C   UNL     1      -9.121   6.090 132.581  0.00  0.00    +0.000 C 
ATOM      4  O   UNL     1      -8.620   6.181 133.693  0.00  0.00    +0.000 OA
ATOM      5  O   UNL     1     -10.342   5.523 132.351  0.00  0.00    +0.000 OA
ATOM      6  C   UNL     1     -10.856   6.076 131.131  0.00  0.00    +0.000 C 
ATOM      7  C   UNL     1     -12.038   6.949 131.506  0.00  0.00    +0.000 C 
ATOM      8  C   UNL     1     -11.292   5.013 130.127  0.00  0.00    +0.000 C 
ATOM      9  C   UNL     1      -9.650   6.820 130.591  0.00  0.00    +0.000 C 
ATOM     10  O   UNL     1      -9.626   7.523 129.593  0.00  0.00    +0.000 OA
ENDROOT
TORSDOF 0
ENDMDL
