MODEL 1
REMARK VINA RESULT:      -7.1      0.000      0.000
REMARK  Name = Trimipramine
REMARK  7 active torsions:
REMARK  status: ('A' for Active; 'I' for Inactive)
REMARK    1  A    between atoms: C_1  and  C_2
REMARK    2  A    between atoms: C_2  and  C_3
REMARK    3  A    between atoms: C_2  and  C_7
REMARK    4  A    between atoms: C_3  and  N_4
REMARK    5  A    between atoms: N_4  and  C_5
REMARK    6  A    between atoms: N_4  and  C_6
REMARK    7  A    between atoms: C_7  and  N_8
REMARK                            x       y       z     vdW  Elec       q    Type
REMARK                         _______ _______ _______ _____ _____    ______ ____
ROOT
ATOM      1  N   UNL     1      -7.193  -1.026 127.005  0.00  0.00    +0.000 N 
ATOM      2  C   UNL     1      -7.368  -1.555 128.293  0.00  0.00    +0.000 A 
ATOM      3  C   UNL     1      -6.710  -0.932 129.373  0.00  0.00    +0.000 A 
ATOM      4  C   UNL     1      -6.717  -1.478 130.653  0.00  0.00    +0.000 A 
ATOM      5  C   UNL     1      -7.395  -2.666 130.889  0.00  0.00    +0.000 A 
ATOM      6  C   UNL     1      -8.057  -3.300 129.844  0.00  0.00    +0.000 A 
ATOM      7  C   UNL     1      -8.050  -2.773 128.539  0.00  0.00    +0.000 A 
ATOM      8  C   UNL     1      -8.798  -3.612 127.516  0.00  0.00    +0.000 C 
ATOM      9  C   UNL     1      -8.981  -3.039 126.127  0.00  0.00    +0.000 C 
ATOM     10  C   UNL     1      -7.654  -2.819 125.436  0.00  0.00    +0.000 A 
ATOM     11  C   UNL     1      -7.258  -3.598 124.348  0.00  0.00    +0.000 A 
ATOM     12  C   UNL     1      -5.993  -3.431 123.782  0.00  0.00    +0.000 A 
ATOM     13  C   UNL     1      -5.122  -2.464 124.289  0.00  0.00    +0.000 A 
ATOM     14  C   UNL     1      -5.532  -1.645 125.333  0.00  0.00    +0.000 A 
ATOM     15  C   UNL     1      -6.799  -1.807 125.914  0.00  0.00    +0.000 A 
ENDROOT
BRANCH   1  16
ATOM     16  C   UNL     1      -7.479   0.398 126.743  0.00  0.00    +0.000 C 
BRANCH  16  18
ATOM     17  C   UNL     1      -9.746   0.552 125.756  0.00  0.00    +0.000 C 
ATOM     18  C   UNL     1      -8.253   0.646 125.416  0.00  0.00    +0.000 C 
BRANCH  18  19
ATOM     19  C   UNL     1      -7.921   2.029 124.788  0.00  0.00    +0.000 C 
BRANCH  19  20
ATOM     20  N   UNL     1      -7.719   2.060 123.322  0.00  0.00    +0.000 NA
ATOM     21  C   UNL     1      -8.935   2.459 122.626  0.00  0.00    +0.000 C 
ATOM     22  C   UNL     1      -6.657   3.020 122.987  0.00  0.00    +0.000 C 
ENDBRANCH  19  20
ENDBRANCH  18  19
ENDBRANCH  16  18
ENDBRANCH   1  16
TORSDOF 4
ENDMDL
MODEL 2
REMARK VINA RESULT:      -6.9      1.745      2.456
REMARK  Name = Trimipramine
REMARK  7 active torsions:
REMARK  status: ('A' for Active; 'I' for Inactive)
REMARK    1  A    between atoms: C_1  and  C_2
REMARK    2  A    between atoms: C_2  and  C_3
REMARK    3  A    between atoms: C_2  and  C_7
REMARK    4  A    between atoms: C_3  and  N_4
REMARK    5  A    between atoms: N_4  and  C_5
REMARK    6  A    between atoms: N_4  and  C_6
REMARK    7  A    between atoms: C_7  and  N_8
REMARK                            x       y       z     vdW  Elec       q    Type
REMARK                         _______ _______ _______ _____ _____    ______ ____
ROOT
ATOM      1  N   UNL     1      -6.256  -1.651 127.682  0.00  0.00    +0.000 N 
ATOM      2  C   UNL     1      -5.751  -2.358 128.786  0.00  0.00    +0.000 A 
ATOM      3  C   UNL     1      -4.441  -2.079 129.222  0.00  0.00    +0.000 A 
ATOM      4  C   UNL     1      -3.819  -2.833 130.214  0.00  0.00    +0.000 A 
ATOM      5  C   UNL     1      -4.502  -3.889 130.802  0.00  0.00    +0.000 A 
ATOM      6  C   UNL     1      -5.797  -4.184 130.394  0.00  0.00    +0.000 A 
ATOM      7  C   UNL     1      -6.439  -3.444 129.384  0.00  0.00    +0.000 A 
ATOM      8  C   UNL     1      -7.840  -3.923 129.044  0.00  0.00    +0.000 C 
ATOM      9  C   UNL     1      -8.664  -3.086 128.089  0.00  0.00    +0.000 C 
ATOM     10  C   UNL     1      -8.022  -3.009 126.721  0.00  0.00    +0.000 A 
ATOM     11  C   UNL     1      -8.585  -3.642 125.613  0.00  0.00    +0.000 A 
ATOM     12  C   UNL     1      -7.930  -3.627 124.380  0.00  0.00    +0.000 A 
ATOM     13  C   UNL     1      -6.713  -2.956 124.244  0.00  0.00    +0.000 A 
ATOM     14  C   UNL     1      -6.176  -2.272 125.328  0.00  0.00    +0.000 A 
ATOM     15  C   UNL     1      -6.823  -2.286 126.573  0.00  0.00    +0.000 A 
ENDROOT
BRANCH   1  16
ATOM     16  C   UNL     1      -6.253  -0.175 127.683  0.00  0.00    +0.000 C 
BRANCH  16  18
ATOM     17  C   UNL     1      -7.809   0.615 129.442  0.00  0.00    +0.000 C 
ATOM     18  C   UNL     1      -7.656   0.452 127.924  0.00  0.00    +0.000 C 
BRANCH  18  19
ATOM     19  C   UNL     1      -7.821   1.823 127.209  0.00  0.00    +0.000 C 
BRANCH  19  20
ATOM     20  N   UNL     1      -8.917   1.925 126.218  0.00  0.00    +0.000 NA
ATOM     21  C   UNL     1      -8.485   2.630 125.019  0.00  0.00    +0.000 C 
ATOM     22  C   UNL     1      -9.364   0.579 125.830  0.00  0.00    +0.000 C 
ENDBRANCH  19  20
ENDBRANCH  18  19
ENDBRANCH  16  18
ENDBRANCH   1  16
TORSDOF 4
ENDMDL
MODEL 3
REMARK VINA RESULT:      -6.8      3.560      5.794
REMARK  Name = Trimipramine
REMARK  7 active torsions:
REMARK  status: ('A' for Active; 'I' for Inactive)
REMARK    1  A    between atoms: C_1  and  C_2
REMARK    2  A    between atoms: C_2  and  C_3
REMARK    3  A    between atoms: C_2  and  C_7
REMARK    4  A    between atoms: C_3  and  N_4
REMARK    5  A    between atoms: N_4  and  C_5
REMARK    6  A    between atoms: N_4  and  C_6
REMARK    7  A    between atoms: C_7  and  N_8
REMARK                            x       y       z     vdW  Elec       q    Type
REMARK                         _______ _______ _______ _____ _____    ______ ____
ROOT
ATOM      1  N   UNL     1      -6.915   1.375 123.786  0.00  0.00    +0.000 N 
ATOM      2  C   UNL     1      -7.319   0.030 123.769  0.00  0.00    +0.000 A 
ATOM      3  C   UNL     1      -6.364  -0.964 124.059  0.00  0.00    +0.000 A 
ATOM      4  C   UNL     1      -6.649  -2.320 123.924  0.00  0.00    +0.000 A 
ATOM      5  C   UNL     1      -7.909  -2.718 123.498  0.00  0.00    +0.000 A 
ATOM      6  C   UNL     1      -8.872  -1.758 123.210  0.00  0.00    +0.000 A 
ATOM      7  C   UNL     1      -8.601  -0.383 123.326  0.00  0.00    +0.000 A 
ATOM      8  C   UNL     1      -9.758   0.523 122.940  0.00  0.00    +0.000 C 
ATOM      9  C   UNL     1      -9.610   2.009 123.191  0.00  0.00    +0.000 C 
ATOM     10  C   UNL     1      -8.474   2.599 122.386  0.00  0.00    +0.000 A 
ATOM     11  C   UNL     1      -8.707   3.471 121.323  0.00  0.00    +0.000 A 
ATOM     12  C   UNL     1      -7.646   3.934 120.542  0.00  0.00    +0.000 A 
ATOM     13  C   UNL     1      -6.338   3.545 120.838  0.00  0.00    +0.000 A 
ATOM     14  C   UNL     1      -6.093   2.726 121.933  0.00  0.00    +0.000 A 
ATOM     15  C   UNL     1      -7.151   2.248 122.720  0.00  0.00    +0.000 A 
ENDROOT
BRANCH   1  16
ATOM     16  C   UNL     1      -6.258   1.936 124.983  0.00  0.00    +0.000 C 
BRANCH  16  18
ATOM     17  C   UNL     1      -7.887   3.088 126.452  0.00  0.00    +0.000 C 
ATOM     18  C   UNL     1      -6.802   3.334 125.395  0.00  0.00    +0.000 C 
BRANCH  18  19
ATOM     19  C   UNL     1      -5.687   4.258 125.963  0.00  0.00    +0.000 C 
BRANCH  19  20
ATOM     20  N   UNL     1      -4.687   3.621 126.850  0.00  0.00    +0.000 NA
ATOM     21  C   UNL     1      -3.334   3.805 126.343  0.00  0.00    +0.000 C 
ATOM     22  C   UNL     1      -4.765   4.215 128.193  0.00  0.00    +0.000 C 
ENDBRANCH  19  20
ENDBRANCH  18  19
ENDBRANCH  16  18
ENDBRANCH   1  16
TORSDOF 4
ENDMDL
MODEL 4
REMARK VINA RESULT:      -6.7      2.760      3.588
REMARK  Name = Trimipramine
REMARK  7 active torsions:
REMARK  status: ('A' for Active; 'I' for Inactive)
REMARK    1  A    between atoms: C_1  and  C_2
REMARK    2  A    between atoms: C_2  and  C_3
REMARK    3  A    between atoms: C_2  and  C_7
REMARK    4  A    between atoms: C_3  and  N_4
REMARK    5  A    between atoms: N_4  and  C_5
REMARK    6  A    between atoms: N_4  and  C_6
REMARK    7  A    between atoms: C_7  and  N_8
REMARK                            x       y       z     vdW  Elec       q    Type
REMARK                         _______ _______ _______ _____ _____    ______ ____
ROOT
ATOM      1  N   UNL     1      -5.742  -1.821 127.506  0.00  0.00    +0.000 N 
ATOM      2  C   UNL     1      -5.485  -2.560 128.673  0.00  0.00    +0.000 A 
ATOM      3  C   UNL     1      -4.164  -2.608 129.162  0.00  0.00    +0.000 A 
ATOM      4  C   UNL     1      -3.802  -3.431 130.225  0.00  0.00    +0.000 A 
ATOM      5  C   UNL     1      -4.763  -4.226 130.835  0.00  0.00    +0.000 A 
ATOM      6  C   UNL     1      -6.074  -4.194 130.376  0.00  0.00    +0.000 A 
ATOM      7  C   UNL     1      -6.458  -3.381 129.294  0.00  0.00    +0.000 A 
ATOM      8  C   UNL     1      -7.923  -3.495 128.907  0.00  0.00    +0.000 C 
ATOM      9  C   UNL     1      -8.458  -2.538 127.864  0.00  0.00    +0.000 C 
ATOM     10  C   UNL     1      -7.771  -2.726 126.530  0.00  0.00    +0.000 A 
ATOM     11  C   UNL     1      -8.442  -3.262 125.431  0.00  0.00    +0.000 A 
ATOM     12  C   UNL     1      -7.762  -3.504 124.236  0.00  0.00    +0.000 A 
ATOM     13  C   UNL     1      -6.406  -3.189 124.127  0.00  0.00    +0.000 A 
ATOM     14  C   UNL     1      -5.745  -2.600 125.198  0.00  0.00    +0.000 A 
ATOM     15  C   UNL     1      -6.417  -2.357 126.406  0.00  0.00    +0.000 A 
ENDROOT
BRANCH   1  16
ATOM     16  C   UNL     1      -5.344  -0.401 127.425  0.00  0.00    +0.000 C 
BRANCH  16  18
ATOM     17  C   UNL     1      -4.674   1.358 129.035  0.00  0.00    +0.000 C 
ATOM     18  C   UNL     1      -5.846   0.457 128.622  0.00  0.00    +0.000 C 
BRANCH  18  19
ATOM     19  C   UNL     1      -7.090   1.312 128.255  0.00  0.00    +0.000 C 
BRANCH  19  20
ATOM     20  N   UNL     1      -8.299   1.114 129.088  0.00  0.00    +0.000 NA
ATOM     21  C   UNL     1      -8.013   0.281 130.248  0.00  0.00    +0.000 C 
ATOM     22  C   UNL     1      -8.794   2.415 129.561  0.00  0.00    +0.000 C 
ENDBRANCH  19  20
ENDBRANCH  18  19
ENDBRANCH  16  18
ENDBRANCH   1  16
TORSDOF 4
ENDMDL
MODEL 5
REMARK VINA RESULT:      -6.5      7.119      8.885
REMARK  Name = Trimipramine
REMARK  7 active torsions:
REMARK  status: ('A' for Active; 'I' for Inactive)
REMARK    1  A    between atoms: C_1  and  C_2
REMARK    2  A    between atoms: C_2  and  C_3
REMARK    3  A    between atoms: C_2  and  C_7
REMARK    4  A    between atoms: C_3  and  N_4
REMARK    5  A    between atoms: N_4  and  C_5
REMARK    6  A    between atoms: N_4  and  C_6
REMARK    7  A    between atoms: C_7  and  N_8
REMARK                            x       y       z     vdW  Elec       q    Type
REMARK                         _______ _______ _______ _____ _____    ______ ____
ROOT
ATOM      1  N   UNL     1      -8.105   5.171 131.598  0.00  0.00    +0.000 N 
ATOM      2  C   UNL     1      -7.006   5.563 132.380  0.00  0.00    +0.000 A 
ATOM      3  C   UNL     1      -6.004   6.354 131.784  0.00  0.00    +0.000 A 
ATOM      4  C   UNL     1      -4.819   6.662 132.447  0.00  0.00    +0.000 A 
ATOM      5  C   UNL     1      -4.610   6.189 133.735  0.00  0.00    +0.000 A 
ATOM      6  C   UNL     1      -5.584   5.410 134.348  0.00  0.00    +0.000 A 
ATOM      7  C   UNL     1      -6.782   5.075 133.691  0.00  0.00    +0.000 A 
ATOM      8  C   UNL     1      -7.718   4.192 134.499  0.00  0.00    +0.000 C 
ATOM      9  C   UNL     1      -9.097   3.919 133.937  0.00  0.00    +0.000 C 
ATOM     10  C   UNL     1      -9.025   3.173 132.623  0.00  0.00    +0.000 A 
ATOM     11  C   UNL     1      -9.437   1.845 132.513  0.00  0.00    +0.000 A 
ATOM     12  C   UNL     1      -9.281   1.153 131.310  0.00  0.00    +0.000 A 
ATOM     13  C   UNL     1      -8.731   1.797 130.200  0.00  0.00    +0.000 A 
ATOM     14  C   UNL     1      -8.373   3.137 130.285  0.00  0.00    +0.000 A 
ATOM     15  C   UNL     1      -8.520   3.840 131.490  0.00  0.00    +0.000 A 
ENDROOT
BRANCH   1  16
ATOM     16  C   UNL     1      -8.911   6.186 130.891  0.00  0.00    +0.000 C 
BRANCH  16  18
ATOM     17  C   UNL     1     -11.038   6.429 132.137  0.00  0.00    +0.000 C 
ATOM     18  C   UNL     1     -10.431   5.858 130.849  0.00  0.00    +0.000 C 
BRANCH  18  19
ATOM     19  C   UNL     1     -11.132   6.464 129.600  0.00  0.00    +0.000 C 
BRANCH  19  20
ATOM     20  N   UNL     1     -11.131   7.940 129.491  0.00  0.00    +0.000 NA
ATOM     21  C   UNL     1     -10.463   8.382 128.274  0.00  0.00    +0.000 C 
ATOM     22  C   UNL     1     -12.514   8.438 129.468  0.00  0.00    +0.000 C 
ENDBRANCH  19  20
ENDBRANCH  18  19
ENDBRANCH  16  18
ENDBRANCH   1  16
TORSDOF 4
ENDMDL
MODEL 6
REMARK VINA RESULT:      -6.5      2.034      6.139
REMARK  Name = Trimipramine
REMARK  7 active torsions:
REMARK  status: ('A' for Active; 'I' for Inactive)
REMARK    1  A    between atoms: C_1  and  C_2
REMARK    2  A    between atoms: C_2  and  C_3
REMARK    3  A    between atoms: C_2  and  C_7
REMARK    4  A    between atoms: C_3  and  N_4
REMARK    5  A    between atoms: N_4  and  C_5
REMARK    6  A    between atoms: N_4  and  C_6
REMARK    7  A    between atoms: C_7  and  N_8
REMARK                            x       y       z     vdW  Elec       q    Type
REMARK                         _______ _______ _______ _____ _____    ______ ____
ROOT
ATOM      1  N   UNL     1      -6.749  -1.547 126.581  0.00  0.00    +0.000 N 
ATOM      2  C   UNL     1      -6.593  -1.866 125.222  0.00  0.00    +0.000 A 
ATOM      3  C   UNL     1      -5.425  -2.546 124.820  0.00  0.00    +0.000 A 
ATOM      4  C   UNL     1      -5.129  -2.770 123.479  0.00  0.00    +0.000 A 
ATOM      5  C   UNL     1      -6.005  -2.322 122.499  0.00  0.00    +0.000 A 
ATOM      6  C   UNL     1      -7.165  -1.653 122.867  0.00  0.00    +0.000 A 
ATOM      7  C   UNL     1      -7.476  -1.403 124.216  0.00  0.00    +0.000 A 
ATOM      8  C   UNL     1      -8.768  -0.633 124.434  0.00  0.00    +0.000 C 
ATOM      9  C   UNL     1      -9.263  -0.464 125.854  0.00  0.00    +0.000 C 
ATOM     10  C   UNL     1      -8.286   0.328 126.694  0.00  0.00    +0.000 A 
ATOM     11  C   UNL     1      -8.580   1.617 127.137  0.00  0.00    +0.000 A 
ATOM     12  C   UNL     1      -7.627   2.359 127.839  0.00  0.00    +0.000 A 
ATOM     13  C   UNL     1      -6.378   1.802 128.122  0.00  0.00    +0.000 A 
ATOM     14  C   UNL     1      -6.100   0.497 127.735  0.00  0.00    +0.000 A 
ATOM     15  C   UNL     1      -7.047  -0.255 127.025  0.00  0.00    +0.000 A 
ENDROOT
BRANCH   1  16
ATOM     16  C   UNL     1      -6.656  -2.606 127.606  0.00  0.00    +0.000 C 
BRANCH  16  18
ATOM     17  C   UNL     1      -8.839  -3.773 127.695  0.00  0.00    +0.000 C 
ATOM     18  C   UNL     1      -7.953  -2.773 128.450  0.00  0.00    +0.000 C 
BRANCH  18  19
ATOM     19  C   UNL     1      -7.659  -3.282 129.889  0.00  0.00    +0.000 C 
BRANCH  19  20
ATOM     20  N   UNL     1      -6.246  -3.245 130.329  0.00  0.00    +0.000 NA
ATOM     21  C   UNL     1      -6.084  -2.431 131.527  0.00  0.00    +0.000 C 
ATOM     22  C   UNL     1      -5.783  -4.608 130.628  0.00  0.00    +0.000 C 
ENDBRANCH  19  20
ENDBRANCH  18  19
ENDBRANCH  16  18
ENDBRANCH   1  16
TORSDOF 4
ENDMDL
MODEL 7
REMARK VINA RESULT:      -6.3      2.405      5.821
REMARK  Name = Trimipramine
REMARK  7 active torsions:
REMARK  status: ('A' for Active; 'I' for Inactive)
REMARK    1  A    between atoms: C_1  and  C_2
REMARK    2  A    between atoms: C_2  and  C_3
REMARK    3  A    between atoms: C_2  and  C_7
REMARK    4  A    between atoms: C_3  and  N_4
REMARK    5  A    between atoms: N_4  and  C_5
REMARK    6  A    between atoms: N_4  and  C_6
REMARK    7  A    between atoms: C_7  and  N_8
REMARK                            x       y       z     vdW  Elec       q    Type
REMARK                         _______ _______ _______ _____ _____    ______ ____
ROOT
ATOM      1  N   UNL     1      -6.524   0.600 125.197  0.00  0.00    +0.000 N 
ATOM      2  C   UNL     1      -5.659   1.619 125.627  0.00  0.00    +0.000 A 
ATOM      3  C   UNL     1      -4.967   1.446 126.842  0.00  0.00    +0.000 A 
ATOM      4  C   UNL     1      -4.204   2.465 127.406  0.00  0.00    +0.000 A 
ATOM      5  C   UNL     1      -4.108   3.689 126.758  0.00  0.00    +0.000 A 
ATOM      6  C   UNL     1      -4.776   3.885 125.555  0.00  0.00    +0.000 A 
ATOM      7  C   UNL     1      -5.564   2.874 124.976  0.00  0.00    +0.000 A 
ATOM      8  C   UNL     1      -6.246   3.272 123.678  0.00  0.00    +0.000 C 
ATOM      9  C   UNL     1      -6.978   2.197 122.902  0.00  0.00    +0.000 C 
ATOM     10  C   UNL     1      -8.132   1.625 123.696  0.00  0.00    +0.000 A 
ATOM     11  C   UNL     1      -9.457   1.865 123.334  0.00  0.00    +0.000 A 
ATOM     12  C   UNL     1     -10.504   1.397 124.131  0.00  0.00    +0.000 A 
ATOM     13  C   UNL     1     -10.228   0.664 125.287  0.00  0.00    +0.000 A 
ATOM     14  C   UNL     1      -8.912   0.371 125.622  0.00  0.00    +0.000 A 
ATOM     15  C   UNL     1      -7.852   0.841 124.831  0.00  0.00    +0.000 A 
ENDROOT
BRANCH   1  16
ATOM     16  C   UNL     1      -6.030  -0.785 125.062  0.00  0.00    +0.000 C 
BRANCH  16  18
ATOM     17  C   UNL     1      -6.252  -1.555 122.718  0.00  0.00    +0.000 C 
ATOM     18  C   UNL     1      -6.890  -1.665 124.109  0.00  0.00    +0.000 C 
BRANCH  18  19
ATOM     19  C   UNL     1      -6.949  -3.149 124.568  0.00  0.00    +0.000 C 
BRANCH  19  20
ATOM     20  N   UNL     1      -8.289  -3.690 124.890  0.00  0.00    +0.000 NA
ATOM     21  C   UNL     1      -8.716  -3.288 126.224  0.00  0.00    +0.000 C 
ATOM     22  C   UNL     1      -9.273  -3.192 123.918  0.00  0.00    +0.000 C 
ENDBRANCH  19  20
ENDBRANCH  18  19
ENDBRANCH  16  18
ENDBRANCH   1  16
TORSDOF 4
ENDMDL
MODEL 8
REMARK VINA RESULT:      -6.3      1.754      2.137
REMARK  Name = Trimipramine
REMARK  7 active torsions:
REMARK  status: ('A' for Active; 'I' for Inactive)
REMARK    1  A    between atoms: C_1  and  C_2
REMARK    2  A    between atoms: C_2  and  C_3
REMARK    3  A    between atoms: C_2  and  C_7
REMARK    4  A    between atoms: C_3  and  N_4
REMARK    5  A    between atoms: N_4  and  C_5
REMARK    6  A    between atoms: N_4  and  C_6
REMARK    7  A    between atoms: C_7  and  N_8
REMARK                            x       y       z     vdW  Elec       q    Type
REMARK                         _______ _______ _______ _____ _____    ______ ____
ROOT
ATOM      1  N   UNL     1      -7.259  -1.019 126.834  0.00  0.00    +0.000 N 
ATOM      2  C   UNL     1      -7.416  -1.467 128.155  0.00  0.00    +0.000 A 
ATOM      3  C   UNL     1      -6.780  -0.752 129.189  0.00  0.00    +0.000 A 
ATOM      4  C   UNL     1      -6.768  -1.211 130.503  0.00  0.00    +0.000 A 
ATOM      5  C   UNL     1      -7.405  -2.404 130.819  0.00  0.00    +0.000 A 
ATOM      6  C   UNL     1      -8.044  -3.128 129.820  0.00  0.00    +0.000 A 
ATOM      7  C   UNL     1      -8.055  -2.689 128.483  0.00  0.00    +0.000 A 
ATOM      8  C   UNL     1      -8.774  -3.619 127.520  0.00  0.00    +0.000 C 
ATOM      9  C   UNL     1      -8.977  -3.147 126.096  0.00  0.00    +0.000 C 
ATOM     10  C   UNL     1      -7.658  -2.927 125.388  0.00  0.00    +0.000 A 
ATOM     11  C   UNL     1      -7.236  -3.762 124.354  0.00  0.00    +0.000 A 
ATOM     12  C   UNL     1      -5.978  -3.590 123.775  0.00  0.00    +0.000 A 
ATOM     13  C   UNL     1      -5.141  -2.562 124.214  0.00  0.00    +0.000 A 
ATOM     14  C   UNL     1      -5.579  -1.690 125.203  0.00  0.00    +0.000 A 
ATOM     15  C   UNL     1      -6.839  -1.857 125.796  0.00  0.00    +0.000 A 
ENDROOT
BRANCH   1  16
ATOM     16  C   UNL     1      -7.595   0.374 126.479  0.00  0.00    +0.000 C 
BRANCH  16  18
ATOM     17  C   UNL     1      -6.944   1.808 124.566  0.00  0.00    +0.000 C 
ATOM     18  C   UNL     1      -6.409   1.162 125.852  0.00  0.00    +0.000 C 
BRANCH  18  19
ATOM     19  C   UNL     1      -5.846   2.246 126.813  0.00  0.00    +0.000 C 
BRANCH  19  20
ATOM     20  N   UNL     1      -4.871   3.200 126.237  0.00  0.00    +0.000 NA
ATOM     21  C   UNL     1      -5.117   4.557 126.705  0.00  0.00    +0.000 C 
ATOM     22  C   UNL     1      -3.507   2.814 126.629  0.00  0.00    +0.000 C 
ENDBRANCH  19  20
ENDBRANCH  18  19
ENDBRANCH  16  18
ENDBRANCH   1  16
TORSDOF 4
ENDMDL
MODEL 9
REMARK VINA RESULT:      -6.3      3.096      6.240
REMARK  Name = Trimipramine
REMARK  7 active torsions:
REMARK  status: ('A' for Active; 'I' for Inactive)
REMARK    1  A    between atoms: C_1  and  C_2
REMARK    2  A    between atoms: C_2  and  C_3
REMARK    3  A    between atoms: C_2  and  C_7
REMARK    4  A    between atoms: C_3  and  N_4
REMARK    5  A    between atoms: N_4  and  C_5
REMARK    6  A    between atoms: N_4  and  C_6
REMARK    7  A    between atoms: C_7  and  N_8
REMARK                            x       y       z     vdW  Elec       q    Type
REMARK                         _______ _______ _______ _____ _____    ______ ____
ROOT
ATOM      1  N   UNL     1      -7.385  -1.069 130.148  0.00  0.00    +0.000 N 
ATOM      2  C   UNL     1      -8.010   0.149 130.458  0.00  0.00    +0.000 A 
ATOM      3  C   UNL     1      -8.501   0.340 131.766  0.00  0.00    +0.000 A 
ATOM      4  C   UNL     1      -9.256   1.457 132.113  0.00  0.00    +0.000 A 
ATOM      5  C   UNL     1      -9.535   2.422 131.154  0.00  0.00    +0.000 A 
ATOM      6  C   UNL     1      -9.059   2.261 129.858  0.00  0.00    +0.000 A 
ATOM      7  C   UNL     1      -8.307   1.133 129.483  0.00  0.00    +0.000 A 
ATOM      8  C   UNL     1      -7.896   1.107 128.020  0.00  0.00    +0.000 C 
ATOM      9  C   UNL     1      -6.948   0.017 127.569  0.00  0.00    +0.000 C 
ATOM     10  C   UNL     1      -7.555  -1.357 127.744  0.00  0.00    +0.000 A 
ATOM     11  C   UNL     1      -7.926  -2.138 126.649  0.00  0.00    +0.000 A 
ATOM     12  C   UNL     1      -8.563  -3.366 126.839  0.00  0.00    +0.000 A 
ATOM     13  C   UNL     1      -8.811  -3.832 128.132  0.00  0.00    +0.000 A 
ATOM     14  C   UNL     1      -8.390  -3.088 129.227  0.00  0.00    +0.000 A 
ATOM     15  C   UNL     1      -7.756  -1.850 129.048  0.00  0.00    +0.000 A 
ENDROOT
BRANCH   1  16
ATOM     16  C   UNL     1      -6.251  -1.550 130.962  0.00  0.00    +0.000 C 
BRANCH  16  18
ATOM     17  C   UNL     1      -4.043  -0.594 130.372  0.00  0.00    +0.000 C 
ATOM     18  C   UNL     1      -4.956  -1.805 130.139  0.00  0.00    +0.000 C 
BRANCH  18  19
ATOM     19  C   UNL     1      -4.238  -3.118 130.560  0.00  0.00    +0.000 C 
BRANCH  19  20
ATOM     20  N   UNL     1      -4.938  -3.967 131.552  0.00  0.00    +0.000 NA
ATOM     21  C   UNL     1      -5.502  -5.157 130.929  0.00  0.00    +0.000 C 
ATOM     22  C   UNL     1      -3.994  -4.392 132.596  0.00  0.00    +0.000 C 
ENDBRANCH  19  20
ENDBRANCH  18  19
ENDBRANCH  16  18
ENDBRANCH   1  16
TORSDOF 4
ENDMDL
