MODEL 1
REMARK VINA RESULT:      -6.6      0.000      0.000
REMARK  Name = Trimethobenzamide
REMARK  15 active torsions:
REMARK  status: ('A' for Active; 'I' for Inactive)
REMARK    1  A    between atoms: C_1  and  O_2
REMARK    2  A    between atoms: O_2  and  C_3
REMARK    3  A    between atoms: C_5  and  C_13
REMARK    4  A    between atoms: C_7  and  O_8
REMARK    5  A    between atoms: O_8  and  C_9
REMARK    6  A    between atoms: C_10  and  O_11
REMARK    7  A    between atoms: O_11  and  C_12
REMARK    8  A    between atoms: N_15  and  C_16
REMARK    9  A    between atoms: C_16  and  C_17
REMARK   10  A    between atoms: C_20  and  O_21
REMARK   11  A    between atoms: O_21  and  C_22
REMARK   12  A    between atoms: C_22  and  C_23
REMARK   13  A    between atoms: C_23  and  N_24
REMARK   14  A    between atoms: N_24  and  C_25
REMARK   15  A    between atoms: N_24  and  C_26
REMARK                            x       y       z     vdW  Elec       q    Type
REMARK                         _______ _______ _______ _____ _____    ______ ____
ROOT
ATOM      1  C   UNL     1      -7.444   1.651 128.492  0.00  0.00    +0.000 C 
ATOM      2  O   UNL     1      -6.372   2.207 128.352  0.00  0.00    +0.000 OA
ATOM      3  N   UNL     1      -8.285   1.940 129.562  0.00  0.00    +0.000 N 
ATOM      4  H   UNL     1      -9.130   1.418 129.725  0.00  0.00    +0.000 HD
ENDROOT
BRANCH   1   7
ATOM      5  C   UNL     1      -8.170  -1.862 127.087  0.00  0.00    +0.000 A 
ATOM      6  C   UNL     1      -7.608  -0.787 127.827  0.00  0.00    +0.000 A 
ATOM      7  C   UNL     1      -7.874   0.572 127.518  0.00  0.00    +0.000 A 
ATOM      8  C   UNL     1      -8.618   0.855 126.374  0.00  0.00    +0.000 A 
ATOM      9  C   UNL     1      -9.198  -0.181 125.630  0.00  0.00    +0.000 A 
ATOM     10  C   UNL     1      -8.998  -1.542 125.993  0.00  0.00    +0.000 A 
BRANCH   5  12
ATOM     11  C   UNL     1      -7.636  -3.196 129.076  0.00  0.00    +0.000 C 
ATOM     12  O   UNL     1      -8.063  -3.087 127.717  0.00  0.00    +0.000 OA
ENDBRANCH   5  12
BRANCH   9  13
ATOM     13  O   UNL     1     -10.001   0.284 124.599  0.00  0.00    +0.000 OA
ATOM     14  C   UNL     1      -9.860   1.647 124.188  0.00  0.00    +0.000 C 
ENDBRANCH   9  13
BRANCH  10  15
ATOM     15  O   UNL     1      -9.767  -2.368 125.242  0.00  0.00    +0.000 OA
ATOM     16  C   UNL     1      -9.260  -3.171 124.235  0.00  0.00    +0.000 C 
ENDBRANCH  10  15
ENDBRANCH   1   7
BRANCH   3  17
ATOM     17  C   UNL     1      -7.924   2.918 130.583  0.00  0.00    +0.000 C 
BRANCH  17  18
ATOM     18  C   UNL     1      -8.966   4.011 130.683  0.00  0.00    +0.000 A 
ATOM     19  C   UNL     1      -8.653   5.294 131.155  0.00  0.00    +0.000 A 
ATOM     20  C   UNL     1      -9.663   6.247 131.352  0.00  0.00    +0.000 A 
ATOM     21  C   UNL     1     -10.981   5.967 130.991  0.00  0.00    +0.000 A 
ATOM     22  C   UNL     1     -11.291   4.701 130.491  0.00  0.00    +0.000 A 
ATOM     23  C   UNL     1     -10.293   3.740 130.328  0.00  0.00    +0.000 A 
BRANCH  21  24
ATOM     24  O   UNL     1     -11.870   7.005 131.140  0.00  0.00    +0.000 OA
BRANCH  24  25
ATOM     25  C   UNL     1     -12.791   7.159 130.056  0.00  0.00    +0.000 C 
BRANCH  25  26
ATOM     26  C   UNL     1     -12.641   8.541 129.404  0.00  0.00    +0.000 C 
BRANCH  26  27
ATOM     27  N   UNL     1     -12.036   8.472 128.055  0.00  0.00    +0.000 NA
ATOM     28  C   UNL     1     -10.572   8.480 128.119  0.00  0.00    +0.000 C 
ATOM     29  C   UNL     1     -12.481   7.256 127.370  0.00  0.00    +0.000 C 
ENDBRANCH  26  27
ENDBRANCH  25  26
ENDBRANCH  24  25
ENDBRANCH  21  24
ENDBRANCH  17  18
ENDBRANCH   3  17
TORSDOF 10
ENDMDL
MODEL 2
REMARK VINA RESULT:      -6.6      5.611      9.156
REMARK  Name = Trimethobenzamide
REMARK  15 active torsions:
REMARK  status: ('A' for Active; 'I' for Inactive)
REMARK    1  A    between atoms: C_1  and  O_2
REMARK    2  A    between atoms: O_2  and  C_3
REMARK    3  A    between atoms: C_5  and  C_13
REMARK    4  A    between atoms: C_7  and  O_8
REMARK    5  A    between atoms: O_8  and  C_9
REMARK    6  A    between atoms: C_10  and  O_11
REMARK    7  A    between atoms: O_11  and  C_12
REMARK    8  A    between atoms: N_15  and  C_16
REMARK    9  A    between atoms: C_16  and  C_17
REMARK   10  A    between atoms: C_20  and  O_21
REMARK   11  A    between atoms: O_21  and  C_22
REMARK   12  A    between atoms: C_22  and  C_23
REMARK   13  A    between atoms: C_23  and  N_24
REMARK   14  A    between atoms: N_24  and  C_25
REMARK   15  A    between atoms: N_24  and  C_26
REMARK                            x       y       z     vdW  Elec       q    Type
REMARK                         _______ _______ _______ _____ _____    ______ ____
ROOT
ATOM      1  C   UNL     1      -8.894   0.102 124.911  0.00  0.00    +0.000 C 
ATOM      2  O   UNL     1      -9.967   0.404 125.398  0.00  0.00    +0.000 OA
ATOM      3  N   UNL     1      -8.395  -1.194 124.981  0.00  0.00    +0.000 N 
ATOM      4  H   UNL     1      -7.471  -1.422 124.657  0.00  0.00    +0.000 HD
ENDROOT
BRANCH   1   7
ATOM      5  C   UNL     1      -7.873   2.965 122.542  0.00  0.00    +0.000 A 
ATOM      6  C   UNL     1      -8.508   1.816 123.086  0.00  0.00    +0.000 A 
ATOM      7  C   UNL     1      -8.033   1.162 124.252  0.00  0.00    +0.000 A 
ATOM      8  C   UNL     1      -6.831   1.596 124.808  0.00  0.00    +0.000 A 
ATOM      9  C   UNL     1      -6.186   2.734 124.304  0.00  0.00    +0.000 A 
ATOM     10  C   UNL     1      -6.713   3.438 123.186  0.00  0.00    +0.000 A 
BRANCH   5  12
ATOM     11  C   UNL     1      -8.159   3.936 120.307  0.00  0.00    +0.000 C 
ATOM     12  O   UNL     1      -8.645   3.643 121.618  0.00  0.00    +0.000 OA
ENDBRANCH   5  12
BRANCH   9  13
ATOM     13  O   UNL     1      -5.072   3.093 125.050  0.00  0.00    +0.000 OA
ATOM     14  C   UNL     1      -5.275   3.774 126.292  0.00  0.00    +0.000 C 
ENDBRANCH   9  13
BRANCH  10  15
ATOM     15  O   UNL     1      -6.028   4.586 122.963  0.00  0.00    +0.000 OA
ATOM     16  C   UNL     1      -4.980   4.683 122.065  0.00  0.00    +0.000 C 
ENDBRANCH  10  15
ENDBRANCH   1   7
BRANCH   3  17
ATOM     17  C   UNL     1      -9.126  -2.265 125.653  0.00  0.00    +0.000 C 
BRANCH  17  18
ATOM     18  C   UNL     1      -8.442  -2.665 126.943  0.00  0.00    +0.000 A 
ATOM     19  C   UNL     1      -8.944  -3.685 127.763  0.00  0.00    +0.000 A 
ATOM     20  C   UNL     1      -8.358  -3.950 129.010  0.00  0.00    +0.000 A 
ATOM     21  C   UNL     1      -7.209  -3.269 129.412  0.00  0.00    +0.000 A 
ATOM     22  C   UNL     1      -6.687  -2.275 128.582  0.00  0.00    +0.000 A 
ATOM     23  C   UNL     1      -7.290  -1.986 127.357  0.00  0.00    +0.000 A 
BRANCH  21  24
ATOM     24  O   UNL     1      -6.668  -3.674 130.608  0.00  0.00    +0.000 OA
BRANCH  24  25
ATOM     25  C   UNL     1      -5.490  -4.477 130.486  0.00  0.00    +0.000 C 
BRANCH  25  26
ATOM     26  C   UNL     1      -4.361  -3.928 131.369  0.00  0.00    +0.000 C 
BRANCH  26  27
ATOM     27  N   UNL     1      -3.278  -3.296 130.582  0.00  0.00    +0.000 NA
ATOM     28  C   UNL     1      -3.275  -3.766 129.194  0.00  0.00    +0.000 C 
ATOM     29  C   UNL     1      -3.437  -1.839 130.595  0.00  0.00    +0.000 C 
ENDBRANCH  26  27
ENDBRANCH  25  26
ENDBRANCH  24  25
ENDBRANCH  21  24
ENDBRANCH  17  18
ENDBRANCH   3  17
TORSDOF 10
ENDMDL
MODEL 3
REMARK VINA RESULT:      -6.4      5.714      9.019
REMARK  Name = Trimethobenzamide
REMARK  15 active torsions:
REMARK  status: ('A' for Active; 'I' for Inactive)
REMARK    1  A    between atoms: C_1  and  O_2
REMARK    2  A    between atoms: O_2  and  C_3
REMARK    3  A    between atoms: C_5  and  C_13
REMARK    4  A    between atoms: C_7  and  O_8
REMARK    5  A    between atoms: O_8  and  C_9
REMARK    6  A    between atoms: C_10  and  O_11
REMARK    7  A    between atoms: O_11  and  C_12
REMARK    8  A    between atoms: N_15  and  C_16
REMARK    9  A    between atoms: C_16  and  C_17
REMARK   10  A    between atoms: C_20  and  O_21
REMARK   11  A    between atoms: O_21  and  C_22
REMARK   12  A    between atoms: C_22  and  C_23
REMARK   13  A    between atoms: C_23  and  N_24
REMARK   14  A    between atoms: N_24  and  C_25
REMARK   15  A    between atoms: N_24  and  C_26
REMARK                            x       y       z     vdW  Elec       q    Type
REMARK                         _______ _______ _______ _____ _____    ______ ____
ROOT
ATOM      1  C   UNL     1      -8.953   0.405 124.093  0.00  0.00    +0.000 C 
ATOM      2  O   UNL     1     -10.167   0.411 124.025  0.00  0.00    +0.000 OA
ATOM      3  N   UNL     1      -8.246  -0.718 124.509  0.00  0.00    +0.000 N 
ATOM      4  H   UNL     1      -7.251  -0.694 124.649  0.00  0.00    +0.000 HD
ENDROOT
BRANCH   1   7
ATOM      5  C   UNL     1      -6.246   3.135 124.352  0.00  0.00    +0.000 A 
ATOM      6  C   UNL     1      -7.170   2.107 124.678  0.00  0.00    +0.000 A 
ATOM      7  C   UNL     1      -8.167   1.663 123.773  0.00  0.00    +0.000 A 
ATOM      8  C   UNL     1      -8.315   2.345 122.567  0.00  0.00    +0.000 A 
ATOM      9  C   UNL     1      -7.412   3.355 122.208  0.00  0.00    +0.000 A 
ATOM     10  C   UNL     1      -6.360   3.740 123.085  0.00  0.00    +0.000 A 
BRANCH   5  12
ATOM     11  C   UNL     1      -5.222   2.661 126.531  0.00  0.00    +0.000 C 
ATOM     12  O   UNL     1      -5.167   3.208 125.212  0.00  0.00    +0.000 OA
ENDBRANCH   5  12
BRANCH   9  13
ATOM     13  O   UNL     1      -7.634   3.842 120.928  0.00  0.00    +0.000 OA
ATOM     14  C   UNL     1      -8.972   3.838 120.421  0.00  0.00    +0.000 C 
ENDBRANCH   9  13
BRANCH  10  15
ATOM     15  O   UNL     1      -5.517   4.614 122.484  0.00  0.00    +0.000 OA
ATOM     16  C   UNL     1      -4.708   4.276 121.413  0.00  0.00    +0.000 C 
ENDBRANCH  10  15
ENDBRANCH   1   7
BRANCH   3  17
ATOM     17  C   UNL     1      -8.922  -1.952 124.899  0.00  0.00    +0.000 C 
BRANCH  17  18
ATOM     18  C   UNL     1      -8.612  -2.314 126.335  0.00  0.00    +0.000 A 
ATOM     19  C   UNL     1      -7.831  -1.487 127.156  0.00  0.00    +0.000 A 
ATOM     20  C   UNL     1      -7.459  -1.907 128.442  0.00  0.00    +0.000 A 
ATOM     21  C   UNL     1      -7.938  -3.109 128.961  0.00  0.00    +0.000 A 
ATOM     22  C   UNL     1      -8.742  -3.920 128.157  0.00  0.00    +0.000 A 
ATOM     23  C   UNL     1      -9.084  -3.520 126.865  0.00  0.00    +0.000 A 
BRANCH  21  24
ATOM     24  O   UNL     1      -7.586  -3.376 130.262  0.00  0.00    +0.000 OA
BRANCH  24  25
ATOM     25  C   UNL     1      -6.313  -4.010 130.416  0.00  0.00    +0.000 C 
BRANCH  25  26
ATOM     26  C   UNL     1      -5.656  -3.601 131.742  0.00  0.00    +0.000 C 
BRANCH  26  27
ATOM     27  N   UNL     1      -5.103  -4.755 132.484  0.00  0.00    +0.000 NA
ATOM     28  C   UNL     1      -3.720  -4.513 132.905  0.00  0.00    +0.000 C 
ATOM     29  C   UNL     1      -5.924  -5.029 133.667  0.00  0.00    +0.000 C 
ENDBRANCH  26  27
ENDBRANCH  25  26
ENDBRANCH  24  25
ENDBRANCH  21  24
ENDBRANCH  17  18
ENDBRANCH   3  17
TORSDOF 10
ENDMDL
MODEL 4
REMARK VINA RESULT:      -6.4      0.672      2.564
REMARK  Name = Trimethobenzamide
REMARK  15 active torsions:
REMARK  status: ('A' for Active; 'I' for Inactive)
REMARK    1  A    between atoms: C_1  and  O_2
REMARK    2  A    between atoms: O_2  and  C_3
REMARK    3  A    between atoms: C_5  and  C_13
REMARK    4  A    between atoms: C_7  and  O_8
REMARK    5  A    between atoms: O_8  and  C_9
REMARK    6  A    between atoms: C_10  and  O_11
REMARK    7  A    between atoms: O_11  and  C_12
REMARK    8  A    between atoms: N_15  and  C_16
REMARK    9  A    between atoms: C_16  and  C_17
REMARK   10  A    between atoms: C_20  and  O_21
REMARK   11  A    between atoms: O_21  and  C_22
REMARK   12  A    between atoms: C_22  and  C_23
REMARK   13  A    between atoms: C_23  and  N_24
REMARK   14  A    between atoms: N_24  and  C_25
REMARK   15  A    between atoms: N_24  and  C_26
REMARK                            x       y       z     vdW  Elec       q    Type
REMARK                         _______ _______ _______ _____ _____    ______ ____
ROOT
ATOM      1  C   UNL     1      -7.724   2.040 128.590  0.00  0.00    +0.000 C 
ATOM      2  O   UNL     1      -6.874   2.792 128.154  0.00  0.00    +0.000 OA
ATOM      3  N   UNL     1      -8.299   2.228 129.842  0.00  0.00    +0.000 N 
ATOM      4  H   UNL     1      -8.936   1.558 130.237  0.00  0.00    +0.000 HD
ENDROOT
BRANCH   1   7
ATOM      5  C   UNL     1      -9.289  -0.053 125.759  0.00  0.00    +0.000 A 
ATOM      6  C   UNL     1      -9.026   0.988 126.689  0.00  0.00    +0.000 A 
ATOM      7  C   UNL     1      -8.145   0.823 127.788  0.00  0.00    +0.000 A 
ATOM      8  C   UNL     1      -7.616  -0.444 128.026  0.00  0.00    +0.000 A 
ATOM      9  C   UNL     1      -7.845  -1.490 127.121  0.00  0.00    +0.000 A 
ATOM     10  C   UNL     1      -8.662  -1.296 125.972  0.00  0.00    +0.000 A 
BRANCH   5  12
ATOM     11  C   UNL     1      -9.777   1.727 124.142  0.00  0.00    +0.000 C 
ATOM     12  O   UNL     1      -9.902   0.379 124.598  0.00  0.00    +0.000 OA
ENDBRANCH   5  12
BRANCH   9  13
ATOM     13  O   UNL     1      -7.148  -2.644 127.448  0.00  0.00    +0.000 OA
ATOM     14  C   UNL     1      -6.076  -2.547 128.391  0.00  0.00    +0.000 C 
ENDBRANCH   9  13
BRANCH  10  15
ATOM     15  O   UNL     1      -8.624  -2.378 125.156  0.00  0.00    +0.000 OA
ATOM     16  C   UNL     1      -7.847  -2.441 124.014  0.00  0.00    +0.000 C 
ENDBRANCH  10  15
ENDBRANCH   1   7
BRANCH   3  17
ATOM     17  C   UNL     1      -7.908   3.335 130.710  0.00  0.00    +0.000 C 
BRANCH  17  18
ATOM     18  C   UNL     1      -9.039   4.329 130.869  0.00  0.00    +0.000 A 
ATOM     19  C   UNL     1      -8.908   5.482 131.655  0.00  0.00    +0.000 A 
ATOM     20  C   UNL     1     -10.010   6.319 131.882  0.00  0.00    +0.000 A 
ATOM     21  C   UNL     1     -11.229   6.071 131.252  0.00  0.00    +0.000 A 
ATOM     22  C   UNL     1     -11.354   4.940 130.442  0.00  0.00    +0.000 A 
ATOM     23  C   UNL     1     -10.268   4.087 130.244  0.00  0.00    +0.000 A 
BRANCH  21  24
ATOM     24  O   UNL     1     -12.212   7.006 131.472  0.00  0.00    +0.000 OA
BRANCH  24  25
ATOM     25  C   UNL     1     -12.987   7.337 130.316  0.00  0.00    +0.000 C 
BRANCH  25  26
ATOM     26  C   UNL     1     -12.485   8.640 129.677  0.00  0.00    +0.000 C 
BRANCH  26  27
ATOM     27  N   UNL     1     -11.984   8.442 128.298  0.00  0.00    +0.000 NA
ATOM     28  C   UNL     1     -10.527   8.279 128.272  0.00  0.00    +0.000 C 
ATOM     29  C   UNL     1     -12.610   7.258 127.704  0.00  0.00    +0.000 C 
ENDBRANCH  26  27
ENDBRANCH  25  26
ENDBRANCH  24  25
ENDBRANCH  21  24
ENDBRANCH  17  18
ENDBRANCH   3  17
TORSDOF 10
ENDMDL
MODEL 5
REMARK VINA RESULT:      -6.3      2.598      4.156
REMARK  Name = Trimethobenzamide
REMARK  15 active torsions:
REMARK  status: ('A' for Active; 'I' for Inactive)
REMARK    1  A    between atoms: C_1  and  O_2
REMARK    2  A    between atoms: O_2  and  C_3
REMARK    3  A    between atoms: C_5  and  C_13
REMARK    4  A    between atoms: C_7  and  O_8
REMARK    5  A    between atoms: O_8  and  C_9
REMARK    6  A    between atoms: C_10  and  O_11
REMARK    7  A    between atoms: O_11  and  C_12
REMARK    8  A    between atoms: N_15  and  C_16
REMARK    9  A    between atoms: C_16  and  C_17
REMARK   10  A    between atoms: C_20  and  O_21
REMARK   11  A    between atoms: O_21  and  C_22
REMARK   12  A    between atoms: C_22  and  C_23
REMARK   13  A    between atoms: C_23  and  N_24
REMARK   14  A    between atoms: N_24  and  C_25
REMARK   15  A    between atoms: N_24  and  C_26
REMARK                            x       y       z     vdW  Elec       q    Type
REMARK                         _______ _______ _______ _____ _____    ______ ____
ROOT
ATOM      1  C   UNL     1      -7.785  -2.249 129.240  0.00  0.00    +0.000 C 
ATOM      2  O   UNL     1      -8.415  -3.217 129.618  0.00  0.00    +0.000 OA
ATOM      3  N   UNL     1      -7.361  -1.260 130.122  0.00  0.00    +0.000 N 
ATOM      4  H   UNL     1      -6.917  -0.418 129.797  0.00  0.00    +0.000 HD
ENDROOT
BRANCH   1   7
ATOM      5  C   UNL     1      -8.335  -2.174 125.428  0.00  0.00    +0.000 A 
ATOM      6  C   UNL     1      -8.432  -2.507 126.805  0.00  0.00    +0.000 A 
ATOM      7  C   UNL     1      -7.487  -2.064 127.765  0.00  0.00    +0.000 A 
ATOM      8  C   UNL     1      -6.361  -1.377 127.314  0.00  0.00    +0.000 A 
ATOM      9  C   UNL     1      -6.241  -1.020 125.964  0.00  0.00    +0.000 A 
ATOM     10  C   UNL     1      -7.236  -1.395 125.018  0.00  0.00    +0.000 A 
BRANCH   5  12
ATOM     11  C   UNL     1      -9.533  -3.366 123.649  0.00  0.00    +0.000 C 
ATOM     12  O   UNL     1      -9.493  -2.415 124.714  0.00  0.00    +0.000 OA
ENDBRANCH   5  12
BRANCH   9  13
ATOM     13  O   UNL     1      -5.122  -0.239 125.714  0.00  0.00    +0.000 OA
ATOM     14  C   UNL     1      -5.068   1.074 126.281  0.00  0.00    +0.000 C 
ENDBRANCH   9  13
BRANCH  10  15
ATOM     15  O   UNL     1      -7.006  -0.820 123.812  0.00  0.00    +0.000 OA
ATOM     16  C   UNL     1      -6.511  -1.514 122.722  0.00  0.00    +0.000 C 
ENDBRANCH  10  15
ENDBRANCH   1   7
BRANCH   3  17
ATOM     17  C   UNL     1      -7.658  -1.322 131.550  0.00  0.00    +0.000 C 
BRANCH  17  18
ATOM     18  C   UNL     1      -8.141   0.017 132.064  0.00  0.00    +0.000 A 
ATOM     19  C   UNL     1      -9.420   0.508 131.768  0.00  0.00    +0.000 A 
ATOM     20  C   UNL     1      -9.794   1.803 132.156  0.00  0.00    +0.000 A 
ATOM     21  C   UNL     1      -8.935   2.587 132.926  0.00  0.00    +0.000 A 
ATOM     22  C   UNL     1      -7.673   2.088 133.252  0.00  0.00    +0.000 A 
ATOM     23  C   UNL     1      -7.286   0.813 132.835  0.00  0.00    +0.000 A 
BRANCH  21  24
ATOM     24  O   UNL     1      -9.440   3.800 133.328  0.00  0.00    +0.000 OA
BRANCH  24  25
ATOM     25  C   UNL     1      -9.096   4.899 132.480  0.00  0.00    +0.000 C 
BRANCH  25  26
ATOM     26  C   UNL     1     -10.208   5.957 132.478  0.00  0.00    +0.000 C 
BRANCH  26  27
ATOM     27  N   UNL     1     -10.564   6.407 131.114  0.00  0.00    +0.000 NA
ATOM     28  C   UNL     1      -9.411   6.983 130.417  0.00  0.00    +0.000 C 
ATOM     29  C   UNL     1     -11.082   5.278 130.335  0.00  0.00    +0.000 C 
ENDBRANCH  26  27
ENDBRANCH  25  26
ENDBRANCH  24  25
ENDBRANCH  21  24
ENDBRANCH  17  18
ENDBRANCH   3  17
TORSDOF 10
ENDMDL
MODEL 6
REMARK VINA RESULT:      -6.2      3.853      8.757
REMARK  Name = Trimethobenzamide
REMARK  15 active torsions:
REMARK  status: ('A' for Active; 'I' for Inactive)
REMARK    1  A    between atoms: C_1  and  O_2
REMARK    2  A    between atoms: O_2  and  C_3
REMARK    3  A    between atoms: C_5  and  C_13
REMARK    4  A    between atoms: C_7  and  O_8
REMARK    5  A    between atoms: O_8  and  C_9
REMARK    6  A    between atoms: C_10  and  O_11
REMARK    7  A    between atoms: O_11  and  C_12
REMARK    8  A    between atoms: N_15  and  C_16
REMARK    9  A    between atoms: C_16  and  C_17
REMARK   10  A    between atoms: C_20  and  O_21
REMARK   11  A    between atoms: O_21  and  C_22
REMARK   12  A    between atoms: C_22  and  C_23
REMARK   13  A    between atoms: C_23  and  N_24
REMARK   14  A    between atoms: N_24  and  C_25
REMARK   15  A    between atoms: N_24  and  C_26
REMARK                            x       y       z     vdW  Elec       q    Type
REMARK                         _______ _______ _______ _____ _____    ______ ____
ROOT
ATOM      1  C   UNL     1      -5.694   0.661 128.881  0.00  0.00    +0.000 C 
ATOM      2  O   UNL     1      -6.636   0.390 129.601  0.00  0.00    +0.000 OA
ATOM      3  N   UNL     1      -5.000  -0.320 128.181  0.00  0.00    +0.000 N 
ATOM      4  H   UNL     1      -4.169  -0.106 127.657  0.00  0.00    +0.000 HD
ENDROOT
BRANCH   1   7
ATOM      5  C   UNL     1      -3.743   3.722 127.590  0.00  0.00    +0.000 A 
ATOM      6  C   UNL     1      -4.112   2.391 127.922  0.00  0.00    +0.000 A 
ATOM      7  C   UNL     1      -5.210   2.094 128.769  0.00  0.00    +0.000 A 
ATOM      8  C   UNL     1      -5.871   3.153 129.389  0.00  0.00    +0.000 A 
ATOM      9  C   UNL     1      -5.541   4.478 129.074  0.00  0.00    +0.000 A 
ATOM     10  C   UNL     1      -4.493   4.771 128.156  0.00  0.00    +0.000 A 
BRANCH   5  12
ATOM     11  C   UNL     1      -1.627   3.109 126.508  0.00  0.00    +0.000 C 
ATOM     12  O   UNL     1      -2.873   3.808 126.519  0.00  0.00    +0.000 OA
ENDBRANCH   5  12
BRANCH   9  13
ATOM     13  O   UNL     1      -6.376   5.399 129.688  0.00  0.00    +0.000 OA
ATOM     14  C   UNL     1      -7.708   4.995 130.020  0.00  0.00    +0.000 C 
ENDBRANCH   9  13
BRANCH  10  15
ATOM     15  O   UNL     1      -4.444   6.096 127.876  0.00  0.00    +0.000 OA
ATOM     16  C   UNL     1      -3.369   6.903 128.206  0.00  0.00    +0.000 C 
ENDBRANCH  10  15
ENDBRANCH   1   7
BRANCH   3  17
ATOM     17  C   UNL     1      -5.354  -1.733 128.279  0.00  0.00    +0.000 C 
BRANCH  17  18
ATOM     18  C   UNL     1      -6.148  -2.181 127.071  0.00  0.00    +0.000 A 
ATOM     19  C   UNL     1      -7.517  -2.475 127.150  0.00  0.00    +0.000 A 
ATOM     20  C   UNL     1      -8.196  -3.004 126.043  0.00  0.00    +0.000 A 
ATOM     21  C   UNL     1      -7.546  -3.156 124.818  0.00  0.00    +0.000 A 
ATOM     22  C   UNL     1      -6.190  -2.834 124.728  0.00  0.00    +0.000 A 
ATOM     23  C   UNL     1      -5.504  -2.341 125.838  0.00  0.00    +0.000 A 
BRANCH  21  24
ATOM     24  O   UNL     1      -8.331  -3.595 123.780  0.00  0.00    +0.000 OA
BRANCH  24  25
ATOM     25  C   UNL     1      -9.506  -2.810 123.550  0.00  0.00    +0.000 C 
BRANCH  25  26
ATOM     26  C   UNL     1      -9.169  -1.544 122.750  0.00  0.00    +0.000 C 
BRANCH  26  27
ATOM     27  N   UNL     1      -9.482  -0.302 123.492  0.00  0.00    +0.000 NA
ATOM     28  C   UNL     1      -8.270   0.328 124.024  0.00  0.00    +0.000 C 
ATOM     29  C   UNL     1     -10.169   0.646 122.610  0.00  0.00    +0.000 C 
ENDBRANCH  26  27
ENDBRANCH  25  26
ENDBRANCH  24  25
ENDBRANCH  21  24
ENDBRANCH  17  18
ENDBRANCH   3  17
TORSDOF 10
ENDMDL
MODEL 7
REMARK VINA RESULT:      -6.1      3.009      8.840
REMARK  Name = Trimethobenzamide
REMARK  15 active torsions:
REMARK  status: ('A' for Active; 'I' for Inactive)
REMARK    1  A    between atoms: C_1  and  O_2
REMARK    2  A    between atoms: O_2  and  C_3
REMARK    3  A    between atoms: C_5  and  C_13
REMARK    4  A    between atoms: C_7  and  O_8
REMARK    5  A    between atoms: O_8  and  C_9
REMARK    6  A    between atoms: C_10  and  O_11
REMARK    7  A    between atoms: O_11  and  C_12
REMARK    8  A    between atoms: N_15  and  C_16
REMARK    9  A    between atoms: C_16  and  C_17
REMARK   10  A    between atoms: C_20  and  O_21
REMARK   11  A    between atoms: O_21  and  C_22
REMARK   12  A    between atoms: C_22  and  C_23
REMARK   13  A    between atoms: C_23  and  N_24
REMARK   14  A    between atoms: N_24  and  C_25
REMARK   15  A    between atoms: N_24  and  C_26
REMARK                            x       y       z     vdW  Elec       q    Type
REMARK                         _______ _______ _______ _____ _____    ______ ____
ROOT
ATOM      1  C   UNL     1      -8.843   0.546 131.591  0.00  0.00    +0.000 C 
ATOM      2  O   UNL     1      -9.763  -0.202 131.861  0.00  0.00    +0.000 OA
ATOM      3  N   UNL     1      -7.606   0.067 131.174  0.00  0.00    +0.000 N 
ATOM      4  H   UNL     1      -6.821   0.680 131.037  0.00  0.00    +0.000 HD
ENDROOT
BRANCH   1   7
ATOM      5  C   UNL     1      -8.273   4.112 132.933  0.00  0.00    +0.000 A 
ATOM      6  C   UNL     1      -8.355   2.698 132.835  0.00  0.00    +0.000 A 
ATOM      7  C   UNL     1      -9.007   2.044 131.758  0.00  0.00    +0.000 A 
ATOM      8  C   UNL     1      -9.692   2.826 130.830  0.00  0.00    +0.000 A 
ATOM      9  C   UNL     1      -9.621   4.225 130.890  0.00  0.00    +0.000 A 
ATOM     10  C   UNL     1      -8.893   4.876 131.925  0.00  0.00    +0.000 A 
BRANCH   5  12
ATOM     11  C   UNL     1      -7.725   5.324 134.995  0.00  0.00    +0.000 C 
ATOM     12  O   UNL     1      -7.342   4.554 133.855  0.00  0.00    +0.000 OA
ENDBRANCH   5  12
BRANCH   9  13
ATOM     13  O   UNL     1     -10.259   4.840 129.822  0.00  0.00    +0.000 OA
ATOM     14  C   UNL     1     -11.573   5.367 130.027  0.00  0.00    +0.000 C 
ENDBRANCH   9  13
BRANCH  10  15
ATOM     15  O   UNL     1      -8.823   6.212 131.708  0.00  0.00    +0.000 OA
ATOM     16  C   UNL     1      -7.735   6.828 131.115  0.00  0.00    +0.000 C 
ENDBRANCH  10  15
ENDBRANCH   1   7
BRANCH   3  17
ATOM     17  C   UNL     1      -7.337  -1.363 131.046  0.00  0.00    +0.000 C 
BRANCH  17  18
ATOM     18  C   UNL     1      -7.746  -1.875 129.682  0.00  0.00    +0.000 A 
ATOM     19  C   UNL     1      -8.320  -3.142 129.506  0.00  0.00    +0.000 A 
ATOM     20  C   UNL     1      -8.575  -3.636 128.219  0.00  0.00    +0.000 A 
ATOM     21  C   UNL     1      -8.352  -2.839 127.097  0.00  0.00    +0.000 A 
ATOM     22  C   UNL     1      -7.811  -1.563 127.270  0.00  0.00    +0.000 A 
ATOM     23  C   UNL     1      -7.523  -1.084 128.549  0.00  0.00    +0.000 A 
BRANCH  21  24
ATOM     24  O   UNL     1      -8.725  -3.389 125.894  0.00  0.00    +0.000 OA
BRANCH  24  25
ATOM     25  C   UNL     1      -9.144  -2.440 124.910  0.00  0.00    +0.000 C 
BRANCH  25  26
ATOM     26  C   UNL     1      -8.555  -2.782 123.534  0.00  0.00    +0.000 C 
BRANCH  26  27
ATOM     27  N   UNL     1      -7.557  -1.789 123.078  0.00  0.00    +0.000 NA
ATOM     28  C   UNL     1      -7.833  -0.457 123.624  0.00  0.00    +0.000 C 
ATOM     29  C   UNL     1      -6.213  -2.207 123.486  0.00  0.00    +0.000 C 
ENDBRANCH  26  27
ENDBRANCH  25  26
ENDBRANCH  24  25
ENDBRANCH  21  24
ENDBRANCH  17  18
ENDBRANCH   3  17
TORSDOF 10
ENDMDL
MODEL 8
REMARK VINA RESULT:      -6.1      6.710      9.454
REMARK  Name = Trimethobenzamide
REMARK  15 active torsions:
REMARK  status: ('A' for Active; 'I' for Inactive)
REMARK    1  A    between atoms: C_1  and  O_2
REMARK    2  A    between atoms: O_2  and  C_3
REMARK    3  A    between atoms: C_5  and  C_13
REMARK    4  A    between atoms: C_7  and  O_8
REMARK    5  A    between atoms: O_8  and  C_9
REMARK    6  A    between atoms: C_10  and  O_11
REMARK    7  A    between atoms: O_11  and  C_12
REMARK    8  A    between atoms: N_15  and  C_16
REMARK    9  A    between atoms: C_16  and  C_17
REMARK   10  A    between atoms: C_20  and  O_21
REMARK   11  A    between atoms: O_21  and  C_22
REMARK   12  A    between atoms: C_22  and  C_23
REMARK   13  A    between atoms: C_23  and  N_24
REMARK   14  A    between atoms: N_24  and  C_25
REMARK   15  A    between atoms: N_24  and  C_26
REMARK                            x       y       z     vdW  Elec       q    Type
REMARK                         _______ _______ _______ _____ _____    ______ ____
ROOT
ATOM      1  C   UNL     1      -8.262   5.466 134.005  0.00  0.00    +0.000 C 
ATOM      2  O   UNL     1      -7.617   4.437 134.071  0.00  0.00    +0.000 OA
ATOM      3  N   UNL     1      -8.428   6.300 135.106  0.00  0.00    +0.000 N 
ATOM      4  H   UNL     1      -9.032   7.102 135.074  0.00  0.00    +0.000 HD
ENDROOT
BRANCH   1   7
ATOM      5  C   UNL     1      -8.857   5.938 130.228  0.00  0.00    +0.000 A 
ATOM      6  C   UNL     1      -8.230   5.818 131.497  0.00  0.00    +0.000 A 
ATOM      7  C   UNL     1      -8.960   5.844 132.713  0.00  0.00    +0.000 A 
ATOM      8  C   UNL     1     -10.325   6.118 132.658  0.00  0.00    +0.000 A 
ATOM      9  C   UNL     1     -10.977   6.229 131.422  0.00  0.00    +0.000 A 
ATOM     10  C   UNL     1     -10.254   6.117 130.202  0.00  0.00    +0.000 A 
BRANCH   5  12
ATOM     11  C   UNL     1      -8.053   4.242 128.648  0.00  0.00    +0.000 C 
ATOM     12  O   UNL     1      -8.047   5.572 129.170  0.00  0.00    +0.000 OA
ENDBRANCH   5  12
BRANCH   9  13
ATOM     13  O   UNL     1     -12.350   6.381 131.552  0.00  0.00    +0.000 OA
ATOM     14  C   UNL     1     -12.888   7.707 131.582  0.00  0.00    +0.000 C 
ENDBRANCH   9  13
BRANCH  10  15
ATOM     15  O   UNL     1     -11.092   6.098 129.136  0.00  0.00    +0.000 OA
ATOM     16  C   UNL     1     -11.237   7.163 128.265  0.00  0.00    +0.000 C 
ENDBRANCH  10  15
ENDBRANCH   1   7
BRANCH   3  17
ATOM     17  C   UNL     1      -7.846   5.982 136.407  0.00  0.00    +0.000 C 
BRANCH  17  18
ATOM     18  C   UNL     1      -8.013   7.134 137.374  0.00  0.00    +0.000 A 
ATOM     19  C   UNL     1      -8.943   8.160 137.153  0.00  0.00    +0.000 A 
ATOM     20  C   UNL     1      -8.989   9.275 138.002  0.00  0.00    +0.000 A 
ATOM     21  C   UNL     1      -8.177   9.338 139.134  0.00  0.00    +0.000 A 
ATOM     22  C   UNL     1      -7.272   8.302 139.375  0.00  0.00    +0.000 A 
ATOM     23  C   UNL     1      -7.200   7.209 138.511  0.00  0.00    +0.000 A 
BRANCH  21  24
ATOM     24  O   UNL     1      -8.372  10.430 139.944  0.00  0.00    +0.000 OA
BRANCH  24  25
ATOM     25  C   UNL     1      -9.730  10.641 140.343  0.00  0.00    +0.000 C 
BRANCH  25  26
ATOM     26  C   UNL     1      -9.914  12.047 140.931  0.00  0.00    +0.000 C 
BRANCH  26  27
ATOM     27  N   UNL     1      -9.788  13.113 139.912  0.00  0.00    +0.000 NA
ATOM     28  C   UNL     1     -11.080  13.744 139.629  0.00  0.00    +0.000 C 
ATOM     29  C   UNL     1      -8.844  14.135 140.374  0.00  0.00    +0.000 C 
ENDBRANCH  26  27
ENDBRANCH  25  26
ENDBRANCH  24  25
ENDBRANCH  21  24
ENDBRANCH  17  18
ENDBRANCH   3  17
TORSDOF 10
ENDMDL
MODEL 9
REMARK VINA RESULT:      -6.0      3.361      8.327
REMARK  Name = Trimethobenzamide
REMARK  15 active torsions:
REMARK  status: ('A' for Active; 'I' for Inactive)
REMARK    1  A    between atoms: C_1  and  O_2
REMARK    2  A    between atoms: O_2  and  C_3
REMARK    3  A    between atoms: C_5  and  C_13
REMARK    4  A    between atoms: C_7  and  O_8
REMARK    5  A    between atoms: O_8  and  C_9
REMARK    6  A    between atoms: C_10  and  O_11
REMARK    7  A    between atoms: O_11  and  C_12
REMARK    8  A    between atoms: N_15  and  C_16
REMARK    9  A    between atoms: C_16  and  C_17
REMARK   10  A    between atoms: C_20  and  O_21
REMARK   11  A    between atoms: O_21  and  C_22
REMARK   12  A    between atoms: C_22  and  C_23
REMARK   13  A    between atoms: C_23  and  N_24
REMARK   14  A    between atoms: N_24  and  C_25
REMARK   15  A    between atoms: N_24  and  C_26
REMARK                            x       y       z     vdW  Elec       q    Type
REMARK                         _______ _______ _______ _____ _____    ______ ____
ROOT
ATOM      1  C   UNL     1      -7.289   0.252 129.888  0.00  0.00    +0.000 C 
ATOM      2  O   UNL     1      -6.082   0.246 129.742  0.00  0.00    +0.000 OA
ATOM      3  N   UNL     1      -8.041  -0.915 129.825  0.00  0.00    +0.000 N 
ATOM      4  H   UNL     1      -9.046  -0.898 129.858  0.00  0.00    +0.000 HD
ENDROOT
BRANCH   1   7
ATOM      5  C   UNL     1      -9.221   3.070 131.668  0.00  0.00    +0.000 A 
ATOM      6  C   UNL     1      -8.704   1.796 131.312  0.00  0.00    +0.000 A 
ATOM      7  C   UNL     1      -8.023   1.563 130.090  0.00  0.00    +0.000 A 
ATOM      8  C   UNL     1      -7.968   2.598 129.158  0.00  0.00    +0.000 A 
ATOM      9  C   UNL     1      -8.456   3.872 129.482  0.00  0.00    +0.000 A 
ATOM     10  C   UNL     1      -9.063   4.122 130.744  0.00  0.00    +0.000 A 
BRANCH   5  12
ATOM     11  C   UNL     1      -8.624   3.666 133.972  0.00  0.00    +0.000 C 
ATOM     12  O   UNL     1      -9.557   3.182 133.003  0.00  0.00    +0.000 OA
ENDBRANCH   5  12
BRANCH   9  13
ATOM     13  O   UNL     1      -8.213   4.808 128.487  0.00  0.00    +0.000 OA
ATOM     14  C   UNL     1      -7.760   4.344 127.212  0.00  0.00    +0.000 C 
ENDBRANCH   9  13
BRANCH  10  15
ATOM     15  O   UNL     1      -9.321   5.442 130.910  0.00  0.00    +0.000 OA
ATOM     16  C   UNL     1      -8.433   6.320 131.507  0.00  0.00    +0.000 C 
ENDBRANCH  10  15
ENDBRANCH   1   7
BRANCH   3  17
ATOM     17  C   UNL     1      -7.427  -2.215 129.570  0.00  0.00    +0.000 C 
BRANCH  17  18
ATOM     18  C   UNL     1      -7.536  -2.592 128.108  0.00  0.00    +0.000 A 
ATOM     19  C   UNL     1      -6.563  -2.217 127.171  0.00  0.00    +0.000 A 
ATOM     20  C   UNL     1      -6.752  -2.474 125.805  0.00  0.00    +0.000 A 
ATOM     21  C   UNL     1      -7.865  -3.192 125.368  0.00  0.00    +0.000 A 
ATOM     22  C   UNL     1      -8.820  -3.596 126.303  0.00  0.00    +0.000 A 
ATOM     23  C   UNL     1      -8.651  -3.309 127.658  0.00  0.00    +0.000 A 
BRANCH  21  24
ATOM     24  O   UNL     1      -7.901  -3.468 124.022  0.00  0.00    +0.000 OA
BRANCH  24  25
ATOM     25  C   UNL     1      -9.053  -2.961 123.342  0.00  0.00    +0.000 C 
BRANCH  25  26
ATOM     26  C   UNL     1      -8.805  -1.534 122.834  0.00  0.00    +0.000 C 
BRANCH  26  27
ATOM     27  N   UNL     1      -9.684  -0.537 123.483  0.00  0.00    +0.000 NA
ATOM     28  C   UNL     1      -8.974   0.213 124.523  0.00  0.00    +0.000 C 
ATOM     29  C   UNL     1     -10.199   0.401 122.481  0.00  0.00    +0.000 C 
ENDBRANCH  26  27
ENDBRANCH  25  26
ENDBRANCH  24  25
ENDBRANCH  21  24
ENDBRANCH  17  18
ENDBRANCH   3  17
TORSDOF 10
ENDMDL
