MODEL 1
REMARK VINA RESULT:      -6.9      0.000      0.000
REMARK  Name = Trimethoprim
REMARK  8 active torsions:
REMARK  status: ('A' for Active; 'I' for Inactive)
REMARK    1  A    between atoms: C_1  and  O_2
REMARK    2  A    between atoms: O_2  and  C_3
REMARK    3  A    between atoms: C_5  and  C_6
REMARK    4  A    between atoms: C_6  and  C_7
REMARK    5  A    between atoms: C_16  and  O_17
REMARK    6  A    between atoms: O_17  and  C_18
REMARK    7  A    between atoms: C_19  and  O_20
REMARK    8  A    between atoms: O_20  and  C_21
REMARK                            x       y       z     vdW  Elec       q    Type
REMARK                         _______ _______ _______ _____ _____    ______ ____
ROOT
ATOM      1  C   UNL     1      -5.896   3.040 121.946  0.00  0.00    +0.000 C 
ENDROOT
BRANCH   1   2
ATOM      2  C   UNL     1      -5.791   4.027 120.803  0.00  0.00    +0.000 A 
ATOM      3  C   UNL     1      -6.681   3.985 119.752  0.00  0.00    +0.000 A 
ATOM      4  N   UNL     1      -6.737   4.916 118.778  0.00  0.00    +0.000 NA
ATOM      5  C   UNL     1      -5.879   5.927 118.889  0.00  0.00    +0.000 A 
ATOM      6  N   UNL     1      -5.948   6.908 117.931  0.00  0.00    +0.000 N 
ATOM      7  N   UNL     1      -4.963   6.063 119.847  0.00  0.00    +0.000 NA
ATOM      8  C   UNL     1      -4.906   5.096 120.782  0.00  0.00    +0.000 A 
ATOM      9  N   UNL     1      -3.859   5.204 121.698  0.00  0.00    +0.000 N 
ATOM     10  H   UNL     1      -6.585   6.772 117.170  0.00  0.00    +0.000 HD
ATOM     11  H   UNL     1      -5.309   7.676 118.003  0.00  0.00    +0.000 HD
ATOM     12  H   UNL     1      -3.505   6.157 121.682  0.00  0.00    +0.000 HD
ATOM     13  H   UNL     1      -4.070   4.893 122.639  0.00  0.00    +0.000 HD
ENDBRANCH   1   2
BRANCH   1  16
ATOM     14  C   UNL     1      -8.629   3.126 124.662  0.00  0.00    +0.000 A 
ATOM     15  C   UNL     1      -7.986   2.956 123.411  0.00  0.00    +0.000 A 
ATOM     16  C   UNL     1      -6.719   3.510 123.148  0.00  0.00    +0.000 A 
ATOM     17  C   UNL     1      -6.180   4.379 124.104  0.00  0.00    +0.000 A 
ATOM     18  C   UNL     1      -6.736   4.493 125.376  0.00  0.00    +0.000 A 
ATOM     19  C   UNL     1      -7.955   3.846 125.674  0.00  0.00    +0.000 A 
BRANCH  14  21
ATOM     20  C   UNL     1      -9.963   1.273 123.872  0.00  0.00    +0.000 C 
ATOM     21  O   UNL     1      -9.725   2.306 124.830  0.00  0.00    +0.000 OA
ENDBRANCH  14  21
BRANCH  18  22
ATOM     22  O   UNL     1      -5.913   5.189 126.238  0.00  0.00    +0.000 OA
ATOM     23  C   UNL     1      -4.626   4.657 126.529  0.00  0.00    +0.000 C 
ENDBRANCH  18  22
BRANCH  19  24
ATOM     24  O   UNL     1      -8.246   3.916 126.998  0.00  0.00    +0.000 OA
ATOM     25  C   UNL     1      -7.880   2.909 127.881  0.00  0.00    +0.000 C 
ENDBRANCH  19  24
ENDBRANCH   1  16
TORSDOF 5
ENDMDL
MODEL 2
REMARK VINA RESULT:      -6.3      4.842      6.684
REMARK  Name = Trimethoprim
REMARK  8 active torsions:
REMARK  status: ('A' for Active; 'I' for Inactive)
REMARK    1  A    between atoms: C_1  and  O_2
REMARK    2  A    between atoms: O_2  and  C_3
REMARK    3  A    between atoms: C_5  and  C_6
REMARK    4  A    between atoms: C_6  and  C_7
REMARK    5  A    between atoms: C_16  and  O_17
REMARK    6  A    between atoms: O_17  and  C_18
REMARK    7  A    between atoms: C_19  and  O_20
REMARK    8  A    between atoms: O_20  and  C_21
REMARK                            x       y       z     vdW  Elec       q    Type
REMARK                         _______ _______ _______ _____ _____    ______ ____
ROOT
ATOM      1  C   UNL     1      -9.420  -1.198 122.730  0.00  0.00    +0.000 C 
ENDROOT
BRANCH   1   2
ATOM      2  C   UNL     1      -8.184  -2.007 123.057  0.00  0.00    +0.000 A 
ATOM      3  C   UNL     1      -6.958  -1.665 122.529  0.00  0.00    +0.000 A 
ATOM      4  N   UNL     1      -5.797  -2.249 122.887  0.00  0.00    +0.000 NA
ATOM      5  C   UNL     1      -5.883  -3.192 123.823  0.00  0.00    +0.000 A 
ATOM      6  N   UNL     1      -4.708  -3.770 124.233  0.00  0.00    +0.000 N 
ATOM      7  N   UNL     1      -7.012  -3.618 124.389  0.00  0.00    +0.000 NA
ATOM      8  C   UNL     1      -8.158  -3.043 123.981  0.00  0.00    +0.000 A 
ATOM      9  N   UNL     1      -9.329  -3.595 124.502  0.00  0.00    +0.000 N 
ATOM     10  H   UNL     1      -3.867  -3.503 123.757  0.00  0.00    +0.000 HD
ATOM     11  H   UNL     1      -4.758  -4.479 124.938  0.00  0.00    +0.000 HD
ATOM     12  H   UNL     1      -9.097  -4.137 125.330  0.00  0.00    +0.000 HD
ATOM     13  H   UNL     1     -10.080  -2.938 124.676  0.00  0.00    +0.000 HD
ENDBRANCH   1   2
BRANCH   1  16
ATOM     14  C   UNL     1      -9.184   1.656 125.310  0.00  0.00    +0.000 A 
ATOM     15  C   UNL     1      -9.461   0.396 124.727  0.00  0.00    +0.000 A 
ATOM     16  C   UNL     1      -9.463   0.210 123.331  0.00  0.00    +0.000 A 
ATOM     17  C   UNL     1      -9.347   1.348 122.525  0.00  0.00    +0.000 A 
ATOM     18  C   UNL     1      -8.981   2.581 123.060  0.00  0.00    +0.000 A 
ATOM     19  C   UNL     1      -8.873   2.740 124.459  0.00  0.00    +0.000 A 
BRANCH  14  21
ATOM     20  C   UNL     1      -7.854   0.840 127.155  0.00  0.00    +0.000 C 
ATOM     21  O   UNL     1      -8.968   1.593 126.671  0.00  0.00    +0.000 OA
ENDBRANCH  14  21
BRANCH  18  22
ATOM     22  O   UNL     1      -8.669   3.498 122.077  0.00  0.00    +0.000 OA
ATOM     23  C   UNL     1      -7.376   3.447 121.484  0.00  0.00    +0.000 C 
ENDBRANCH  18  22
BRANCH  19  24
ATOM     24  O   UNL     1      -8.333   3.942 124.785  0.00  0.00    +0.000 OA
ATOM     25  C   UNL     1      -7.008   4.066 125.180  0.00  0.00    +0.000 C 
ENDBRANCH  19  24
ENDBRANCH   1  16
TORSDOF 5
ENDMDL
MODEL 3
REMARK VINA RESULT:      -6.1      5.019      6.645
REMARK  Name = Trimethoprim
REMARK  8 active torsions:
REMARK  status: ('A' for Active; 'I' for Inactive)
REMARK    1  A    between atoms: C_1  and  O_2
REMARK    2  A    between atoms: O_2  and  C_3
REMARK    3  A    between atoms: C_5  and  C_6
REMARK    4  A    between atoms: C_6  and  C_7
REMARK    5  A    between atoms: C_16  and  O_17
REMARK    6  A    between atoms: O_17  and  C_18
REMARK    7  A    between atoms: C_19  and  O_20
REMARK    8  A    between atoms: O_20  and  C_21
REMARK                            x       y       z     vdW  Elec       q    Type
REMARK                         _______ _______ _______ _____ _____    ______ ____
ROOT
ATOM      1  C   UNL     1      -8.753  -1.276 123.510  0.00  0.00    +0.000 C 
ENDROOT
BRANCH   1   2
ATOM      2  C   UNL     1      -7.548  -2.190 123.459  0.00  0.00    +0.000 A 
ATOM      3  C   UNL     1      -6.448  -1.864 122.697  0.00  0.00    +0.000 A 
ATOM      4  N   UNL     1      -5.290  -2.554 122.716  0.00  0.00    +0.000 NA
ATOM      5  C   UNL     1      -5.243  -3.591 123.550  0.00  0.00    +0.000 A 
ATOM      6  N   UNL     1      -4.059  -4.281 123.618  0.00  0.00    +0.000 N 
ATOM      7  N   UNL     1      -6.248  -4.010 124.319  0.00  0.00    +0.000 NA
ATOM      8  C   UNL     1      -7.403  -3.324 124.247  0.00  0.00    +0.000 A 
ATOM      9  N   UNL     1      -8.470  -3.861 124.969  0.00  0.00    +0.000 N 
ATOM     10  H   UNL     1      -3.327  -4.013 122.988  0.00  0.00    +0.000 HD
ATOM     11  H   UNL     1      -4.009  -5.063 124.242  0.00  0.00    +0.000 HD
ATOM     12  H   UNL     1      -8.104  -4.507 125.664  0.00  0.00    +0.000 HD
ATOM     13  H   UNL     1      -9.104  -3.184 125.376  0.00  0.00    +0.000 HD
ENDBRANCH   1   2
BRANCH   1  16
ATOM     14  C   UNL     1      -8.431   2.565 123.461  0.00  0.00    +0.000 A 
ATOM     15  C   UNL     1      -8.369   1.209 123.056  0.00  0.00    +0.000 A 
ATOM     16  C   UNL     1      -8.476   0.154 123.983  0.00  0.00    +0.000 A 
ATOM     17  C   UNL     1      -8.476   0.483 125.343  0.00  0.00    +0.000 A 
ATOM     18  C   UNL     1      -8.632   1.799 125.770  0.00  0.00    +0.000 A 
ATOM     19  C   UNL     1      -8.635   2.852 124.829  0.00  0.00    +0.000 A 
BRANCH  14  21
ATOM     20  C   UNL     1      -7.550   3.495 121.412  0.00  0.00    +0.000 C 
ATOM     21  O   UNL     1      -8.574   3.444 122.407  0.00  0.00    +0.000 OA
ENDBRANCH  14  21
BRANCH  18  22
ATOM     22  O   UNL     1      -8.868   1.877 127.128  0.00  0.00    +0.000 OA
ATOM     23  C   UNL     1      -7.753   1.903 128.012  0.00  0.00    +0.000 C 
ENDBRANCH  18  22
BRANCH  19  24
ATOM     24  O   UNL     1      -8.979   4.033 125.402  0.00  0.00    +0.000 OA
ATOM     25  C   UNL     1      -8.026   4.983 125.746  0.00  0.00    +0.000 C 
ENDBRANCH  19  24
ENDBRANCH   1  16
TORSDOF 5
ENDMDL
MODEL 4
REMARK VINA RESULT:      -6.1      7.548      9.925
REMARK  Name = Trimethoprim
REMARK  8 active torsions:
REMARK  status: ('A' for Active; 'I' for Inactive)
REMARK    1  A    between atoms: C_1  and  O_2
REMARK    2  A    between atoms: O_2  and  C_3
REMARK    3  A    between atoms: C_5  and  C_6
REMARK    4  A    between atoms: C_6  and  C_7
REMARK    5  A    between atoms: C_16  and  O_17
REMARK    6  A    between atoms: O_17  and  C_18
REMARK    7  A    between atoms: C_19  and  O_20
REMARK    8  A    between atoms: O_20  and  C_21
REMARK                            x       y       z     vdW  Elec       q    Type
REMARK                         _______ _______ _______ _____ _____    ______ ____
ROOT
ATOM      1  C   UNL     1     -11.919   6.081 130.476  0.00  0.00    +0.000 C 
ENDROOT
BRANCH   1   2
ATOM      2  C   UNL     1     -12.498   7.413 130.051  0.00  0.00    +0.000 A 
ATOM      3  C   UNL     1     -12.746   8.401 130.978  0.00  0.00    +0.000 A 
ATOM      4  N   UNL     1     -13.125   9.655 130.656  0.00  0.00    +0.000 NA
ATOM      5  C   UNL     1     -13.232   9.916 129.356  0.00  0.00    +0.000 A 
ATOM      6  N   UNL     1     -13.574  11.197 129.004  0.00  0.00    +0.000 N 
ATOM      7  N   UNL     1     -13.037   9.036 128.373  0.00  0.00    +0.000 NA
ATOM      8  C   UNL     1     -12.699   7.783 128.729  0.00  0.00    +0.000 A 
ATOM      9  N   UNL     1     -12.623   6.859 127.685  0.00  0.00    +0.000 N 
ATOM     10  H   UNL     1     -13.793  11.839 129.742  0.00  0.00    +0.000 HD
ATOM     11  H   UNL     1     -13.656  11.407 128.028  0.00  0.00    +0.000 HD
ATOM     12  H   UNL     1     -12.539   7.363 126.806  0.00  0.00    +0.000 HD
ATOM     13  H   UNL     1     -11.908   6.149 127.785  0.00  0.00    +0.000 HD
ENDBRANCH   1   2
BRANCH   1  16
ATOM     14  C   UNL     1      -8.689   5.815 132.564  0.00  0.00    +0.000 A 
ATOM     15  C   UNL     1     -10.021   6.117 132.186  0.00  0.00    +0.000 A 
ATOM     16  C   UNL     1     -10.431   6.096 130.840  0.00  0.00    +0.000 A 
ATOM     17  C   UNL     1      -9.442   5.931 129.862  0.00  0.00    +0.000 A 
ATOM     18  C   UNL     1      -8.149   5.540 130.199  0.00  0.00    +0.000 A 
ATOM     19  C   UNL     1      -7.767   5.456 131.556  0.00  0.00    +0.000 A 
BRANCH  14  21
ATOM     20  C   UNL     1      -8.541   4.296 134.437  0.00  0.00    +0.000 C 
ATOM     21  O   UNL     1      -8.535   5.628 133.922  0.00  0.00    +0.000 OA
ENDBRANCH  14  21
BRANCH  18  22
ATOM     22  O   UNL     1      -7.412   5.182 129.088  0.00  0.00    +0.000 OA
ATOM     23  C   UNL     1      -7.886   4.117 128.272  0.00  0.00    +0.000 C 
ENDBRANCH  18  22
BRANCH  19  24
ATOM     24  O   UNL     1      -6.542   4.888 131.695  0.00  0.00    +0.000 OA
ATOM     25  C   UNL     1      -5.447   5.614 132.145  0.00  0.00    +0.000 C 
ENDBRANCH  19  24
ENDBRANCH   1  16
TORSDOF 5
ENDMDL
MODEL 5
REMARK VINA RESULT:      -6.0      6.799      9.214
REMARK  Name = Trimethoprim
REMARK  8 active torsions:
REMARK  status: ('A' for Active; 'I' for Inactive)
REMARK    1  A    between atoms: C_1  and  O_2
REMARK    2  A    between atoms: O_2  and  C_3
REMARK    3  A    between atoms: C_5  and  C_6
REMARK    4  A    between atoms: C_6  and  C_7
REMARK    5  A    between atoms: C_16  and  O_17
REMARK    6  A    between atoms: O_17  and  C_18
REMARK    7  A    between atoms: C_19  and  O_20
REMARK    8  A    between atoms: O_20  and  C_21
REMARK                            x       y       z     vdW  Elec       q    Type
REMARK                         _______ _______ _______ _____ _____    ______ ____
ROOT
ATOM      1  C   UNL     1      -9.078   6.986 130.626  0.00  0.00    +0.000 C 
ENDROOT
BRANCH   1   2
ATOM      2  C   UNL     1     -10.405   7.276 129.960  0.00  0.00    +0.000 A 
ATOM      3  C   UNL     1     -10.456   7.902 128.734  0.00  0.00    +0.000 A 
ATOM      4  N   UNL     1     -11.588   8.063 128.019  0.00  0.00    +0.000 NA
ATOM      5  C   UNL     1     -12.694   7.553 128.556  0.00  0.00    +0.000 A 
ATOM      6  N   UNL     1     -13.850   7.668 127.826  0.00  0.00    +0.000 N 
ATOM      7  N   UNL     1     -12.769   6.946 129.741  0.00  0.00    +0.000 NA
ATOM      8  C   UNL     1     -11.628   6.838 130.448  0.00  0.00    +0.000 A 
ATOM      9  N   UNL     1     -11.763   6.309 131.732  0.00  0.00    +0.000 N 
ATOM     10  H   UNL     1     -13.810   8.188 126.970  0.00  0.00    +0.000 HD
ATOM     11  H   UNL     1     -14.689   7.287 128.218  0.00  0.00    +0.000 HD
ATOM     12  H   UNL     1     -12.652   5.819 131.794  0.00  0.00    +0.000 HD
ATOM     13  H   UNL     1     -10.990   5.736 132.049  0.00  0.00    +0.000 HD
ENDBRANCH   1   2
BRANCH   1  16
ATOM     14  C   UNL     1      -8.361   3.502 132.110  0.00  0.00    +0.000 A 
ATOM     15  C   UNL     1      -8.408   4.909 131.953  0.00  0.00    +0.000 A 
ATOM     16  C   UNL     1      -8.693   5.506 130.711  0.00  0.00    +0.000 A 
ATOM     17  C   UNL     1      -8.765   4.671 129.590  0.00  0.00    +0.000 A 
ATOM     18  C   UNL     1      -8.818   3.286 129.722  0.00  0.00    +0.000 A 
ATOM     19  C   UNL     1      -8.640   2.688 130.989  0.00  0.00    +0.000 A 
BRANCH  14  21
ATOM     20  C   UNL     1      -8.505   4.082 134.451  0.00  0.00    +0.000 C 
ATOM     21  O   UNL     1      -8.331   3.099 133.429  0.00  0.00    +0.000 OA
ENDBRANCH  14  21
BRANCH  18  22
ATOM     22  O   UNL     1      -9.149   2.667 128.533  0.00  0.00    +0.000 OA
ATOM     23  C   UNL     1      -8.100   2.248 127.668  0.00  0.00    +0.000 C 
ENDBRANCH  18  22
BRANCH  19  24
ATOM     24  O   UNL     1      -8.904   1.358 130.955  0.00  0.00    +0.000 OA
ATOM     25  C   UNL     1      -7.893   0.409 131.031  0.00  0.00    +0.000 C 
ENDBRANCH  19  24
ENDBRANCH   1  16
TORSDOF 5
ENDMDL
MODEL 6
REMARK VINA RESULT:      -6.0      6.361      8.563
REMARK  Name = Trimethoprim
REMARK  8 active torsions:
REMARK  status: ('A' for Active; 'I' for Inactive)
REMARK    1  A    between atoms: C_1  and  O_2
REMARK    2  A    between atoms: O_2  and  C_3
REMARK    3  A    between atoms: C_5  and  C_6
REMARK    4  A    between atoms: C_6  and  C_7
REMARK    5  A    between atoms: C_16  and  O_17
REMARK    6  A    between atoms: O_17  and  C_18
REMARK    7  A    between atoms: C_19  and  O_20
REMARK    8  A    between atoms: O_20  and  C_21
REMARK                            x       y       z     vdW  Elec       q    Type
REMARK                         _______ _______ _______ _____ _____    ______ ____
ROOT
ATOM      1  C   UNL     1      -8.850   6.528 131.506  0.00  0.00    +0.000 C 
ENDROOT
BRANCH   1   2
ATOM      2  C   UNL     1      -9.799   6.800 130.359  0.00  0.00    +0.000 A 
ATOM      3  C   UNL     1      -9.565   7.836 129.482  0.00  0.00    +0.000 A 
ATOM      4  N   UNL     1     -10.283   8.047 128.361  0.00  0.00    +0.000 NA
ATOM      5  C   UNL     1     -11.252   7.168 128.115  0.00  0.00    +0.000 A 
ATOM      6  N   UNL     1     -11.968   7.339 126.957  0.00  0.00    +0.000 N 
ATOM      7  N   UNL     1     -11.582   6.142 128.899  0.00  0.00    +0.000 NA
ATOM      8  C   UNL     1     -10.871   5.982 130.031  0.00  0.00    +0.000 A 
ATOM      9  N   UNL     1     -11.320   4.976 130.888  0.00  0.00    +0.000 N 
ATOM     10  H   UNL     1     -11.771   8.151 126.403  0.00  0.00    +0.000 HD
ATOM     11  H   UNL     1     -12.699   6.683 126.759  0.00  0.00    +0.000 HD
ATOM     12  H   UNL     1     -11.919   4.342 130.365  0.00  0.00    +0.000 HD
ATOM     13  H   UNL     1     -10.596   4.482 131.395  0.00  0.00    +0.000 HD
ENDBRANCH   1   2
BRANCH   1  16
ATOM     14  C   UNL     1      -6.050   4.586 129.706  0.00  0.00    +0.000 A 
ATOM     15  C   UNL     1      -7.273   4.880 130.357  0.00  0.00    +0.000 A 
ATOM     16  C   UNL     1      -7.449   6.059 131.105  0.00  0.00    +0.000 A 
ATOM     17  C   UNL     1      -6.322   6.858 131.330  0.00  0.00    +0.000 A 
ATOM     18  C   UNL     1      -5.135   6.650 130.632  0.00  0.00    +0.000 A 
ATOM     19  C   UNL     1      -4.997   5.523 129.793  0.00  0.00    +0.000 A 
BRANCH  14  21
ATOM     20  C   UNL     1      -6.974   3.685 127.663  0.00  0.00    +0.000 C 
ATOM     21  O   UNL     1      -6.144   3.536 128.815  0.00  0.00    +0.000 OA
ENDBRANCH  14  21
BRANCH  18  22
ATOM     22  O   UNL     1      -4.246   7.693 130.802  0.00  0.00    +0.000 OA
ATOM     23  C   UNL     1      -3.312   7.622 131.873  0.00  0.00    +0.000 C 
ENDBRANCH  18  22
BRANCH  19  24
ATOM     24  O   UNL     1      -3.856   5.582 129.060  0.00  0.00    +0.000 OA
ATOM     25  C   UNL     1      -3.860   5.986 127.732  0.00  0.00    +0.000 C 
ENDBRANCH  19  24
ENDBRANCH   1  16
TORSDOF 5
ENDMDL
MODEL 7
REMARK VINA RESULT:      -6.0      2.645      4.263
REMARK  Name = Trimethoprim
REMARK  8 active torsions:
REMARK  status: ('A' for Active; 'I' for Inactive)
REMARK    1  A    between atoms: C_1  and  O_2
REMARK    2  A    between atoms: O_2  and  C_3
REMARK    3  A    between atoms: C_5  and  C_6
REMARK    4  A    between atoms: C_6  and  C_7
REMARK    5  A    between atoms: C_16  and  O_17
REMARK    6  A    between atoms: O_17  and  C_18
REMARK    7  A    between atoms: C_19  and  O_20
REMARK    8  A    between atoms: O_20  and  C_21
REMARK                            x       y       z     vdW  Elec       q    Type
REMARK                         _______ _______ _______ _____ _____    ______ ____
ROOT
ATOM      1  C   UNL     1      -9.060   2.419 122.540  0.00  0.00    +0.000 C 
ENDROOT
BRANCH   1   2
ATOM      2  C   UNL     1      -8.026   3.263 121.825  0.00  0.00    +0.000 A 
ATOM      3  C   UNL     1      -6.776   3.457 122.369  0.00  0.00    +0.000 A 
ATOM      4  N   UNL     1      -5.764   4.073 121.726  0.00  0.00    +0.000 NA
ATOM      5  C   UNL     1      -6.026   4.484 120.487  0.00  0.00    +0.000 A 
ATOM      6  N   UNL     1      -4.997   5.075 119.798  0.00  0.00    +0.000 N 
ATOM      7  N   UNL     1      -7.200   4.369 119.867  0.00  0.00    +0.000 NA
ATOM      8  C   UNL     1      -8.201   3.786 120.551  0.00  0.00    +0.000 A 
ATOM      9  N   UNL     1      -9.446   3.792 119.921  0.00  0.00    +0.000 N 
ATOM     10  H   UNL     1      -4.136   5.229 120.288  0.00  0.00    +0.000 HD
ATOM     11  H   UNL     1      -5.180   5.388 118.864  0.00  0.00    +0.000 HD
ATOM     12  H   UNL     1      -9.311   3.966 118.928  0.00  0.00    +0.000 HD
ATOM     13  H   UNL     1     -10.022   2.976 120.088  0.00  0.00    +0.000 HD
ENDBRANCH   1   2
BRANCH   1  16
ATOM     14  C   UNL     1      -8.626   1.158 126.156  0.00  0.00    +0.000 A 
ATOM     15  C   UNL     1      -8.809   2.026 125.052  0.00  0.00    +0.000 A 
ATOM     16  C   UNL     1      -8.540   1.613 123.734  0.00  0.00    +0.000 A 
ATOM     17  C   UNL     1      -7.923   0.368 123.556  0.00  0.00    +0.000 A 
ATOM     18  C   UNL     1      -7.816  -0.543 124.604  0.00  0.00    +0.000 A 
ATOM     19  C   UNL     1      -8.190  -0.163 125.912  0.00  0.00    +0.000 A 
BRANCH  14  21
ATOM     20  C   UNL     1      -8.320   1.947 128.420  0.00  0.00    +0.000 C 
ATOM     21  O   UNL     1      -9.183   1.636 127.325  0.00  0.00    +0.000 OA
ENDBRANCH  14  21
BRANCH  18  22
ATOM     22  O   UNL     1      -7.423  -1.791 124.165  0.00  0.00    +0.000 OA
ATOM     23  C   UNL     1      -7.187  -1.979 122.774  0.00  0.00    +0.000 C 
ENDBRANCH  18  22
BRANCH  19  24
ATOM     24  O   UNL     1      -8.193  -1.224 126.758  0.00  0.00    +0.000 OA
ATOM     25  C   UNL     1      -7.127  -1.482 127.610  0.00  0.00    +0.000 C 
ENDBRANCH  19  24
ENDBRANCH   1  16
TORSDOF 5
ENDMDL
MODEL 8
REMARK VINA RESULT:      -6.0      6.981      9.754
REMARK  Name = Trimethoprim
REMARK  8 active torsions:
REMARK  status: ('A' for Active; 'I' for Inactive)
REMARK    1  A    between atoms: C_1  and  O_2
REMARK    2  A    between atoms: O_2  and  C_3
REMARK    3  A    between atoms: C_5  and  C_6
REMARK    4  A    between atoms: C_6  and  C_7
REMARK    5  A    between atoms: C_16  and  O_17
REMARK    6  A    between atoms: O_17  and  C_18
REMARK    7  A    between atoms: C_19  and  O_20
REMARK    8  A    between atoms: O_20  and  C_21
REMARK                            x       y       z     vdW  Elec       q    Type
REMARK                         _______ _______ _______ _____ _____    ______ ____
ROOT
ATOM      1  C   UNL     1      -7.901   6.200 131.945  0.00  0.00    +0.000 C 
ENDROOT
BRANCH   1   2
ATOM      2  C   UNL     1      -9.247   6.539 131.343  0.00  0.00    +0.000 A 
ATOM      3  C   UNL     1      -9.336   7.299 130.198  0.00  0.00    +0.000 A 
ATOM      4  N   UNL     1     -10.486   7.517 129.529  0.00  0.00    +0.000 NA
ATOM      5  C   UNL     1     -11.571   6.929 130.027  0.00  0.00    +0.000 A 
ATOM      6  N   UNL     1     -12.745   7.103 129.338  0.00  0.00    +0.000 N 
ATOM      7  N   UNL     1     -11.609   6.190 131.136  0.00  0.00    +0.000 NA
ATOM      8  C   UNL     1     -10.452   6.024 131.803  0.00  0.00    +0.000 A 
ATOM      9  N   UNL     1     -10.549   5.349 133.021  0.00  0.00    +0.000 N 
ATOM     10  H   UNL     1     -12.733   7.717 128.546  0.00  0.00    +0.000 HD
ATOM     11  H   UNL     1     -13.568   6.664 129.701  0.00  0.00    +0.000 HD
ATOM     12  H   UNL     1     -11.428   4.838 133.044  0.00  0.00    +0.000 HD
ATOM     13  H   UNL     1      -9.760   4.760 133.255  0.00  0.00    +0.000 HD
ENDBRANCH   1   2
BRANCH   1  16
ATOM     14  C   UNL     1      -4.531   7.135 130.323  0.00  0.00    +0.000 A 
ATOM     15  C   UNL     1      -5.783   7.250 130.976  0.00  0.00    +0.000 A 
ATOM     16  C   UNL     1      -6.722   6.202 130.967  0.00  0.00    +0.000 A 
ATOM     17  C   UNL     1      -6.454   5.098 130.150  0.00  0.00    +0.000 A 
ATOM     18  C   UNL     1      -5.201   4.910 129.574  0.00  0.00    +0.000 A 
ATOM     19  C   UNL     1      -4.218   5.919 129.676  0.00  0.00    +0.000 A 
BRANCH  14  21
ATOM     20  C   UNL     1      -2.919   8.037 131.880  0.00  0.00    +0.000 C 
ATOM     21  O   UNL     1      -3.647   8.140 130.655  0.00  0.00    +0.000 OA
ENDBRANCH  14  21
BRANCH  18  22
ATOM     22  O   UNL     1      -5.065   3.647 129.032  0.00  0.00    +0.000 OA
ATOM     23  C   UNL     1      -5.499   3.430 127.695  0.00  0.00    +0.000 C 
ENDBRANCH  18  22
BRANCH  19  24
ATOM     24  O   UNL     1      -3.014   5.491 129.219  0.00  0.00    +0.000 OA
ATOM     25  C   UNL     1      -2.386   6.092 128.136  0.00  0.00    +0.000 C 
ENDBRANCH  19  24
ENDBRANCH   1  16
TORSDOF 5
ENDMDL
MODEL 9
REMARK VINA RESULT:      -5.9      7.652      9.082
REMARK  Name = Trimethoprim
REMARK  8 active torsions:
REMARK  status: ('A' for Active; 'I' for Inactive)
REMARK    1  A    between atoms: C_1  and  O_2
REMARK    2  A    between atoms: O_2  and  C_3
REMARK    3  A    between atoms: C_5  and  C_6
REMARK    4  A    between atoms: C_6  and  C_7
REMARK    5  A    between atoms: C_16  and  O_17
REMARK    6  A    between atoms: O_17  and  C_18
REMARK    7  A    between atoms: C_19  and  O_20
REMARK    8  A    between atoms: O_20  and  C_21
REMARK                            x       y       z     vdW  Elec       q    Type
REMARK                         _______ _______ _______ _____ _____    ______ ____
ROOT
ATOM      1  C   UNL     1      -9.166   6.762 131.222  0.00  0.00    +0.000 C 
ENDROOT
BRANCH   1   2
ATOM      2  C   UNL     1     -10.215   6.910 130.141  0.00  0.00    +0.000 A 
ATOM      3  C   UNL     1     -10.121   7.913 129.202  0.00  0.00    +0.000 A 
ATOM      4  N   UNL     1     -10.934   8.018 128.132  0.00  0.00    +0.000 NA
ATOM      5  C   UNL     1     -11.853   7.065 128.002  0.00  0.00    +0.000 A 
ATOM      6  N   UNL     1     -12.664   7.128 126.897  0.00  0.00    +0.000 N 
ATOM      7  N   UNL     1     -12.050   6.060 128.856  0.00  0.00    +0.000 NA
ATOM      8  C   UNL     1     -11.248   6.006 129.935  0.00  0.00    +0.000 A 
ATOM      9  N   UNL     1     -11.558   5.016 130.869  0.00  0.00    +0.000 N 
ATOM     10  H   UNL     1     -12.567   7.922 126.294  0.00  0.00    +0.000 HD
ATOM     11  H   UNL     1     -13.359   6.415 126.787  0.00  0.00    +0.000 HD
ATOM     12  H   UNL     1     -12.148   4.318 130.424  0.00  0.00    +0.000 HD
ATOM     13  H   UNL     1     -10.765   4.599 131.340  0.00  0.00    +0.000 HD
ENDBRANCH   1   2
BRANCH   1  16
ATOM     14  C   UNL     1      -5.334   6.435 130.962  0.00  0.00    +0.000 A 
ATOM     15  C   UNL     1      -6.625   6.999 131.113  0.00  0.00    +0.000 A 
ATOM     16  C   UNL     1      -7.787   6.297 130.744  0.00  0.00    +0.000 A 
ATOM     17  C   UNL     1      -7.625   5.084 130.064  0.00  0.00    +0.000 A 
ATOM     18  C   UNL     1      -6.383   4.460 129.984  0.00  0.00    +0.000 A 
ATOM     19  C   UNL     1      -5.227   5.121 130.455  0.00  0.00    +0.000 A 
BRANCH  14  21
ATOM     20  C   UNL     1      -3.497   8.000 130.841  0.00  0.00    +0.000 C 
ATOM     21  O   UNL     1      -4.347   7.148 131.610  0.00  0.00    +0.000 OA
ENDBRANCH  14  21
BRANCH  18  22
ATOM     22  O   UNL     1      -6.485   3.167 129.510  0.00  0.00    +0.000 OA
ATOM     23  C   UNL     1      -7.116   2.190 130.329  0.00  0.00    +0.000 C 
ENDBRANCH  18  22
BRANCH  19  24
ATOM     24  O   UNL     1      -4.149   4.297 130.464  0.00  0.00    +0.000 OA
ATOM     25  C   UNL     1      -3.098   4.457 129.571  0.00  0.00    +0.000 C 
ENDBRANCH  19  24
ENDBRANCH   1  16
TORSDOF 5
ENDMDL
