MODEL 1
REMARK VINA RESULT:      -5.8      0.000      0.000
REMARK  Name = Trimetazidine
REMARK  8 active torsions:
REMARK  status: ('A' for Active; 'I' for Inactive)
REMARK    1  A    between atoms: C_1  and  O_2
REMARK    2  A    between atoms: O_2  and  C_3
REMARK    3  A    between atoms: C_4  and  O_5
REMARK    4  A    between atoms: O_5  and  C_6
REMARK    5  A    between atoms: C_7  and  O_8
REMARK    6  A    between atoms: O_8  and  C_9
REMARK    7  A    between atoms: C_10  and  C_11
REMARK    8  A    between atoms: C_11  and  N_12
REMARK                            x       y       z     vdW  Elec       q    Type
REMARK                         _______ _______ _______ _____ _____    ______ ____
ROOT
ATOM      1  C   UNL     1     -12.162   7.971 129.965  0.00  0.00    +0.000 A 
ATOM      2  C   UNL     1     -10.820   7.661 129.544  0.00  0.00    +0.000 A 
ATOM      3  C   UNL     1      -9.943   6.670 130.226  0.00  0.00    +0.000 A 
ATOM      4  C   UNL     1     -10.362   6.150 131.431  0.00  0.00    +0.000 A 
ATOM      5  C   UNL     1     -11.619   6.587 131.664  0.00  0.00    +0.000 A 
ATOM      6  C   UNL     1     -12.575   7.359 131.091  0.00  0.00    +0.000 A 
ENDROOT
BRANCH   1   8
ATOM      7  C   UNL     1     -13.124  10.138 129.647  0.00  0.00    +0.000 C 
ATOM      8  O   UNL     1     -13.094   8.735 129.322  0.00  0.00    +0.000 OA
ENDBRANCH   1   8
BRANCH   2   9
ATOM      9  O   UNL     1     -10.218   8.355 128.511  0.00  0.00    +0.000 OA
ATOM     10  C   UNL     1     -10.692   7.982 127.221  0.00  0.00    +0.000 C 
ENDBRANCH   2   9
BRANCH   3  11
ATOM     11  O   UNL     1      -8.762   6.296 129.628  0.00  0.00    +0.000 OA
ATOM     12  C   UNL     1      -8.719   4.965 129.097  0.00  0.00    +0.000 C 
ENDBRANCH   3  11
BRANCH   4  13
ATOM     13  C   UNL     1      -9.740   5.245 132.521  0.00  0.00    +0.000 C 
BRANCH  13  14
ATOM     14  N   UNL     1      -8.532   5.615 133.344  0.00  0.00    +0.000 NA
ATOM     15  C   UNL     1      -8.203   4.759 134.499  0.00  0.00    +0.000 C 
ATOM     16  C   UNL     1      -7.445   3.467 134.149  0.00  0.00    +0.000 C 
ATOM     17  N   UNL     1      -6.287   3.698 133.163  0.00  0.00    +0.000 NA
ATOM     18  C   UNL     1      -6.476   4.793 132.098  0.00  0.00    +0.000 C 
ATOM     19  C   UNL     1      -7.311   5.987 132.598  0.00  0.00    +0.000 C 
ATOM     20  H   UNL     1      -6.134   2.819 132.662  0.00  0.00    +0.000 HD
ENDBRANCH  13  14
ENDBRANCH   4  13
TORSDOF 5
ENDMDL
MODEL 2
REMARK VINA RESULT:      -5.7      3.178      6.244
REMARK  Name = Trimetazidine
REMARK  8 active torsions:
REMARK  status: ('A' for Active; 'I' for Inactive)
REMARK    1  A    between atoms: C_1  and  O_2
REMARK    2  A    between atoms: O_2  and  C_3
REMARK    3  A    between atoms: C_4  and  O_5
REMARK    4  A    between atoms: O_5  and  C_6
REMARK    5  A    between atoms: C_7  and  O_8
REMARK    6  A    between atoms: O_8  and  C_9
REMARK    7  A    between atoms: C_10  and  C_11
REMARK    8  A    between atoms: C_11  and  N_12
REMARK                            x       y       z     vdW  Elec       q    Type
REMARK                         _______ _______ _______ _____ _____    ______ ____
ROOT
ATOM      1  C   UNL     1      -6.585   5.747 130.786  0.00  0.00    +0.000 A 
ATOM      2  C   UNL     1      -7.573   4.788 130.366  0.00  0.00    +0.000 A 
ATOM      3  C   UNL     1      -9.000   5.124 130.106  0.00  0.00    +0.000 A 
ATOM      4  C   UNL     1      -9.448   6.379 130.459  0.00  0.00    +0.000 A 
ATOM      5  C   UNL     1      -8.384   7.108 130.860  0.00  0.00    +0.000 A 
ATOM      6  C   UNL     1      -7.042   6.991 131.018  0.00  0.00    +0.000 A 
ENDROOT
BRANCH   1   8
ATOM      7  C   UNL     1      -4.491   5.475 129.662  0.00  0.00    +0.000 C 
ATOM      8  O   UNL     1      -5.234   5.576 130.893  0.00  0.00    +0.000 OA
ENDBRANCH   1   8
BRANCH   2   9
ATOM      9  O   UNL     1      -7.267   3.443 130.267  0.00  0.00    +0.000 OA
ATOM     10  C   UNL     1      -7.245   2.770 131.521  0.00  0.00    +0.000 C 
ENDBRANCH   2   9
BRANCH   3  11
ATOM     11  O   UNL     1      -9.813   4.187 129.511  0.00  0.00    +0.000 OA
ATOM     12  C   UNL     1     -10.710   3.487 130.383  0.00  0.00    +0.000 C 
ENDBRANCH   3  11
BRANCH   4  13
ATOM     13  C   UNL     1     -10.823   7.087 130.512  0.00  0.00    +0.000 C 
BRANCH  13  14
ATOM     14  N   UNL     1     -11.306   8.081 129.487  0.00  0.00    +0.000 NA
ATOM     15  C   UNL     1     -10.477   8.280 128.283  0.00  0.00    +0.000 C 
ATOM     16  C   UNL     1     -10.662   7.214 127.190  0.00  0.00    +0.000 C 
ATOM     17  N   UNL     1     -12.140   6.887 126.913  0.00  0.00    +0.000 NA
ATOM     18  C   UNL     1     -13.110   6.942 128.107  0.00  0.00    +0.000 C 
ATOM     19  C   UNL     1     -12.741   8.027 129.137  0.00  0.00    +0.000 C 
ATOM     20  H   UNL     1     -12.175   5.933 126.544  0.00  0.00    +0.000 HD
ENDBRANCH  13  14
ENDBRANCH   4  13
TORSDOF 5
ENDMDL
MODEL 3
REMARK VINA RESULT:      -5.5      8.131     10.881
REMARK  Name = Trimetazidine
REMARK  8 active torsions:
REMARK  status: ('A' for Active; 'I' for Inactive)
REMARK    1  A    between atoms: C_1  and  O_2
REMARK    2  A    between atoms: O_2  and  C_3
REMARK    3  A    between atoms: C_4  and  O_5
REMARK    4  A    between atoms: O_5  and  C_6
REMARK    5  A    between atoms: C_7  and  O_8
REMARK    6  A    between atoms: O_8  and  C_9
REMARK    7  A    between atoms: C_10  and  C_11
REMARK    8  A    between atoms: C_11  and  N_12
REMARK                            x       y       z     vdW  Elec       q    Type
REMARK                         _______ _______ _______ _____ _____    ______ ____
ROOT
ATOM      1  C   UNL     1      -6.703  -2.009 123.852  0.00  0.00    +0.000 A 
ATOM      2  C   UNL     1      -8.095  -1.657 123.731  0.00  0.00    +0.000 A 
ATOM      3  C   UNL     1      -8.653  -0.331 124.114  0.00  0.00    +0.000 A 
ATOM      4  C   UNL     1      -7.837   0.549 124.790  0.00  0.00    +0.000 A 
ATOM      5  C   UNL     1      -6.593   0.022 124.831  0.00  0.00    +0.000 A 
ATOM      6  C   UNL     1      -5.915  -1.078 124.421  0.00  0.00    +0.000 A 
ENDROOT
BRANCH   1   8
ATOM      7  C   UNL     1      -4.884  -3.544 124.087  0.00  0.00    +0.000 C 
ATOM      8  O   UNL     1      -6.070  -3.125 123.384  0.00  0.00    +0.000 OA
ENDBRANCH   1   8
BRANCH   2   9
ATOM      9  O   UNL     1      -9.034  -2.589 123.329  0.00  0.00    +0.000 OA
ATOM     10  C   UNL     1      -9.399  -3.509 124.352  0.00  0.00    +0.000 C 
ENDBRANCH   2   9
BRANCH   3  11
ATOM     11  O   UNL     1      -9.949  -0.025 123.768  0.00  0.00    +0.000 OA
ATOM     12  C   UNL     1     -10.134   0.556 122.471  0.00  0.00    +0.000 C 
ENDBRANCH   3  11
BRANCH   4  13
ATOM     13  C   UNL     1      -8.024   1.916 125.489  0.00  0.00    +0.000 C 
BRANCH  13  14
ATOM     14  N   UNL     1      -8.344   3.201 124.768  0.00  0.00    +0.000 NA
ATOM     15  C   UNL     1      -8.029   4.468 125.455  0.00  0.00    +0.000 C 
ATOM     16  C   UNL     1      -6.555   4.901 125.363  0.00  0.00    +0.000 C 
ATOM     17  N   UNL     1      -5.978   4.771 123.943  0.00  0.00    +0.000 NA
ATOM     18  C   UNL     1      -6.495   3.611 123.075  0.00  0.00    +0.000 C 
ATOM     19  C   UNL     1      -7.974   3.269 123.338  0.00  0.00    +0.000 C 
ATOM     20  H   UNL     1      -4.967   4.646 124.037  0.00  0.00    +0.000 HD
ENDBRANCH  13  14
ENDBRANCH   4  13
TORSDOF 5
ENDMDL
MODEL 4
REMARK VINA RESULT:      -5.5      8.440     10.184
REMARK  Name = Trimetazidine
REMARK  8 active torsions:
REMARK  status: ('A' for Active; 'I' for Inactive)
REMARK    1  A    between atoms: C_1  and  O_2
REMARK    2  A    between atoms: O_2  and  C_3
REMARK    3  A    between atoms: C_4  and  O_5
REMARK    4  A    between atoms: O_5  and  C_6
REMARK    5  A    between atoms: C_7  and  O_8
REMARK    6  A    between atoms: O_8  and  C_9
REMARK    7  A    between atoms: C_10  and  C_11
REMARK    8  A    between atoms: C_11  and  N_12
REMARK                            x       y       z     vdW  Elec       q    Type
REMARK                         _______ _______ _______ _____ _____    ______ ____
ROOT
ATOM      1  C   UNL     1      -8.987  -2.790 126.442  0.00  0.00    +0.000 A 
ATOM      2  C   UNL     1      -7.922  -1.847 126.664  0.00  0.00    +0.000 A 
ATOM      3  C   UNL     1      -6.946  -1.944 127.784  0.00  0.00    +0.000 A 
ATOM      4  C   UNL     1      -7.176  -2.879 128.769  0.00  0.00    +0.000 A 
ATOM      5  C   UNL     1      -8.231  -3.635 128.394  0.00  0.00    +0.000 A 
ATOM      6  C   UNL     1      -9.113  -3.756 127.371  0.00  0.00    +0.000 A 
ENDROOT
BRANCH   1   8
ATOM      7  C   UNL     1      -9.244  -3.323 124.124  0.00  0.00    +0.000 C 
ATOM      8  O   UNL     1      -9.825  -2.880 125.367  0.00  0.00    +0.000 OA
ENDBRANCH   1   8
BRANCH   2   9
ATOM      9  O   UNL     1      -7.799  -0.712 125.884  0.00  0.00    +0.000 OA
ATOM     10  C   UNL     1      -8.735   0.310 126.212  0.00  0.00    +0.000 C 
ENDBRANCH   2   9
BRANCH   3  11
ATOM     11  O   UNL     1      -5.847  -1.117 127.789  0.00  0.00    +0.000 OA
ATOM     12  C   UNL     1      -5.906   0.003 128.682  0.00  0.00    +0.000 C 
ENDBRANCH   3  11
BRANCH   4  13
ATOM     13  C   UNL     1      -6.541  -3.223 130.138  0.00  0.00    +0.000 C 
BRANCH  13  14
ATOM     14  N   UNL     1      -5.269  -4.012 130.310  0.00  0.00    +0.000 NA
ATOM     15  C   UNL     1      -4.116  -3.645 129.467  0.00  0.00    +0.000 C 
ATOM     16  C   UNL     1      -3.312  -2.432 129.967  0.00  0.00    +0.000 C 
ATOM     17  N   UNL     1      -3.021  -2.486 131.477  0.00  0.00    +0.000 NA
ATOM     18  C   UNL     1      -4.091  -3.126 132.379  0.00  0.00    +0.000 C 
ATOM     19  C   UNL     1      -4.842  -4.286 131.699  0.00  0.00    +0.000 C 
ATOM     20  H   UNL     1      -2.900  -1.521 131.797  0.00  0.00    +0.000 HD
ENDBRANCH  13  14
ENDBRANCH   4  13
TORSDOF 5
ENDMDL
MODEL 5
REMARK VINA RESULT:      -5.4      3.305      6.418
REMARK  Name = Trimetazidine
REMARK  8 active torsions:
REMARK  status: ('A' for Active; 'I' for Inactive)
REMARK    1  A    between atoms: C_1  and  O_2
REMARK    2  A    between atoms: O_2  and  C_3
REMARK    3  A    between atoms: C_4  and  O_5
REMARK    4  A    between atoms: O_5  and  C_6
REMARK    5  A    between atoms: C_7  and  O_8
REMARK    6  A    between atoms: O_8  and  C_9
REMARK    7  A    between atoms: C_10  and  C_11
REMARK    8  A    between atoms: C_11  and  N_12
REMARK                            x       y       z     vdW  Elec       q    Type
REMARK                         _______ _______ _______ _____ _____    ______ ____
ROOT
ATOM      1  C   UNL     1      -8.406   2.360 130.843  0.00  0.00    +0.000 A 
ATOM      2  C   UNL     1      -7.829   3.591 130.367  0.00  0.00    +0.000 A 
ATOM      3  C   UNL     1      -8.599   4.851 130.176  0.00  0.00    +0.000 A 
ATOM      4  C   UNL     1      -9.972   4.798 130.284  0.00  0.00    +0.000 A 
ATOM      5  C   UNL     1     -10.313   3.559 130.701  0.00  0.00    +0.000 A 
ATOM      6  C   UNL     1      -9.737   2.379 131.040  0.00  0.00    +0.000 A 
ENDROOT
BRANCH   1   8
ATOM      7  C   UNL     1      -7.921   0.076 130.327  0.00  0.00    +0.000 C 
ATOM      8  O   UNL     1      -7.763   1.210 131.202  0.00  0.00    +0.000 OA
ENDBRANCH   1   8
BRANCH   2   9
ATOM      9  O   UNL     1      -6.509   3.650 129.958  0.00  0.00    +0.000 OA
ATOM     10  C   UNL     1      -6.305   3.201 128.623  0.00  0.00    +0.000 C 
ENDBRANCH   2   9
BRANCH   3  11
ATOM     11  O   UNL     1      -7.921   6.019 129.918  0.00  0.00    +0.000 OA
ATOM     12  C   UNL     1      -7.671   6.866 131.047  0.00  0.00    +0.000 C 
ENDBRANCH   3  11
BRANCH   4  13
ATOM     13  C   UNL     1     -11.140   5.780 130.029  0.00  0.00    +0.000 C 
BRANCH  13  14
ATOM     14  N   UNL     1     -11.577   6.244 128.663  0.00  0.00    +0.000 NA
ATOM     15  C   UNL     1     -12.941   6.786 128.529  0.00  0.00    +0.000 C 
ATOM     16  C   UNL     1     -13.098   8.253 128.967  0.00  0.00    +0.000 C 
ATOM     17  N   UNL     1     -11.982   9.164 128.426  0.00  0.00    +0.000 NA
ATOM     18  C   UNL     1     -10.579   8.549 128.280  0.00  0.00    +0.000 C 
ATOM     19  C   UNL     1     -10.608   7.057 127.897  0.00  0.00    +0.000 C 
ATOM     20  H   UNL     1     -11.896   9.953 129.071  0.00  0.00    +0.000 HD
ENDBRANCH  13  14
ENDBRANCH   4  13
TORSDOF 5
ENDMDL
MODEL 6
REMARK VINA RESULT:      -5.3      9.762     11.715
REMARK  Name = Trimetazidine
REMARK  8 active torsions:
REMARK  status: ('A' for Active; 'I' for Inactive)
REMARK    1  A    between atoms: C_1  and  O_2
REMARK    2  A    between atoms: O_2  and  C_3
REMARK    3  A    between atoms: C_4  and  O_5
REMARK    4  A    between atoms: O_5  and  C_6
REMARK    5  A    between atoms: C_7  and  O_8
REMARK    6  A    between atoms: O_8  and  C_9
REMARK    7  A    between atoms: C_10  and  C_11
REMARK    8  A    between atoms: C_11  and  N_12
REMARK                            x       y       z     vdW  Elec       q    Type
REMARK                         _______ _______ _______ _____ _____    ______ ____
ROOT
ATOM      1  C   UNL     1      -6.532  -3.089 130.200  0.00  0.00    +0.000 A 
ATOM      2  C   UNL     1      -5.698  -2.527 129.169  0.00  0.00    +0.000 A 
ATOM      3  C   UNL     1      -6.195  -2.124 127.825  0.00  0.00    +0.000 A 
ATOM      4  C   UNL     1      -7.482  -2.472 127.475  0.00  0.00    +0.000 A 
ATOM      5  C   UNL     1      -8.080  -3.015 128.559  0.00  0.00    +0.000 A 
ATOM      6  C   UNL     1      -7.813  -3.315 129.853  0.00  0.00    +0.000 A 
ENDROOT
BRANCH   1   8
ATOM      7  C   UNL     1      -7.038  -2.717 132.507  0.00  0.00    +0.000 C 
ATOM      8  O   UNL     1      -6.211  -3.338 131.504  0.00  0.00    +0.000 OA
ENDBRANCH   1   8
BRANCH   2   9
ATOM      9  O   UNL     1      -4.331  -2.413 129.340  0.00  0.00    +0.000 OA
ATOM     10  C   UNL     1      -3.625  -3.630 129.122  0.00  0.00    +0.000 C 
ENDBRANCH   2   9
BRANCH   3  11
ATOM     11  O   UNL     1      -5.368  -1.410 126.990  0.00  0.00    +0.000 OA
ATOM     12  C   UNL     1      -5.597   0.004 126.936  0.00  0.00    +0.000 C 
ENDBRANCH   3  11
BRANCH   4  13
ATOM     13  C   UNL     1      -8.335  -2.400 126.187  0.00  0.00    +0.000 C 
BRANCH  13  14
ATOM     14  N   UNL     1      -8.151  -3.303 124.994  0.00  0.00    +0.000 NA
ATOM     15  C   UNL     1      -9.152  -3.223 123.915  0.00  0.00    +0.000 C 
ATOM     16  C   UNL     1      -8.952  -2.054 122.934  0.00  0.00    +0.000 C 
ATOM     17  N   UNL     1      -7.491  -1.897 122.477  0.00  0.00    +0.000 NA
ATOM     18  C   UNL     1      -6.392  -2.245 123.496  0.00  0.00    +0.000 C 
ATOM     19  C   UNL     1      -6.783  -3.398 124.440  0.00  0.00    +0.000 C 
ATOM     20  H   UNL     1      -7.358  -0.917 122.218  0.00  0.00    +0.000 HD
ENDBRANCH  13  14
ENDBRANCH   4  13
TORSDOF 5
ENDMDL
MODEL 7
REMARK VINA RESULT:      -5.3      9.741     11.701
REMARK  Name = Trimetazidine
REMARK  8 active torsions:
REMARK  status: ('A' for Active; 'I' for Inactive)
REMARK    1  A    between atoms: C_1  and  O_2
REMARK    2  A    between atoms: O_2  and  C_3
REMARK    3  A    between atoms: C_4  and  O_5
REMARK    4  A    between atoms: O_5  and  C_6
REMARK    5  A    between atoms: C_7  and  O_8
REMARK    6  A    between atoms: O_8  and  C_9
REMARK    7  A    between atoms: C_10  and  C_11
REMARK    8  A    between atoms: C_11  and  N_12
REMARK                            x       y       z     vdW  Elec       q    Type
REMARK                         _______ _______ _______ _____ _____    ______ ____
ROOT
ATOM      1  C   UNL     1      -6.379  -3.082 130.472  0.00  0.00    +0.000 A 
ATOM      2  C   UNL     1      -5.554  -2.514 129.437  0.00  0.00    +0.000 A 
ATOM      3  C   UNL     1      -6.063  -2.106 128.098  0.00  0.00    +0.000 A 
ATOM      4  C   UNL     1      -7.352  -2.454 127.758  0.00  0.00    +0.000 A 
ATOM      5  C   UNL     1      -7.940  -3.003 128.844  0.00  0.00    +0.000 A 
ATOM      6  C   UNL     1      -7.663  -3.308 130.135  0.00  0.00    +0.000 A 
ENDROOT
BRANCH   1   8
ATOM      7  C   UNL     1      -5.498  -4.635 132.063  0.00  0.00    +0.000 C 
ATOM      8  O   UNL     1      -6.048  -3.335 131.773  0.00  0.00    +0.000 OA
ENDBRANCH   1   8
BRANCH   2   9
ATOM      9  O   UNL     1      -4.186  -2.399 129.597  0.00  0.00    +0.000 OA
ATOM     10  C   UNL     1      -3.463  -3.552 129.180  0.00  0.00    +0.000 C 
ENDBRANCH   2   9
BRANCH   3  11
ATOM     11  O   UNL     1      -5.244  -1.387 127.260  0.00  0.00    +0.000 OA
ATOM     12  C   UNL     1      -5.417   0.036 127.278  0.00  0.00    +0.000 C 
ENDBRANCH   3  11
BRANCH   4  13
ATOM     13  C   UNL     1      -8.216  -2.378 126.477  0.00  0.00    +0.000 C 
BRANCH  13  14
ATOM     14  N   UNL     1      -7.659  -2.366 125.076  0.00  0.00    +0.000 NA
ATOM     15  C   UNL     1      -8.150  -3.391 124.136  0.00  0.00    +0.000 C 
ATOM     16  C   UNL     1      -9.510  -3.075 123.490  0.00  0.00    +0.000 C 
ATOM     17  N   UNL     1      -9.612  -1.626 122.982  0.00  0.00    +0.000 NA
ATOM     18  C   UNL     1      -8.870  -0.543 123.785  0.00  0.00    +0.000 C 
ATOM     19  C   UNL     1      -7.558  -1.048 124.415  0.00  0.00    +0.000 C 
ATOM     20  H   UNL     1     -10.603  -1.373 122.984  0.00  0.00    +0.000 HD
ENDBRANCH  13  14
ENDBRANCH   4  13
TORSDOF 5
ENDMDL
MODEL 8
REMARK VINA RESULT:      -5.3      8.725     10.343
REMARK  Name = Trimetazidine
REMARK  8 active torsions:
REMARK  status: ('A' for Active; 'I' for Inactive)
REMARK    1  A    between atoms: C_1  and  O_2
REMARK    2  A    between atoms: O_2  and  C_3
REMARK    3  A    between atoms: C_4  and  O_5
REMARK    4  A    between atoms: O_5  and  C_6
REMARK    5  A    between atoms: C_7  and  O_8
REMARK    6  A    between atoms: O_8  and  C_9
REMARK    7  A    between atoms: C_10  and  C_11
REMARK    8  A    between atoms: C_11  and  N_12
REMARK                            x       y       z     vdW  Elec       q    Type
REMARK                         _______ _______ _______ _____ _____    ______ ____
ROOT
ATOM      1  C   UNL     1      -7.069   3.955 120.112  0.00  0.00    +0.000 A 
ATOM      2  C   UNL     1      -6.286   3.499 121.231  0.00  0.00    +0.000 A 
ATOM      3  C   UNL     1      -6.867   2.901 122.464  0.00  0.00    +0.000 A 
ATOM      4  C   UNL     1      -8.234   2.950 122.630  0.00  0.00    +0.000 A 
ATOM      5  C   UNL     1      -8.778   3.440 121.494  0.00  0.00    +0.000 A 
ATOM      6  C   UNL     1      -8.404   3.886 120.270  0.00  0.00    +0.000 A 
ENDROOT
BRANCH   1   8
ATOM      7  C   UNL     1      -6.108   5.702 118.791  0.00  0.00    +0.000 C 
ATOM      8  O   UNL     1      -6.631   4.363 118.884  0.00  0.00    +0.000 OA
ENDBRANCH   1   8
BRANCH   2   9
ATOM      9  O   UNL     1      -4.916   3.681 121.264  0.00  0.00    +0.000 OA
ATOM     10  C   UNL     1      -4.520   4.935 121.810  0.00  0.00    +0.000 C 
ENDBRANCH   2   9
BRANCH   3  11
ATOM     11  O   UNL     1      -6.030   2.309 123.382  0.00  0.00    +0.000 OA
ATOM     12  C   UNL     1      -5.900   2.981 124.641  0.00  0.00    +0.000 C 
ENDBRANCH   3  11
BRANCH   4  13
ATOM     13  C   UNL     1      -9.223   2.606 123.769  0.00  0.00    +0.000 C 
BRANCH  13  14
ATOM     14  N   UNL     1      -9.762   1.224 124.037  0.00  0.00    +0.000 NA
ATOM     15  C   UNL     1      -9.361   0.143 123.118  0.00  0.00    +0.000 C 
ATOM     16  C   UNL     1      -7.971  -0.456 123.394  0.00  0.00    +0.000 C 
ATOM     17  N   UNL     1      -7.729  -0.748 124.885  0.00  0.00    +0.000 NA
ATOM     18  C   UNL     1      -8.373   0.207 125.905  0.00  0.00    +0.000 C 
ATOM     19  C   UNL     1      -9.733   0.762 125.441  0.00  0.00    +0.000 C 
ATOM     20  H   UNL     1      -6.718  -0.713 125.041  0.00  0.00    +0.000 HD
ENDBRANCH  13  14
ENDBRANCH   4  13
TORSDOF 5
ENDMDL
MODEL 9
REMARK VINA RESULT:      -5.2      2.954      6.576
REMARK  Name = Trimetazidine
REMARK  8 active torsions:
REMARK  status: ('A' for Active; 'I' for Inactive)
REMARK    1  A    between atoms: C_1  and  O_2
REMARK    2  A    between atoms: O_2  and  C_3
REMARK    3  A    between atoms: C_4  and  O_5
REMARK    4  A    between atoms: O_5  and  C_6
REMARK    5  A    between atoms: C_7  and  O_8
REMARK    6  A    between atoms: O_8  and  C_9
REMARK    7  A    between atoms: C_10  and  C_11
REMARK    8  A    between atoms: C_11  and  N_12
REMARK                            x       y       z     vdW  Elec       q    Type
REMARK                         _______ _______ _______ _____ _____    ______ ____
ROOT
ATOM      1  C   UNL     1      -6.255   5.239 132.733  0.00  0.00    +0.000 A 
ATOM      2  C   UNL     1      -7.573   4.658 132.733  0.00  0.00    +0.000 A 
ATOM      3  C   UNL     1      -8.694   5.141 131.880  0.00  0.00    +0.000 A 
ATOM      4  C   UNL     1      -8.523   6.318 131.185  0.00  0.00    +0.000 A 
ATOM      5  C   UNL     1      -7.242   6.717 131.342  0.00  0.00    +0.000 A 
ATOM      6  C   UNL     1      -6.098   6.327 131.956  0.00  0.00    +0.000 A 
ENDROOT
BRANCH   1   8
ATOM      7  C   UNL     1      -4.636   5.538 134.468  0.00  0.00    +0.000 C 
ATOM      8  O   UNL     1      -5.128   4.775 133.349  0.00  0.00    +0.000 OA
ENDBRANCH   1   8
BRANCH   2   9
ATOM      9  O   UNL     1      -7.909   3.652 133.619  0.00  0.00    +0.000 OA
ATOM     10  C   UNL     1      -7.450   2.364 133.221  0.00  0.00    +0.000 C 
ENDBRANCH   2   9
BRANCH   3  11
ATOM     11  O   UNL     1      -9.846   4.393 131.801  0.00  0.00    +0.000 OA
ATOM     12  C   UNL     1      -9.936   3.490 130.691  0.00  0.00    +0.000 C 
ENDBRANCH   3  11
BRANCH   4  13
ATOM     13  C   UNL     1      -9.427   7.239 130.331  0.00  0.00    +0.000 C 
BRANCH  13  14
ATOM     14  N   UNL     1     -10.606   6.759 129.524  0.00  0.00    +0.000 NA
ATOM     15  C   UNL     1     -11.955   7.098 130.016  0.00  0.00    +0.000 C 
ATOM     16  C   UNL     1     -12.428   8.521 129.674  0.00  0.00    +0.000 C 
ATOM     17  N   UNL     1     -12.154   8.910 128.211  0.00  0.00    +0.000 NA
ATOM     18  C   UNL     1     -10.883   8.343 127.556  0.00  0.00    +0.000 C 
ATOM     19  C   UNL     1     -10.520   6.932 128.058  0.00  0.00    +0.000 C 
ATOM     20  H   UNL     1     -12.077   9.930 128.177  0.00  0.00    +0.000 HD
ENDBRANCH  13  14
ENDBRANCH   4  13
TORSDOF 5
ENDMDL
