MODEL 1
REMARK VINA RESULT:      -6.1      0.000      0.000
REMARK  Name = Trimebutine
REMARK  16 active torsions:
REMARK  status: ('A' for Active; 'I' for Inactive)
REMARK    1  A    between atoms: C_1  and  C_2
REMARK    2  A    between atoms: C_2  and  C_3
REMARK    3  A    between atoms: C_3  and  C_4
REMARK    4  A    between atoms: C_3  and  N_20
REMARK    5  A    between atoms: C_3  and  C_23
REMARK    6  A    between atoms: C_4  and  O_5
REMARK    7  A    between atoms: O_5  and  C_6
REMARK    8  A    between atoms: C_6  and  C_8
REMARK    9  A    between atoms: C_10  and  O_11
REMARK   10  A    between atoms: O_11  and  C_12
REMARK   11  A    between atoms: C_13  and  O_14
REMARK   12  A    between atoms: O_14  and  C_15
REMARK   13  A    between atoms: C_16  and  O_17
REMARK   14  A    between atoms: O_17  and  C_18
REMARK   15  A    between atoms: N_20  and  C_21
REMARK   16  A    between atoms: N_20  and  C_22
REMARK                            x       y       z     vdW  Elec       q    Type
REMARK                         _______ _______ _______ _____ _____    ______ ____
ROOT
ATOM      1  O   UNL     1      -8.924  -0.343 125.280  0.00  0.00    +0.000 OA
ENDROOT
BRANCH   1   2
ATOM      2  C   UNL     1      -9.535   0.864 125.121  0.00  0.00    +0.000 C 
ATOM      3  O   UNL     1     -10.499   1.080 124.419  0.00  0.00    +0.000 OA
BRANCH   2   4
ATOM      4  C   UNL     1      -8.845   1.921 125.917  0.00  0.00    +0.000 A 
ATOM      5  C   UNL     1      -8.322   3.054 125.280  0.00  0.00    +0.000 A 
ATOM      6  C   UNL     1      -7.433   3.907 125.961  0.00  0.00    +0.000 A 
ATOM      7  C   UNL     1      -7.179   3.701 127.336  0.00  0.00    +0.000 A 
ATOM      8  C   UNL     1      -7.722   2.568 127.968  0.00  0.00    +0.000 A 
ATOM      9  C   UNL     1      -8.561   1.698 127.263  0.00  0.00    +0.000 A 
BRANCH   6  10
ATOM     10  O   UNL     1      -6.843   4.863 125.158  0.00  0.00    +0.000 OA
ATOM     11  C   UNL     1      -5.890   4.412 124.192  0.00  0.00    +0.000 C 
ENDBRANCH   6  10
BRANCH   7  12
ATOM     12  O   UNL     1      -6.417   4.654 127.960  0.00  0.00    +0.000 OA
ATOM     13  C   UNL     1      -5.009   4.544 128.038  0.00  0.00    +0.000 C 
ENDBRANCH   7  12
BRANCH   8  14
ATOM     14  O   UNL     1      -7.340   2.335 129.259  0.00  0.00    +0.000 OA
ATOM     15  C   UNL     1      -6.524   1.217 129.539  0.00  0.00    +0.000 C 
ENDBRANCH   8  14
ENDBRANCH   2   4
ENDBRANCH   1   2
BRANCH   1  16
ATOM     16  C   UNL     1      -7.691  -0.490 124.536  0.00  0.00    +0.000 C 
BRANCH  16  17
ATOM     17  C   UNL     1      -6.722  -1.600 125.116  0.00  0.00    +0.000 C 
BRANCH  17  18
ATOM     18  C   UNL     1      -7.383  -2.319 126.353  0.00  0.00    +0.000 A 
ATOM     19  C   UNL     1      -8.397  -3.283 126.217  0.00  0.00    +0.000 A 
ATOM     20  C   UNL     1      -9.029  -3.851 127.322  0.00  0.00    +0.000 A 
ATOM     21  C   UNL     1      -8.586  -3.553 128.602  0.00  0.00    +0.000 A 
ATOM     22  C   UNL     1      -7.565  -2.628 128.778  0.00  0.00    +0.000 A 
ATOM     23  C   UNL     1      -7.005  -1.986 127.671  0.00  0.00    +0.000 A 
ENDBRANCH  17  18
BRANCH  17  24
ATOM     24  N   UNL     1      -6.379  -2.638 124.059  0.00  0.00    +0.000 NA
ATOM     25  C   UNL     1      -6.282  -2.069 122.705  0.00  0.00    +0.000 C 
ATOM     26  C   UNL     1      -5.151  -3.402 124.271  0.00  0.00    +0.000 C 
ENDBRANCH  17  24
BRANCH  17  28
ATOM     27  C   UNL     1      -5.409   0.623 125.750  0.00  0.00    +0.000 C 
ATOM     28  C   UNL     1      -5.433  -0.905 125.707  0.00  0.00    +0.000 C 
ENDBRANCH  17  28
ENDBRANCH  16  17
ENDBRANCH   1  16
TORSDOF 10
ENDMDL
MODEL 2
REMARK VINA RESULT:      -6.1      2.466      5.706
REMARK  Name = Trimebutine
REMARK  16 active torsions:
REMARK  status: ('A' for Active; 'I' for Inactive)
REMARK    1  A    between atoms: C_1  and  C_2
REMARK    2  A    between atoms: C_2  and  C_3
REMARK    3  A    between atoms: C_3  and  C_4
REMARK    4  A    between atoms: C_3  and  N_20
REMARK    5  A    between atoms: C_3  and  C_23
REMARK    6  A    between atoms: C_4  and  O_5
REMARK    7  A    between atoms: O_5  and  C_6
REMARK    8  A    between atoms: C_6  and  C_8
REMARK    9  A    between atoms: C_10  and  O_11
REMARK   10  A    between atoms: O_11  and  C_12
REMARK   11  A    between atoms: C_13  and  O_14
REMARK   12  A    between atoms: O_14  and  C_15
REMARK   13  A    between atoms: C_16  and  O_17
REMARK   14  A    between atoms: O_17  and  C_18
REMARK   15  A    between atoms: N_20  and  C_21
REMARK   16  A    between atoms: N_20  and  C_22
REMARK                            x       y       z     vdW  Elec       q    Type
REMARK                         _______ _______ _______ _____ _____    ______ ____
ROOT
ATOM      1  O   UNL     1      -5.260  -0.020 127.606  0.00  0.00    +0.000 OA
ENDROOT
BRANCH   1   2
ATOM      2  C   UNL     1      -5.143   0.573 126.385  0.00  0.00    +0.000 C 
ATOM      3  O   UNL     1      -4.525   1.589 126.151  0.00  0.00    +0.000 OA
BRANCH   2   4
ATOM      4  C   UNL     1      -5.905  -0.183 125.349  0.00  0.00    +0.000 A 
ATOM      5  C   UNL     1      -7.094   0.343 124.825  0.00  0.00    +0.000 A 
ATOM      6  C   UNL     1      -7.960  -0.471 124.071  0.00  0.00    +0.000 A 
ATOM      7  C   UNL     1      -7.563  -1.781 123.720  0.00  0.00    +0.000 A 
ATOM      8  C   UNL     1      -6.360  -2.292 124.240  0.00  0.00    +0.000 A 
ATOM      9  C   UNL     1      -5.534  -1.489 125.034  0.00  0.00    +0.000 A 
BRANCH   6  10
ATOM     10  O   UNL     1      -9.179   0.113 123.790  0.00  0.00    +0.000 OA
ATOM     11  C   UNL     1      -9.426   1.412 124.336  0.00  0.00    +0.000 C 
ENDBRANCH   6  10
BRANCH   7  12
ATOM     12  O   UNL     1      -8.396  -2.459 122.868  0.00  0.00    +0.000 OA
ATOM     13  C   UNL     1      -9.451  -3.269 123.351  0.00  0.00    +0.000 C 
ENDBRANCH   7  12
BRANCH   8  14
ATOM     14  O   UNL     1      -6.084  -3.606 123.987  0.00  0.00    +0.000 OA
ATOM     15  C   UNL     1      -4.736  -4.012 123.874  0.00  0.00    +0.000 C 
ENDBRANCH   8  14
ENDBRANCH   2   4
ENDBRANCH   1   2
BRANCH   1  16
ATOM     16  C   UNL     1      -5.765   0.852 128.646  0.00  0.00    +0.000 C 
BRANCH  16  17
ATOM     17  C   UNL     1      -7.237   0.504 129.115  0.00  0.00    +0.000 C 
BRANCH  17  18
ATOM     18  C   UNL     1      -7.549  -1.022 128.868  0.00  0.00    +0.000 A 
ATOM     19  C   UNL     1      -8.124  -1.494 127.675  0.00  0.00    +0.000 A 
ATOM     20  C   UNL     1      -8.471  -2.833 127.501  0.00  0.00    +0.000 A 
ATOM     21  C   UNL     1      -8.147  -3.764 128.477  0.00  0.00    +0.000 A 
ATOM     22  C   UNL     1      -7.550  -3.342 129.658  0.00  0.00    +0.000 A 
ATOM     23  C   UNL     1      -7.299  -1.984 129.868  0.00  0.00    +0.000 A 
ENDBRANCH  17  18
BRANCH  17  24
ATOM     24  N   UNL     1      -7.436   0.822 130.588  0.00  0.00    +0.000 NA
ATOM     25  C   UNL     1      -6.489   1.830 131.091  0.00  0.00    +0.000 C 
ATOM     26  C   UNL     1      -8.768   1.280 130.981  0.00  0.00    +0.000 C 
ENDBRANCH  17  24
BRANCH  17  28
ATOM     27  C   UNL     1      -7.862   2.649 127.675  0.00  0.00    +0.000 C 
ATOM     28  C   UNL     1      -8.268   1.269 128.196  0.00  0.00    +0.000 C 
ENDBRANCH  17  28
ENDBRANCH  16  17
ENDBRANCH   1  16
TORSDOF 10
ENDMDL
MODEL 3
REMARK VINA RESULT:      -6.1      4.265      7.973
REMARK  Name = Trimebutine
REMARK  16 active torsions:
REMARK  status: ('A' for Active; 'I' for Inactive)
REMARK    1  A    between atoms: C_1  and  C_2
REMARK    2  A    between atoms: C_2  and  C_3
REMARK    3  A    between atoms: C_3  and  C_4
REMARK    4  A    between atoms: C_3  and  N_20
REMARK    5  A    between atoms: C_3  and  C_23
REMARK    6  A    between atoms: C_4  and  O_5
REMARK    7  A    between atoms: O_5  and  C_6
REMARK    8  A    between atoms: C_6  and  C_8
REMARK    9  A    between atoms: C_10  and  O_11
REMARK   10  A    between atoms: O_11  and  C_12
REMARK   11  A    between atoms: C_13  and  O_14
REMARK   12  A    between atoms: O_14  and  C_15
REMARK   13  A    between atoms: C_16  and  O_17
REMARK   14  A    between atoms: O_17  and  C_18
REMARK   15  A    between atoms: N_20  and  C_21
REMARK   16  A    between atoms: N_20  and  C_22
REMARK                            x       y       z     vdW  Elec       q    Type
REMARK                         _______ _______ _______ _____ _____    ______ ____
ROOT
ATOM      1  O   UNL     1      -8.649   4.951 128.115  0.00  0.00    +0.000 OA
ENDROOT
BRANCH   1   2
ATOM      2  C   UNL     1      -7.508   4.493 127.528  0.00  0.00    +0.000 C 
ATOM      3  O   UNL     1      -6.394   4.936 127.708  0.00  0.00    +0.000 OA
BRANCH   2   4
ATOM      4  C   UNL     1      -7.803   3.367 126.594  0.00  0.00    +0.000 A 
ATOM      5  C   UNL     1      -8.084   3.625 125.246  0.00  0.00    +0.000 A 
ATOM      6  C   UNL     1      -8.635   2.619 124.428  0.00  0.00    +0.000 A 
ATOM      7  C   UNL     1      -8.773   1.306 124.930  0.00  0.00    +0.000 A 
ATOM      8  C   UNL     1      -8.473   1.056 126.282  0.00  0.00    +0.000 A 
ATOM      9  C   UNL     1      -7.977   2.079 127.098  0.00  0.00    +0.000 A 
BRANCH   6  10
ATOM     10  O   UNL     1      -9.045   3.065 123.187  0.00  0.00    +0.000 OA
ATOM     11  C   UNL     1      -8.053   3.155 122.161  0.00  0.00    +0.000 C 
ENDBRANCH   6  10
BRANCH   7  12
ATOM     12  O   UNL     1      -9.184   0.355 124.033  0.00  0.00    +0.000 OA
ATOM     13  C   UNL     1      -8.257  -0.438 123.316  0.00  0.00    +0.000 C 
ENDBRANCH   7  12
BRANCH   8  14
ATOM     14  O   UNL     1      -8.751  -0.194 126.758  0.00  0.00    +0.000 OA
ATOM     15  C   UNL     1      -7.683  -1.086 127.002  0.00  0.00    +0.000 C 
ENDBRANCH   8  14
ENDBRANCH   2   4
ENDBRANCH   1   2
BRANCH   1  16
ATOM     16  C   UNL     1      -8.741   4.678 129.533  0.00  0.00    +0.000 C 
BRANCH  16  17
ATOM     17  C   UNL     1      -9.469   5.816 130.359  0.00  0.00    +0.000 C 
BRANCH  17  18
ATOM     18  C   UNL     1     -10.529   6.559 129.459  0.00  0.00    +0.000 A 
ATOM     19  C   UNL     1     -10.239   7.751 128.773  0.00  0.00    +0.000 A 
ATOM     20  C   UNL     1     -11.209   8.442 128.048  0.00  0.00    +0.000 A 
ATOM     21  C   UNL     1     -12.474   7.898 127.893  0.00  0.00    +0.000 A 
ATOM     22  C   UNL     1     -12.792   6.705 128.530  0.00  0.00    +0.000 A 
ATOM     23  C   UNL     1     -11.847   6.071 129.339  0.00  0.00    +0.000 A 
ENDBRANCH  17  18
BRANCH  17  24
ATOM     24  N   UNL     1     -10.165   5.247 131.586  0.00  0.00    +0.000 NA
ATOM     25  C   UNL     1      -9.550   4.000 132.068  0.00  0.00    +0.000 C 
ATOM     26  C   UNL     1     -10.264   6.131 132.746  0.00  0.00    +0.000 C 
ENDBRANCH  17  24
BRANCH  17  28
ATOM     27  C   UNL     1      -6.985   6.491 131.023  0.00  0.00    +0.000 C 
ATOM     28  C   UNL     1      -8.420   6.934 130.735  0.00  0.00    +0.000 C 
ENDBRANCH  17  28
ENDBRANCH  16  17
ENDBRANCH   1  16
TORSDOF 10
ENDMDL
MODEL 4
REMARK VINA RESULT:      -6.0      2.163      4.194
REMARK  Name = Trimebutine
REMARK  16 active torsions:
REMARK  status: ('A' for Active; 'I' for Inactive)
REMARK    1  A    between atoms: C_1  and  C_2
REMARK    2  A    between atoms: C_2  and  C_3
REMARK    3  A    between atoms: C_3  and  C_4
REMARK    4  A    between atoms: C_3  and  N_20
REMARK    5  A    between atoms: C_3  and  C_23
REMARK    6  A    between atoms: C_4  and  O_5
REMARK    7  A    between atoms: O_5  and  C_6
REMARK    8  A    between atoms: C_6  and  C_8
REMARK    9  A    between atoms: C_10  and  O_11
REMARK   10  A    between atoms: O_11  and  C_12
REMARK   11  A    between atoms: C_13  and  O_14
REMARK   12  A    between atoms: O_14  and  C_15
REMARK   13  A    between atoms: C_16  and  O_17
REMARK   14  A    between atoms: O_17  and  C_18
REMARK   15  A    between atoms: N_20  and  C_21
REMARK   16  A    between atoms: N_20  and  C_22
REMARK                            x       y       z     vdW  Elec       q    Type
REMARK                         _______ _______ _______ _____ _____    ______ ____
ROOT
ATOM      1  O   UNL     1      -7.469  -0.059 126.350  0.00  0.00    +0.000 OA
ENDROOT
BRANCH   1   2
ATOM      2  C   UNL     1      -6.242   0.194 126.886  0.00  0.00    +0.000 C 
ATOM      3  O   UNL     1      -5.503  -0.632 127.377  0.00  0.00    +0.000 OA
BRANCH   2   4
ATOM      4  C   UNL     1      -5.917   1.648 126.814  0.00  0.00    +0.000 A 
ATOM      5  C   UNL     1      -4.699   2.072 126.266  0.00  0.00    +0.000 A 
ATOM      6  C   UNL     1      -4.259   3.398 126.447  0.00  0.00    +0.000 A 
ATOM      7  C   UNL     1      -5.113   4.341 127.061  0.00  0.00    +0.000 A 
ATOM      8  C   UNL     1      -6.340   3.906 127.595  0.00  0.00    +0.000 A 
ATOM      9  C   UNL     1      -6.741   2.572 127.455  0.00  0.00    +0.000 A 
BRANCH   6  10
ATOM     10  O   UNL     1      -2.962   3.622 126.031  0.00  0.00    +0.000 OA
ATOM     11  C   UNL     1      -1.910   3.125 126.862  0.00  0.00    +0.000 C 
ENDBRANCH   6  10
BRANCH   7  12
ATOM     12  O   UNL     1      -4.672   5.638 127.075  0.00  0.00    +0.000 OA
ATOM     13  C   UNL     1      -3.838   6.128 128.107  0.00  0.00    +0.000 C 
ENDBRANCH   7  12
BRANCH   8  14
ATOM     14  O   UNL     1      -7.070   4.822 128.299  0.00  0.00    +0.000 OA
ATOM     15  C   UNL     1      -7.269   4.620 129.683  0.00  0.00    +0.000 C 
ENDBRANCH   8  14
ENDBRANCH   2   4
ENDBRANCH   1   2
BRANCH   1  16
ATOM     16  C   UNL     1      -7.569  -1.329 125.663  0.00  0.00    +0.000 C 
BRANCH  16  17
ATOM     17  C   UNL     1      -7.514  -1.210 124.085  0.00  0.00    +0.000 C 
BRANCH  17  18
ATOM     18  C   UNL     1      -7.884   0.253 123.628  0.00  0.00    +0.000 A 
ATOM     19  C   UNL     1      -9.212   0.678 123.449  0.00  0.00    +0.000 A 
ATOM     20  C   UNL     1      -9.522   1.948 122.966  0.00  0.00    +0.000 A 
ATOM     21  C   UNL     1      -8.512   2.874 122.755  0.00  0.00    +0.000 A 
ATOM     22  C   UNL     1      -7.187   2.503 122.950  0.00  0.00    +0.000 A 
ATOM     23  C   UNL     1      -6.877   1.197 123.335  0.00  0.00    +0.000 A 
ENDBRANCH  17  18
BRANCH  17  24
ATOM     24  N   UNL     1      -6.134  -1.566 123.553  0.00  0.00    +0.000 NA
ATOM     25  C   UNL     1      -5.405  -2.497 124.429  0.00  0.00    +0.000 C 
ATOM     26  C   UNL     1      -6.083  -2.142 122.210  0.00  0.00    +0.000 C 
ENDBRANCH  17  24
BRANCH  17  28
ATOM     27  C   UNL     1      -9.172  -3.277 124.301  0.00  0.00    +0.000 C 
ATOM     28  C   UNL     1      -8.645  -2.115 123.457  0.00  0.00    +0.000 C 
ENDBRANCH  17  28
ENDBRANCH  16  17
ENDBRANCH   1  16
TORSDOF 10
ENDMDL
MODEL 5
REMARK VINA RESULT:      -6.0      2.134      3.709
REMARK  Name = Trimebutine
REMARK  16 active torsions:
REMARK  status: ('A' for Active; 'I' for Inactive)
REMARK    1  A    between atoms: C_1  and  C_2
REMARK    2  A    between atoms: C_2  and  C_3
REMARK    3  A    between atoms: C_3  and  C_4
REMARK    4  A    between atoms: C_3  and  N_20
REMARK    5  A    between atoms: C_3  and  C_23
REMARK    6  A    between atoms: C_4  and  O_5
REMARK    7  A    between atoms: O_5  and  C_6
REMARK    8  A    between atoms: C_6  and  C_8
REMARK    9  A    between atoms: C_10  and  O_11
REMARK   10  A    between atoms: O_11  and  C_12
REMARK   11  A    between atoms: C_13  and  O_14
REMARK   12  A    between atoms: O_14  and  C_15
REMARK   13  A    between atoms: C_16  and  O_17
REMARK   14  A    between atoms: O_17  and  C_18
REMARK   15  A    between atoms: N_20  and  C_21
REMARK   16  A    between atoms: N_20  and  C_22
REMARK                            x       y       z     vdW  Elec       q    Type
REMARK                         _______ _______ _______ _____ _____    ______ ____
ROOT
ATOM      1  O   UNL     1      -8.615   0.299 126.620  0.00  0.00    +0.000 OA
ENDROOT
BRANCH   1   2
ATOM      2  C   UNL     1      -8.570   1.595 127.036  0.00  0.00    +0.000 C 
ATOM      3  O   UNL     1      -8.614   2.570 126.316  0.00  0.00    +0.000 OA
BRANCH   2   4
ATOM      4  C   UNL     1      -8.433   1.676 128.519  0.00  0.00    +0.000 A 
ATOM      5  C   UNL     1      -7.831   0.628 129.229  0.00  0.00    +0.000 A 
ATOM      6  C   UNL     1      -7.948   0.558 130.631  0.00  0.00    +0.000 A 
ATOM      7  C   UNL     1      -8.552   1.622 131.338  0.00  0.00    +0.000 A 
ATOM      8  C   UNL     1      -9.140   2.676 130.614  0.00  0.00    +0.000 A 
ATOM      9  C   UNL     1      -9.063   2.705 129.217  0.00  0.00    +0.000 A 
BRANCH   6  10
ATOM     10  O   UNL     1      -7.483  -0.622 131.176  0.00  0.00    +0.000 OA
ATOM     11  C   UNL     1      -6.076  -0.725 131.416  0.00  0.00    +0.000 C 
ENDBRANCH   6  10
BRANCH   7  12
ATOM     12  O   UNL     1      -8.502   1.547 132.705  0.00  0.00    +0.000 OA
ATOM     13  C   UNL     1      -7.459   2.153 133.444  0.00  0.00    +0.000 C 
ENDBRANCH   7  12
BRANCH   8  14
ATOM     14  O   UNL     1      -9.831   3.611 131.331  0.00  0.00    +0.000 OA
ATOM     15  C   UNL     1     -10.719   4.474 130.653  0.00  0.00    +0.000 C 
ENDBRANCH   8  14
ENDBRANCH   2   4
ENDBRANCH   1   2
BRANCH   1  16
ATOM     16  C   UNL     1      -7.792   0.015 125.464  0.00  0.00    +0.000 C 
BRANCH  16  17
ATOM     17  C   UNL     1      -6.856  -1.250 125.640  0.00  0.00    +0.000 C 
BRANCH  17  18
ATOM     18  C   UNL     1      -7.443  -2.224 126.731  0.00  0.00    +0.000 A 
ATOM     19  C   UNL     1      -8.613  -2.977 126.526  0.00  0.00    +0.000 A 
ATOM     20  C   UNL     1      -9.166  -3.771 127.529  0.00  0.00    +0.000 A 
ATOM     21  C   UNL     1      -8.500  -3.926 128.735  0.00  0.00    +0.000 A 
ATOM     22  C   UNL     1      -7.323  -3.224 128.966  0.00  0.00    +0.000 A 
ATOM     23  C   UNL     1      -6.829  -2.350 127.996  0.00  0.00    +0.000 A 
ENDBRANCH  17  18
BRANCH  17  24
ATOM     24  N   UNL     1      -6.697  -2.005 124.329  0.00  0.00    +0.000 NA
ATOM     25  C   UNL     1      -6.749  -1.125 123.150  0.00  0.00    +0.000 C 
ATOM     26  C   UNL     1      -5.487  -2.812 124.185  0.00  0.00    +0.000 C 
ENDBRANCH  17  24
BRANCH  17  28
ATOM     27  C   UNL     1      -5.131   0.703 126.167  0.00  0.00    +0.000 C 
ATOM     28  C   UNL     1      -5.467  -0.788 126.232  0.00  0.00    +0.000 C 
ENDBRANCH  17  28
ENDBRANCH  16  17
ENDBRANCH   1  16
TORSDOF 10
ENDMDL
MODEL 6
REMARK VINA RESULT:      -5.9      3.372      5.461
REMARK  Name = Trimebutine
REMARK  16 active torsions:
REMARK  status: ('A' for Active; 'I' for Inactive)
REMARK    1  A    between atoms: C_1  and  C_2
REMARK    2  A    between atoms: C_2  and  C_3
REMARK    3  A    between atoms: C_3  and  C_4
REMARK    4  A    between atoms: C_3  and  N_20
REMARK    5  A    between atoms: C_3  and  C_23
REMARK    6  A    between atoms: C_4  and  O_5
REMARK    7  A    between atoms: O_5  and  C_6
REMARK    8  A    between atoms: C_6  and  C_8
REMARK    9  A    between atoms: C_10  and  O_11
REMARK   10  A    between atoms: O_11  and  C_12
REMARK   11  A    between atoms: C_13  and  O_14
REMARK   12  A    between atoms: O_14  and  C_15
REMARK   13  A    between atoms: C_16  and  O_17
REMARK   14  A    between atoms: O_17  and  C_18
REMARK   15  A    between atoms: N_20  and  C_21
REMARK   16  A    between atoms: N_20  and  C_22
REMARK                            x       y       z     vdW  Elec       q    Type
REMARK                         _______ _______ _______ _____ _____    ______ ____
ROOT
ATOM      1  O   UNL     1      -7.544  -1.229 131.194  0.00  0.00    +0.000 OA
ENDROOT
BRANCH   1   2
ATOM      2  C   UNL     1      -7.715  -0.368 132.237  0.00  0.00    +0.000 C 
ATOM      3  O   UNL     1      -7.369  -0.569 133.381  0.00  0.00    +0.000 OA
BRANCH   2   4
ATOM      4  C   UNL     1      -8.417   0.872 131.796  0.00  0.00    +0.000 A 
ATOM      5  C   UNL     1      -8.621   1.119 130.432  0.00  0.00    +0.000 A 
ATOM      6  C   UNL     1      -9.019   2.397 129.992  0.00  0.00    +0.000 A 
ATOM      7  C   UNL     1      -9.351   3.392 130.938  0.00  0.00    +0.000 A 
ATOM      8  C   UNL     1      -9.155   3.127 132.306  0.00  0.00    +0.000 A 
ATOM      9  C   UNL     1      -8.708   1.869 132.726  0.00  0.00    +0.000 A 
BRANCH   6  10
ATOM     10  O   UNL     1      -8.989   2.553 128.620  0.00  0.00    +0.000 OA
ATOM     11  C   UNL     1      -8.350   1.527 127.856  0.00  0.00    +0.000 C 
ENDBRANCH   6  10
BRANCH   7  12
ATOM     12  O   UNL     1      -9.863   4.559 130.434  0.00  0.00    +0.000 OA
ATOM     13  C   UNL     1      -9.031   5.656 130.112  0.00  0.00    +0.000 C 
ENDBRANCH   7  12
BRANCH   8  14
ATOM     14  O   UNL     1      -9.359   4.162 133.173  0.00  0.00    +0.000 OA
ATOM     15  C   UNL     1      -8.496   4.304 134.282  0.00  0.00    +0.000 C 
ENDBRANCH   8  14
ENDBRANCH   2   4
ENDBRANCH   1   2
BRANCH   1  16
ATOM     16  C   UNL     1      -6.683  -2.355 131.486  0.00  0.00    +0.000 C 
BRANCH  16  17
ATOM     17  C   UNL     1      -6.035  -3.015 130.200  0.00  0.00    +0.000 C 
BRANCH  17  18
ATOM     18  C   UNL     1      -7.048  -2.981 128.992  0.00  0.00    +0.000 A 
ATOM     19  C   UNL     1      -8.150  -3.850 128.903  0.00  0.00    +0.000 A 
ATOM     20  C   UNL     1      -8.990  -3.865 127.790  0.00  0.00    +0.000 A 
ATOM     21  C   UNL     1      -8.818  -2.930 126.781  0.00  0.00    +0.000 A 
ATOM     22  C   UNL     1      -7.759  -2.034 126.847  0.00  0.00    +0.000 A 
ATOM     23  C   UNL     1      -6.860  -2.091 127.914  0.00  0.00    +0.000 A 
ENDBRANCH  17  18
BRANCH  17  24
ATOM     24  N   UNL     1      -4.754  -2.300 129.799  0.00  0.00    +0.000 NA
ATOM     25  C   UNL     1      -4.185  -1.488 130.887  0.00  0.00    +0.000 C 
ATOM     26  C   UNL     1      -3.667  -3.141 129.303  0.00  0.00    +0.000 C 
ENDBRANCH  17  24
BRANCH  17  28
ATOM     27  C   UNL     1      -5.453  -4.974 131.900  0.00  0.00    +0.000 C 
ATOM     28  C   UNL     1      -5.798  -4.552 130.471  0.00  0.00    +0.000 C 
ENDBRANCH  17  28
ENDBRANCH  16  17
ENDBRANCH   1  16
TORSDOF 10
ENDMDL
MODEL 7
REMARK VINA RESULT:      -5.9      2.005      4.353
REMARK  Name = Trimebutine
REMARK  16 active torsions:
REMARK  status: ('A' for Active; 'I' for Inactive)
REMARK    1  A    between atoms: C_1  and  C_2
REMARK    2  A    between atoms: C_2  and  C_3
REMARK    3  A    between atoms: C_3  and  C_4
REMARK    4  A    between atoms: C_3  and  N_20
REMARK    5  A    between atoms: C_3  and  C_23
REMARK    6  A    between atoms: C_4  and  O_5
REMARK    7  A    between atoms: O_5  and  C_6
REMARK    8  A    between atoms: C_6  and  C_8
REMARK    9  A    between atoms: C_10  and  O_11
REMARK   10  A    between atoms: O_11  and  C_12
REMARK   11  A    between atoms: C_13  and  O_14
REMARK   12  A    between atoms: O_14  and  C_15
REMARK   13  A    between atoms: C_16  and  O_17
REMARK   14  A    between atoms: O_17  and  C_18
REMARK   15  A    between atoms: N_20  and  C_21
REMARK   16  A    between atoms: N_20  and  C_22
REMARK                            x       y       z     vdW  Elec       q    Type
REMARK                         _______ _______ _______ _____ _____    ______ ____
ROOT
ATOM      1  O   UNL     1      -6.683   0.434 128.730  0.00  0.00    +0.000 OA
ENDROOT
BRANCH   1   2
ATOM      2  C   UNL     1      -7.834   1.146 128.575  0.00  0.00    +0.000 C 
ATOM      3  O   UNL     1      -8.640   1.384 129.448  0.00  0.00    +0.000 OA
BRANCH   2   4
ATOM      4  C   UNL     1      -7.999   1.592 127.161  0.00  0.00    +0.000 A 
ATOM      5  C   UNL     1      -7.532   2.850 126.759  0.00  0.00    +0.000 A 
ATOM      6  C   UNL     1      -7.926   3.395 125.522  0.00  0.00    +0.000 A 
ATOM      7  C   UNL     1      -8.681   2.613 124.620  0.00  0.00    +0.000 A 
ATOM      8  C   UNL     1      -9.132   1.344 125.030  0.00  0.00    +0.000 A 
ATOM      9  C   UNL     1      -8.777   0.837 126.284  0.00  0.00    +0.000 A 
BRANCH   6  10
ATOM     10  O   UNL     1      -7.556   4.714 125.344  0.00  0.00    +0.000 OA
ATOM     11  C   UNL     1      -6.158   4.996 125.247  0.00  0.00    +0.000 C 
ENDBRANCH   6  10
BRANCH   7  12
ATOM     12  O   UNL     1      -8.905   3.160 123.384  0.00  0.00    +0.000 OA
ATOM     13  C   UNL     1      -7.952   3.057 122.343  0.00  0.00    +0.000 C 
ENDBRANCH   7  12
BRANCH   8  14
ATOM     14  O   UNL     1      -9.972   0.681 124.180  0.00  0.00    +0.000 OA
ATOM     15  C   UNL     1      -9.420  -0.194 123.218  0.00  0.00    +0.000 C 
ENDBRANCH   8  14
ENDBRANCH   2   4
ENDBRANCH   1   2
BRANCH   1  16
ATOM     16  C   UNL     1      -6.787  -0.670 129.660  0.00  0.00    +0.000 C 
BRANCH  16  17
ATOM     17  C   UNL     1      -6.217  -2.036 129.098  0.00  0.00    +0.000 C 
BRANCH  17  18
ATOM     18  C   UNL     1      -6.748  -2.297 127.637  0.00  0.00    +0.000 A 
ATOM     19  C   UNL     1      -5.962  -2.074 126.493  0.00  0.00    +0.000 A 
ATOM     20  C   UNL     1      -6.471  -2.231 125.205  0.00  0.00    +0.000 A 
ATOM     21  C   UNL     1      -7.753  -2.726 125.022  0.00  0.00    +0.000 A 
ATOM     22  C   UNL     1      -8.552  -2.989 126.128  0.00  0.00    +0.000 A 
ATOM     23  C   UNL     1      -8.072  -2.732 127.414  0.00  0.00    +0.000 A 
ENDBRANCH  17  18
BRANCH  17  24
ATOM     24  N   UNL     1      -4.696  -2.035 129.084  0.00  0.00    +0.000 NA
ATOM     25  C   UNL     1      -4.113  -1.162 130.116  0.00  0.00    +0.000 C 
ATOM     26  C   UNL     1      -4.042  -3.335 129.229  0.00  0.00    +0.000 C 
ENDBRANCH  17  24
BRANCH  17  28
ATOM     27  C   UNL     1      -7.356  -2.907 131.336  0.00  0.00    +0.000 C 
ATOM     28  C   UNL     1      -6.802  -3.231 129.948  0.00  0.00    +0.000 C 
ENDBRANCH  17  28
ENDBRANCH  16  17
ENDBRANCH   1  16
TORSDOF 10
ENDMDL
MODEL 8
REMARK VINA RESULT:      -5.8      2.348      4.622
REMARK  Name = Trimebutine
REMARK  16 active torsions:
REMARK  status: ('A' for Active; 'I' for Inactive)
REMARK    1  A    between atoms: C_1  and  C_2
REMARK    2  A    between atoms: C_2  and  C_3
REMARK    3  A    between atoms: C_3  and  C_4
REMARK    4  A    between atoms: C_3  and  N_20
REMARK    5  A    between atoms: C_3  and  C_23
REMARK    6  A    between atoms: C_4  and  O_5
REMARK    7  A    between atoms: O_5  and  C_6
REMARK    8  A    between atoms: C_6  and  C_8
REMARK    9  A    between atoms: C_10  and  O_11
REMARK   10  A    between atoms: O_11  and  C_12
REMARK   11  A    between atoms: C_13  and  O_14
REMARK   12  A    between atoms: O_14  and  C_15
REMARK   13  A    between atoms: C_16  and  O_17
REMARK   14  A    between atoms: O_17  and  C_18
REMARK   15  A    between atoms: N_20  and  C_21
REMARK   16  A    between atoms: N_20  and  C_22
REMARK                            x       y       z     vdW  Elec       q    Type
REMARK                         _______ _______ _______ _____ _____    ______ ____
ROOT
ATOM      1  O   UNL     1      -7.717  -0.613 130.188  0.00  0.00    +0.000 OA
ENDROOT
BRANCH   1   2
ATOM      2  C   UNL     1      -7.367   0.704 130.211  0.00  0.00    +0.000 C 
ATOM      3  O   UNL     1      -7.225   1.378 131.209  0.00  0.00    +0.000 OA
BRANCH   2   4
ATOM      4  C   UNL     1      -7.198   1.236 128.828  0.00  0.00    +0.000 A 
ATOM      5  C   UNL     1      -8.319   1.474 128.022  0.00  0.00    +0.000 A 
ATOM      6  C   UNL     1      -8.168   1.701 126.641  0.00  0.00    +0.000 A 
ATOM      7  C   UNL     1      -6.874   1.831 126.089  0.00  0.00    +0.000 A 
ATOM      8  C   UNL     1      -5.755   1.604 126.912  0.00  0.00    +0.000 A 
ATOM      9  C   UNL     1      -5.922   1.325 128.273  0.00  0.00    +0.000 A 
BRANCH   6  10
ATOM     10  O   UNL     1      -9.358   1.721 125.940  0.00  0.00    +0.000 OA
ATOM     11  C   UNL     1      -9.924   0.461 125.571  0.00  0.00    +0.000 C 
ENDBRANCH   6  10
BRANCH   7  12
ATOM     12  O   UNL     1      -6.811   2.190 124.768  0.00  0.00    +0.000 OA
ATOM     13  C   UNL     1      -6.866   1.227 123.734  0.00  0.00    +0.000 C 
ENDBRANCH   7  12
BRANCH   8  14
ATOM     14  O   UNL     1      -4.530   1.604 126.307  0.00  0.00    +0.000 OA
ATOM     15  C   UNL     1      -3.629   2.654 126.589  0.00  0.00    +0.000 C 
ENDBRANCH   8  14
ENDBRANCH   2   4
ENDBRANCH   1   2
BRANCH   1  16
ATOM     16  C   UNL     1      -6.752  -1.497 130.807  0.00  0.00    +0.000 C 
BRANCH  16  17
ATOM     17  C   UNL     1      -6.151  -2.581 129.820  0.00  0.00    +0.000 C 
BRANCH  17  18
ATOM     18  C   UNL     1      -7.090  -2.768 128.568  0.00  0.00    +0.000 A 
ATOM     19  C   UNL     1      -8.245  -3.569 128.599  0.00  0.00    +0.000 A 
ATOM     20  C   UNL     1      -9.020  -3.793 127.462  0.00  0.00    +0.000 A 
ATOM     21  C   UNL     1      -8.727  -3.126 126.283  0.00  0.00    +0.000 A 
ATOM     22  C   UNL     1      -7.611  -2.301 126.219  0.00  0.00    +0.000 A 
ATOM     23  C   UNL     1      -6.780  -2.162 127.332  0.00  0.00    +0.000 A 
ENDBRANCH  17  18
BRANCH  17  24
ATOM     24  N   UNL     1      -4.761  -2.186 129.348  0.00  0.00    +0.000 NA
ATOM     25  C   UNL     1      -4.114  -1.200 130.229  0.00  0.00    +0.000 C 
ATOM     26  C   UNL     1      -3.799  -3.273 129.174  0.00  0.00    +0.000 C 
ENDBRANCH  17  24
BRANCH  17  28
ATOM     27  C   UNL     1      -6.079  -4.012 132.059  0.00  0.00    +0.000 C 
ATOM     28  C   UNL     1      -6.160  -3.990 130.532  0.00  0.00    +0.000 C 
ENDBRANCH  17  28
ENDBRANCH  16  17
ENDBRANCH   1  16
TORSDOF 10
ENDMDL
MODEL 9
REMARK VINA RESULT:      -5.8      2.563      6.588
REMARK  Name = Trimebutine
REMARK  16 active torsions:
REMARK  status: ('A' for Active; 'I' for Inactive)
REMARK    1  A    between atoms: C_1  and  C_2
REMARK    2  A    between atoms: C_2  and  C_3
REMARK    3  A    between atoms: C_3  and  C_4
REMARK    4  A    between atoms: C_3  and  N_20
REMARK    5  A    between atoms: C_3  and  C_23
REMARK    6  A    between atoms: C_4  and  O_5
REMARK    7  A    between atoms: O_5  and  C_6
REMARK    8  A    between atoms: C_6  and  C_8
REMARK    9  A    between atoms: C_10  and  O_11
REMARK   10  A    between atoms: O_11  and  C_12
REMARK   11  A    between atoms: C_13  and  O_14
REMARK   12  A    between atoms: O_14  and  C_15
REMARK   13  A    between atoms: C_16  and  O_17
REMARK   14  A    between atoms: O_17  and  C_18
REMARK   15  A    between atoms: N_20  and  C_21
REMARK   16  A    between atoms: N_20  and  C_22
REMARK                            x       y       z     vdW  Elec       q    Type
REMARK                         _______ _______ _______ _____ _____    ______ ____
ROOT
ATOM      1  O   UNL     1      -5.475   0.807 128.041  0.00  0.00    +0.000 OA
ENDROOT
BRANCH   1   2
ATOM      2  C   UNL     1      -5.497  -0.555 128.000  0.00  0.00    +0.000 C 
ATOM      3  O   UNL     1      -4.896  -1.293 128.751  0.00  0.00    +0.000 OA
BRANCH   2   4
ATOM      4  C   UNL     1      -6.352  -1.042 126.879  0.00  0.00    +0.000 A 
ATOM      5  C   UNL     1      -5.774  -1.710 125.791  0.00  0.00    +0.000 A 
ATOM      6  C   UNL     1      -6.513  -1.920 124.611  0.00  0.00    +0.000 A 
ATOM      7  C   UNL     1      -7.885  -1.584 124.573  0.00  0.00    +0.000 A 
ATOM      8  C   UNL     1      -8.457  -0.926 125.678  0.00  0.00    +0.000 A 
ATOM      9  C   UNL     1      -7.696  -0.675 126.825  0.00  0.00    +0.000 A 
BRANCH   6  10
ATOM     10  O   UNL     1      -5.764  -2.407 123.557  0.00  0.00    +0.000 OA
ATOM     11  C   UNL     1      -4.919  -3.532 123.817  0.00  0.00    +0.000 C 
ENDBRANCH   6  10
BRANCH   7  12
ATOM     12  O   UNL     1      -8.567  -1.948 123.441  0.00  0.00    +0.000 OA
ATOM     13  C   UNL     1      -9.305  -3.153 123.375  0.00  0.00    +0.000 C 
ENDBRANCH   7  12
BRANCH   8  14
ATOM     14  O   UNL     1      -9.747  -0.498 125.544  0.00  0.00    +0.000 OA
ATOM     15  C   UNL     1      -9.990   0.864 125.262  0.00  0.00    +0.000 C 
ENDBRANCH   8  14
ENDBRANCH   2   4
ENDBRANCH   1   2
BRANCH   1  16
ATOM     16  C   UNL     1      -4.596   1.418 127.067  0.00  0.00    +0.000 C 
BRANCH  16  17
ATOM     17  C   UNL     1      -4.978   2.913 126.710  0.00  0.00    +0.000 C 
BRANCH  17  18
ATOM     18  C   UNL     1      -5.587   2.996 125.259  0.00  0.00    +0.000 A 
ATOM     19  C   UNL     1      -6.450   2.014 124.741  0.00  0.00    +0.000 A 
ATOM     20  C   UNL     1      -6.916   2.057 123.428  0.00  0.00    +0.000 A 
ATOM     21  C   UNL     1      -6.623   3.149 122.625  0.00  0.00    +0.000 A 
ATOM     22  C   UNL     1      -5.798   4.156 123.110  0.00  0.00    +0.000 A 
ATOM     23  C   UNL     1      -5.251   4.056 124.391  0.00  0.00    +0.000 A 
ENDBRANCH  17  18
BRANCH  17  24
ATOM     24  N   UNL     1      -5.979   3.479 127.705  0.00  0.00    +0.000 NA
ATOM     25  C   UNL     1      -5.405   4.528 128.563  0.00  0.00    +0.000 C 
ATOM     26  C   UNL     1      -7.210   4.035 127.146  0.00  0.00    +0.000 C 
ENDBRANCH  17  24
BRANCH  17  28
ATOM     27  C   UNL     1      -2.324   3.048 126.752  0.00  0.00    +0.000 C 
ATOM     28  C   UNL     1      -3.661   3.781 126.633  0.00  0.00    +0.000 C 
ENDBRANCH  17  28
ENDBRANCH  16  17
ENDBRANCH   1  16
TORSDOF 10
ENDMDL
