MODEL 1
REMARK VINA RESULT:      -7.6      0.000      0.000
REMARK  Name = Trioxsalen
REMARK  3 active torsions:
REMARK  status: ('A' for Active; 'I' for Inactive)
REMARK    1  A    between atoms: C_1  and  C_2
REMARK    2  A    between atoms: C_12  and  C_13
REMARK    3  A    between atoms: C_14  and  C_15
REMARK                            x       y       z     vdW  Elec       q    Type
REMARK                         _______ _______ _______ _____ _____    ______ ____
ROOT
ATOM      1  C   UNL     1      -7.986   4.791 134.340  0.00  0.00    +0.000 C 
ATOM      2  C   UNL     1      -8.652   5.185 133.078  0.00  0.00    +0.000 A 
ATOM      3  C   UNL     1      -9.753   5.980 132.978  0.00  0.00    +0.000 A 
ATOM      4  C   UNL     1     -10.013   6.116 131.619  0.00  0.00    +0.000 A 
ATOM      5  C   UNL     1     -11.008   6.838 130.996  0.00  0.00    +0.000 A 
ATOM      6  C   UNL     1     -10.930   7.066 129.641  0.00  0.00    +0.000 A 
ATOM      7  C   UNL     1      -9.987   6.352 128.884  0.00  0.00    +0.000 A 
ATOM      8  O   UNL     1      -9.974   6.637 127.479  0.00  0.00    +0.000 OA
ATOM      9  C   UNL     1     -10.785   7.630 126.904  0.00  0.00    +0.000 A 
ATOM     10  O   UNL     1     -10.749   7.915 125.704  0.00  0.00    +0.000 OA
ATOM     11  C   UNL     1     -11.717   8.352 127.782  0.00  0.00    +0.000 A 
ATOM     12  C   UNL     1     -11.811   8.090 129.086  0.00  0.00    +0.000 A 
ATOM     13  C   UNL     1     -12.737   8.844 130.008  0.00  0.00    +0.000 C 
ATOM     14  C   UNL     1      -9.062   5.398 129.459  0.00  0.00    +0.000 A 
ATOM     15  C   UNL     1      -8.226   4.453 128.631  0.00  0.00    +0.000 C 
ATOM     16  C   UNL     1      -9.065   5.410 130.887  0.00  0.00    +0.000 A 
ATOM     17  O   UNL     1      -8.224   4.787 131.820  0.00  0.00    +0.000 OA
ENDROOT
TORSDOF 0
ENDMDL
MODEL 2
REMARK VINA RESULT:      -7.2      8.493     10.491
REMARK  Name = Trioxsalen
REMARK  3 active torsions:
REMARK  status: ('A' for Active; 'I' for Inactive)
REMARK    1  A    between atoms: C_1  and  C_2
REMARK    2  A    between atoms: C_12  and  C_13
REMARK    3  A    between atoms: C_14  and  C_15
REMARK                            x       y       z     vdW  Elec       q    Type
REMARK                         _______ _______ _______ _____ _____    ______ ____
ROOT
ATOM      1  C   UNL     1      -4.313  -4.999 123.567  0.00  0.00    +0.000 C 
ATOM      2  C   UNL     1      -5.224  -3.856 123.794  0.00  0.00    +0.000 A 
ATOM      3  C   UNL     1      -4.961  -2.557 123.477  0.00  0.00    +0.000 A 
ATOM      4  C   UNL     1      -6.095  -1.833 123.827  0.00  0.00    +0.000 A 
ATOM      5  C   UNL     1      -6.336  -0.484 123.689  0.00  0.00    +0.000 A 
ATOM      6  C   UNL     1      -7.619  -0.008 123.842  0.00  0.00    +0.000 A 
ATOM      7  C   UNL     1      -8.599  -0.856 124.382  0.00  0.00    +0.000 A 
ATOM      8  O   UNL     1      -9.908  -0.285 124.521  0.00  0.00    +0.000 OA
ATOM      9  C   UNL     1     -10.218   1.007 124.063  0.00  0.00    +0.000 A 
ATOM     10  O   UNL     1     -11.350   1.492 124.135  0.00  0.00    +0.000 OA
ATOM     11  C   UNL     1      -9.134   1.810 123.478  0.00  0.00    +0.000 A 
ATOM     12  C   UNL     1      -7.886   1.350 123.375  0.00  0.00    +0.000 A 
ATOM     13  C   UNL     1      -6.770   2.146 122.747  0.00  0.00    +0.000 C 
ATOM     14  C   UNL     1      -8.342  -2.228 124.766  0.00  0.00    +0.000 A 
ATOM     15  C   UNL     1      -9.312  -3.059 125.570  0.00  0.00    +0.000 C 
ATOM     16  C   UNL     1      -7.056  -2.690 124.352  0.00  0.00    +0.000 A 
ATOM     17  O   UNL     1      -6.483  -3.970 124.365  0.00  0.00    +0.000 OA
ENDROOT
TORSDOF 0
ENDMDL
MODEL 3
REMARK VINA RESULT:      -6.7      2.994      6.285
REMARK  Name = Trioxsalen
REMARK  3 active torsions:
REMARK  status: ('A' for Active; 'I' for Inactive)
REMARK    1  A    between atoms: C_1  and  C_2
REMARK    2  A    between atoms: C_12  and  C_13
REMARK    3  A    between atoms: C_14  and  C_15
REMARK                            x       y       z     vdW  Elec       q    Type
REMARK                         _______ _______ _______ _____ _____    ______ ____
ROOT
ATOM      1  C   UNL     1     -12.319   6.876 131.190  0.00  0.00    +0.000 C 
ATOM      2  C   UNL     1     -10.895   6.588 131.470  0.00  0.00    +0.000 A 
ATOM      3  C   UNL     1      -9.843   6.952 130.685  0.00  0.00    +0.000 A 
ATOM      4  C   UNL     1      -8.697   6.514 131.340  0.00  0.00    +0.000 A 
ATOM      5  C   UNL     1      -7.379   6.655 130.965  0.00  0.00    +0.000 A 
ATOM      6  C   UNL     1      -6.385   6.394 131.881  0.00  0.00    +0.000 A 
ATOM      7  C   UNL     1      -6.719   5.751 133.083  0.00  0.00    +0.000 A 
ATOM      8  O   UNL     1      -5.628   5.503 133.980  0.00  0.00    +0.000 OA
ATOM      9  C   UNL     1      -4.322   5.955 133.721  0.00  0.00    +0.000 A 
ATOM     10  O   UNL     1      -3.386   5.789 134.506  0.00  0.00    +0.000 OA
ATOM     11  C   UNL     1      -4.074   6.652 132.451  0.00  0.00    +0.000 A 
ATOM     12  C   UNL     1      -5.040   6.861 131.554  0.00  0.00    +0.000 A 
ATOM     13  C   UNL     1      -4.811   7.603 130.262  0.00  0.00    +0.000 C 
ATOM     14  C   UNL     1      -8.071   5.366 133.431  0.00  0.00    +0.000 A 
ATOM     15  C   UNL     1      -8.401   4.461 134.593  0.00  0.00    +0.000 C 
ATOM     16  C   UNL     1      -9.048   5.887 132.531  0.00  0.00    +0.000 A 
ATOM     17  O   UNL     1     -10.449   5.902 132.591  0.00  0.00    +0.000 OA
ENDROOT
TORSDOF 0
ENDMDL
MODEL 4
REMARK VINA RESULT:      -6.7      7.812      9.698
REMARK  Name = Trioxsalen
REMARK  3 active torsions:
REMARK  status: ('A' for Active; 'I' for Inactive)
REMARK    1  A    between atoms: C_1  and  C_2
REMARK    2  A    between atoms: C_12  and  C_13
REMARK    3  A    between atoms: C_14  and  C_15
REMARK                            x       y       z     vdW  Elec       q    Type
REMARK                         _______ _______ _______ _____ _____    ______ ____
ROOT
ATOM      1  C   UNL     1      -5.307   5.316 119.422  0.00  0.00    +0.000 C 
ATOM      2  C   UNL     1      -5.956   4.621 120.556  0.00  0.00    +0.000 A 
ATOM      3  C   UNL     1      -7.145   3.959 120.504  0.00  0.00    +0.000 A 
ATOM      4  C   UNL     1      -7.353   3.433 121.775  0.00  0.00    +0.000 A 
ATOM      5  C   UNL     1      -8.402   2.665 122.231  0.00  0.00    +0.000 A 
ATOM      6  C   UNL     1      -8.288   2.017 123.441  0.00  0.00    +0.000 A 
ATOM      7  C   UNL     1      -7.224   2.351 124.294  0.00  0.00    +0.000 A 
ATOM      8  O   UNL     1      -7.179   1.641 125.539  0.00  0.00    +0.000 OA
ATOM      9  C   UNL     1      -8.083   0.612 125.852  0.00  0.00    +0.000 A 
ATOM     10  O   UNL     1      -8.026  -0.037 126.900  0.00  0.00    +0.000 OA
ATOM     11  C   UNL     1      -9.143   0.307 124.881  0.00  0.00    +0.000 A 
ATOM     12  C   UNL     1      -9.266   0.972 123.731  0.00  0.00    +0.000 A 
ATOM     13  C   UNL     1     -10.326   0.650 122.708  0.00  0.00    +0.000 C 
ATOM     14  C   UNL     1      -6.212   3.331 123.959  0.00  0.00    +0.000 A 
ATOM     15  C   UNL     1      -5.221   3.873 124.960  0.00  0.00    +0.000 C 
ATOM     16  C   UNL     1      -6.287   3.767 122.602  0.00  0.00    +0.000 A 
ATOM     17  O   UNL     1      -5.419   4.557 121.834  0.00  0.00    +0.000 OA
ENDROOT
TORSDOF 0
ENDMDL
MODEL 5
REMARK VINA RESULT:      -6.5      6.195      9.516
REMARK  Name = Trioxsalen
REMARK  3 active torsions:
REMARK  status: ('A' for Active; 'I' for Inactive)
REMARK    1  A    between atoms: C_1  and  C_2
REMARK    2  A    between atoms: C_12  and  C_13
REMARK    3  A    between atoms: C_14  and  C_15
REMARK                            x       y       z     vdW  Elec       q    Type
REMARK                         _______ _______ _______ _____ _____    ______ ____
ROOT
ATOM      1  C   UNL     1      -6.225   5.014 118.707  0.00  0.00    +0.000 C 
ATOM      2  C   UNL     1      -6.372   4.452 120.068  0.00  0.00    +0.000 A 
ATOM      3  C   UNL     1      -5.440   4.521 121.058  0.00  0.00    +0.000 A 
ATOM      4  C   UNL     1      -6.004   3.901 122.168  0.00  0.00    +0.000 A 
ATOM      5  C   UNL     1      -5.471   3.729 123.427  0.00  0.00    +0.000 A 
ATOM      6  C   UNL     1      -6.291   3.335 124.460  0.00  0.00    +0.000 A 
ATOM      7  C   UNL     1      -7.584   2.875 124.164  0.00  0.00    +0.000 A 
ATOM      8  O   UNL     1      -8.374   2.473 125.291  0.00  0.00    +0.000 OA
ATOM      9  C   UNL     1      -7.924   2.614 126.615  0.00  0.00    +0.000 A 
ATOM     10  O   UNL     1      -8.612   2.315 127.594  0.00  0.00    +0.000 OA
ATOM     11  C   UNL     1      -6.568   3.139 126.829  0.00  0.00    +0.000 A 
ATOM     12  C   UNL     1      -5.769   3.477 125.816  0.00  0.00    +0.000 A 
ATOM     13  C   UNL     1      -4.388   4.049 126.018  0.00  0.00    +0.000 C 
ATOM     14  C   UNL     1      -8.121   2.816 122.820  0.00  0.00    +0.000 A 
ATOM     15  C   UNL     1      -9.401   2.096 122.470  0.00  0.00    +0.000 C 
ATOM     16  C   UNL     1      -7.286   3.460 121.859  0.00  0.00    +0.000 A 
ATOM     17  O   UNL     1      -7.501   3.778 120.509  0.00  0.00    +0.000 OA
ENDROOT
TORSDOF 0
ENDMDL
MODEL 6
REMARK VINA RESULT:      -6.3      5.438      8.838
REMARK  Name = Trioxsalen
REMARK  3 active torsions:
REMARK  status: ('A' for Active; 'I' for Inactive)
REMARK    1  A    between atoms: C_1  and  C_2
REMARK    2  A    between atoms: C_12  and  C_13
REMARK    3  A    between atoms: C_14  and  C_15
REMARK                            x       y       z     vdW  Elec       q    Type
REMARK                         _______ _______ _______ _____ _____    ______ ____
ROOT
ATOM      1  C   UNL     1      -6.275   4.381 119.479  0.00  0.00    +0.000 C 
ATOM      2  C   UNL     1      -6.424   4.016 120.905  0.00  0.00    +0.000 A 
ATOM      3  C   UNL     1      -5.491   4.220 121.877  0.00  0.00    +0.000 A 
ATOM      4  C   UNL     1      -6.057   3.763 123.062  0.00  0.00    +0.000 A 
ATOM      5  C   UNL     1      -5.525   3.766 124.332  0.00  0.00    +0.000 A 
ATOM      6  C   UNL     1      -6.346   3.522 125.410  0.00  0.00    +0.000 A 
ATOM      7  C   UNL     1      -7.640   3.028 125.180  0.00  0.00    +0.000 A 
ATOM      8  O   UNL     1      -8.431   2.789 126.352  0.00  0.00    +0.000 OA
ATOM      9  C   UNL     1      -7.981   3.113 127.644  0.00  0.00    +0.000 A 
ATOM     10  O   UNL     1      -8.670   2.955 128.655  0.00  0.00    +0.000 OA
ATOM     11  C   UNL     1      -6.624   3.660 127.783  0.00  0.00    +0.000 A 
ATOM     12  C   UNL     1      -5.824   3.852 126.733  0.00  0.00    +0.000 A 
ATOM     13  C   UNL     1      -4.442   4.443 126.854  0.00  0.00    +0.000 C 
ATOM     14  C   UNL     1      -8.176   2.783 123.858  0.00  0.00    +0.000 A 
ATOM     15  C   UNL     1      -9.458   2.024 123.611  0.00  0.00    +0.000 C 
ATOM     16  C   UNL     1      -7.340   3.285 122.816  0.00  0.00    +0.000 A 
ATOM     17  O   UNL     1      -7.554   3.412 121.435  0.00  0.00    +0.000 OA
ENDROOT
TORSDOF 0
ENDMDL
MODEL 7
REMARK VINA RESULT:      -6.2      6.046      8.461
REMARK  Name = Trioxsalen
REMARK  3 active torsions:
REMARK  status: ('A' for Active; 'I' for Inactive)
REMARK    1  A    between atoms: C_1  and  C_2
REMARK    2  A    between atoms: C_12  and  C_13
REMARK    3  A    between atoms: C_14  and  C_15
REMARK                            x       y       z     vdW  Elec       q    Type
REMARK                         _______ _______ _______ _____ _____    ______ ____
ROOT
ATOM      1  C   UNL     1      -8.206   4.125 129.662  0.00  0.00    +0.000 C 
ATOM      2  C   UNL     1      -8.200   2.915 128.811  0.00  0.00    +0.000 A 
ATOM      3  C   UNL     1      -7.855   1.662 129.217  0.00  0.00    +0.000 A 
ATOM      4  C   UNL     1      -8.026   0.833 128.113  0.00  0.00    +0.000 A 
ATOM      5  C   UNL     1      -7.829  -0.527 128.014  0.00  0.00    +0.000 A 
ATOM      6  C   UNL     1      -8.314  -1.201 126.915  0.00  0.00    +0.000 A 
ATOM      7  C   UNL     1      -8.768  -0.463 125.811  0.00  0.00    +0.000 A 
ATOM      8  O   UNL     1      -9.248  -1.236 124.702  0.00  0.00    +0.000 OA
ATOM      9  C   UNL     1      -9.346  -2.637 124.747  0.00  0.00    +0.000 A 
ATOM     10  O   UNL     1      -9.801  -3.309 123.817  0.00  0.00    +0.000 OA
ATOM     11  C   UNL     1      -8.880  -3.322 125.961  0.00  0.00    +0.000 A 
ATOM     12  C   UNL     1      -8.373  -2.658 127.001  0.00  0.00    +0.000 A 
ATOM     13  C   UNL     1      -7.922  -3.340 128.267  0.00  0.00    +0.000 C 
ATOM     14  C   UNL     1      -8.781   0.984 125.770  0.00  0.00    +0.000 A 
ATOM     15  C   UNL     1      -9.028   1.775 124.508  0.00  0.00    +0.000 C 
ATOM     16  C   UNL     1      -8.483   1.580 127.032  0.00  0.00    +0.000 A 
ATOM     17  O   UNL     1      -8.554   2.910 127.469  0.00  0.00    +0.000 OA
ENDROOT
TORSDOF 0
ENDMDL
MODEL 8
REMARK VINA RESULT:      -6.2      9.394      9.988
REMARK  Name = Trioxsalen
REMARK  3 active torsions:
REMARK  status: ('A' for Active; 'I' for Inactive)
REMARK    1  A    between atoms: C_1  and  C_2
REMARK    2  A    between atoms: C_12  and  C_13
REMARK    3  A    between atoms: C_14  and  C_15
REMARK                            x       y       z     vdW  Elec       q    Type
REMARK                         _______ _______ _______ _____ _____    ______ ____
ROOT
ATOM      1  C   UNL     1      -4.384  -1.953 130.673  0.00  0.00    +0.000 C 
ATOM      2  C   UNL     1      -5.332  -1.945 129.536  0.00  0.00    +0.000 A 
ATOM      3  C   UNL     1      -5.264  -1.121 128.454  0.00  0.00    +0.000 A 
ATOM      4  C   UNL     1      -6.322  -1.480 127.625  0.00  0.00    +0.000 A 
ATOM      5  C   UNL     1      -6.675  -0.959 126.399  0.00  0.00    +0.000 A 
ATOM      6  C   UNL     1      -7.587  -1.631 125.617  0.00  0.00    +0.000 A 
ATOM      7  C   UNL     1      -8.323  -2.684 126.183  0.00  0.00    +0.000 A 
ATOM      8  O   UNL     1      -9.260  -3.328 125.309  0.00  0.00    +0.000 OA
ATOM      9  C   UNL     1      -9.374  -2.993 123.949  0.00  0.00    +0.000 A 
ATOM     10  O   UNL     1     -10.143  -3.571 123.177  0.00  0.00    +0.000 OA
ATOM     11  C   UNL     1      -8.536  -1.900 123.436  0.00  0.00    +0.000 A 
ATOM     12  C   UNL     1      -7.687  -1.230 124.216  0.00  0.00    +0.000 A 
ATOM     13  C   UNL     1      -6.796  -0.129 123.700  0.00  0.00    +0.000 C 
ATOM     14  C   UNL     1      -8.156  -3.127 127.552  0.00  0.00    +0.000 A 
ATOM     15  C   UNL     1      -9.107  -4.080 128.236  0.00  0.00    +0.000 C 
ATOM     16  C   UNL     1      -7.033  -2.528 128.198  0.00  0.00    +0.000 A 
ATOM     17  O   UNL     1      -6.423  -2.795 129.432  0.00  0.00    +0.000 OA
ENDROOT
TORSDOF 0
ENDMDL
MODEL 9
REMARK VINA RESULT:      -6.1      5.767      7.301
REMARK  Name = Trioxsalen
REMARK  3 active torsions:
REMARK  status: ('A' for Active; 'I' for Inactive)
REMARK    1  A    between atoms: C_1  and  C_2
REMARK    2  A    between atoms: C_12  and  C_13
REMARK    3  A    between atoms: C_14  and  C_15
REMARK                            x       y       z     vdW  Elec       q    Type
REMARK                         _______ _______ _______ _____ _____    ______ ____
ROOT
ATOM      1  C   UNL     1      -2.757   3.739 128.047  0.00  0.00    +0.000 C 
ATOM      2  C   UNL     1      -4.032   3.580 127.315  0.00  0.00    +0.000 A 
ATOM      3  C   UNL     1      -4.235   3.878 126.002  0.00  0.00    +0.000 A 
ATOM      4  C   UNL     1      -5.557   3.543 125.726  0.00  0.00    +0.000 A 
ATOM      5  C   UNL     1      -6.242   3.638 124.534  0.00  0.00    +0.000 A 
ATOM      6  C   UNL     1      -7.456   3.002 124.401  0.00  0.00    +0.000 A 
ATOM      7  C   UNL     1      -8.085   2.492 125.547  0.00  0.00    +0.000 A 
ATOM      8  O   UNL     1      -9.352   1.854 125.329  0.00  0.00    +0.000 OA
ATOM      9  C   UNL     1      -9.889   1.667 124.044  0.00  0.00    +0.000 A 
ATOM     10  O   UNL     1     -10.954   1.079 123.841  0.00  0.00    +0.000 OA
ATOM     11  C   UNL     1      -9.140   2.204 122.899  0.00  0.00    +0.000 A 
ATOM     12  C   UNL     1      -7.985   2.854 123.048  0.00  0.00    +0.000 A 
ATOM     13  C   UNL     1      -7.187   3.382 121.882  0.00  0.00    +0.000 C 
ATOM     14  C   UNL     1      -7.512   2.573 126.874  0.00  0.00    +0.000 A 
ATOM     15  C   UNL     1      -8.285   2.256 128.132  0.00  0.00    +0.000 C 
ATOM     16  C   UNL     1      -6.161   3.033 126.869  0.00  0.00    +0.000 A 
ATOM     17  O   UNL     1      -5.199   3.095 127.889  0.00  0.00    +0.000 OA
ENDROOT
TORSDOF 0
ENDMDL
