MODEL 1
REMARK VINA RESULT:      -7.5      0.000      0.000
REMARK  Name = Triprolidine
REMARK  5 active torsions:
REMARK  status: ('A' for Active; 'I' for Inactive)
REMARK    1  A    between atoms: C_1  and  C_2
REMARK    2  A    between atoms: C_5  and  C_8
REMARK    3  A    between atoms: C_8  and  C_16
REMARK    4  A    between atoms: C_9  and  C_10
REMARK    5  A    between atoms: C_10  and  N_11
REMARK                            x       y       z     vdW  Elec       q    Type
REMARK                         _______ _______ _______ _____ _____    ______ ____
ROOT
ATOM      1  C   UNL     1      -7.031   0.254 124.705  0.00  0.00    +0.000 C 
ATOM      2  C   UNL     1      -8.190   0.197 125.420  0.00  0.00    +0.000 C 
ENDROOT
BRANCH   1   7
ATOM      3  C   UNL     1      -4.209  -4.682 123.435  0.00  0.00    +0.000 C 
ATOM      4  C   UNL     1      -4.889  -3.390 123.727  0.00  0.00    +0.000 A 
ATOM      5  C   UNL     1      -4.921  -2.942 125.031  0.00  0.00    +0.000 A 
ATOM      6  C   UNL     1      -5.586  -1.769 125.332  0.00  0.00    +0.000 A 
ATOM      7  C   UNL     1      -6.228  -0.969 124.375  0.00  0.00    +0.000 A 
ATOM      8  C   UNL     1      -6.139  -1.421 123.049  0.00  0.00    +0.000 A 
ATOM      9  C   UNL     1      -5.498  -2.625 122.732  0.00  0.00    +0.000 A 
ENDBRANCH   1   7
BRANCH   1  10
ATOM     10  C   UNL     1      -6.691   1.632 124.194  0.00  0.00    +0.000 A 
ATOM     11  C   UNL     1      -7.052   1.994 122.897  0.00  0.00    +0.000 A 
ATOM     12  C   UNL     1      -6.632   3.219 122.383  0.00  0.00    +0.000 A 
ATOM     13  C   UNL     1      -5.890   4.076 123.183  0.00  0.00    +0.000 A 
ATOM     14  C   UNL     1      -5.599   3.663 124.475  0.00  0.00    +0.000 A 
ATOM     15  N   UNL     1      -5.976   2.465 124.997  0.00  0.00    +0.000 NA
ENDBRANCH   1  10
BRANCH   2  16
ATOM     16  C   UNL     1      -8.798  -0.934 126.237  0.00  0.00    +0.000 C 
BRANCH  16  17
ATOM     17  N   UNL     1      -9.742  -1.700 125.422  0.00  0.00    +0.000 NA
ATOM     18  C   UNL     1      -9.566  -3.120 125.782  0.00  0.00    +0.000 C 
ATOM     19  C   UNL     1      -8.683  -3.702 124.710  0.00  0.00    +0.000 C 
ATOM     20  C   UNL     1      -9.228  -3.031 123.479  0.00  0.00    +0.000 C 
ATOM     21  C   UNL     1      -9.540  -1.611 123.957  0.00  0.00    +0.000 C 
ENDBRANCH  16  17
ENDBRANCH   2  16
TORSDOF 4
ENDMDL
MODEL 2
REMARK VINA RESULT:      -7.3      2.129      4.833
REMARK  Name = Triprolidine
REMARK  5 active torsions:
REMARK  status: ('A' for Active; 'I' for Inactive)
REMARK    1  A    between atoms: C_1  and  C_2
REMARK    2  A    between atoms: C_5  and  C_8
REMARK    3  A    between atoms: C_8  and  C_16
REMARK    4  A    between atoms: C_9  and  C_10
REMARK    5  A    between atoms: C_10  and  N_11
REMARK                            x       y       z     vdW  Elec       q    Type
REMARK                         _______ _______ _______ _____ _____    ______ ____
ROOT
ATOM      1  C   UNL     1      -6.897   2.197 123.995  0.00  0.00    +0.000 C 
ATOM      2  C   UNL     1      -7.549   1.085 124.437  0.00  0.00    +0.000 C 
ENDROOT
BRANCH   1   7
ATOM      3  C   UNL     1      -7.549   4.633 118.742  0.00  0.00    +0.000 C 
ATOM      4  C   UNL     1      -7.365   3.958 120.057  0.00  0.00    +0.000 A 
ATOM      5  C   UNL     1      -8.474   3.746 120.850  0.00  0.00    +0.000 A 
ATOM      6  C   UNL     1      -8.320   3.165 122.094  0.00  0.00    +0.000 A 
ATOM      7  C   UNL     1      -7.087   2.743 122.610  0.00  0.00    +0.000 A 
ATOM      8  C   UNL     1      -5.981   2.924 121.764  0.00  0.00    +0.000 A 
ATOM      9  C   UNL     1      -6.115   3.544 120.515  0.00  0.00    +0.000 A 
ENDBRANCH   1   7
BRANCH   1  10
ATOM     10  C   UNL     1      -6.059   2.878 125.047  0.00  0.00    +0.000 A 
ATOM     11  C   UNL     1      -6.151   4.260 125.214  0.00  0.00    +0.000 A 
ATOM     12  C   UNL     1      -5.291   4.905 126.099  0.00  0.00    +0.000 A 
ATOM     13  C   UNL     1      -4.376   4.157 126.827  0.00  0.00    +0.000 A 
ATOM     14  C   UNL     1      -4.366   2.783 126.635  0.00  0.00    +0.000 A 
ATOM     15  N   UNL     1      -5.179   2.128 125.763  0.00  0.00    +0.000 NA
ENDBRANCH   1  10
BRANCH   2  16
ATOM     16  C   UNL     1      -8.345   0.032 123.679  0.00  0.00    +0.000 C 
BRANCH  16  17
ATOM     17  N   UNL     1      -7.700  -1.276 123.799  0.00  0.00    +0.000 NA
ATOM     18  C   UNL     1      -8.204  -2.107 122.689  0.00  0.00    +0.000 C 
ATOM     19  C   UNL     1      -9.291  -2.961 123.284  0.00  0.00    +0.000 C 
ATOM     20  C   UNL     1      -8.696  -3.312 124.620  0.00  0.00    +0.000 C 
ATOM     21  C   UNL     1      -7.992  -2.021 125.046  0.00  0.00    +0.000 C 
ENDBRANCH  16  17
ENDBRANCH   2  16
TORSDOF 4
ENDMDL
MODEL 3
REMARK VINA RESULT:      -7.2      2.147      6.472
REMARK  Name = Triprolidine
REMARK  5 active torsions:
REMARK  status: ('A' for Active; 'I' for Inactive)
REMARK    1  A    between atoms: C_1  and  C_2
REMARK    2  A    between atoms: C_5  and  C_8
REMARK    3  A    between atoms: C_8  and  C_16
REMARK    4  A    between atoms: C_9  and  C_10
REMARK    5  A    between atoms: C_10  and  N_11
REMARK                            x       y       z     vdW  Elec       q    Type
REMARK                         _______ _______ _______ _____ _____    ______ ____
ROOT
ATOM      1  C   UNL     1      -7.580   1.750 123.523  0.00  0.00    +0.000 C 
ATOM      2  C   UNL     1      -7.508   2.191 124.810  0.00  0.00    +0.000 C 
ENDROOT
BRANCH   1   7
ATOM      3  C   UNL     1      -6.708   4.982 118.754  0.00  0.00    +0.000 C 
ATOM      4  C   UNL     1      -6.954   4.205 120.000  0.00  0.00    +0.000 A 
ATOM      5  C   UNL     1      -5.870   3.729 120.706  0.00  0.00    +0.000 A 
ATOM      6  C   UNL     1      -6.076   2.966 121.839  0.00  0.00    +0.000 A 
ATOM      7  C   UNL     1      -7.345   2.655 122.348  0.00  0.00    +0.000 A 
ATOM      8  C   UNL     1      -8.431   3.192 121.640  0.00  0.00    +0.000 A 
ATOM      9  C   UNL     1      -8.240   3.937 120.470  0.00  0.00    +0.000 A 
ENDBRANCH   1   7
BRANCH   1  10
ATOM     10  C   UNL     1      -7.814   0.267 123.393  0.00  0.00    +0.000 A 
ATOM     11  C   UNL     1      -6.726  -0.591 123.230  0.00  0.00    +0.000 A 
ATOM     12  C   UNL     1      -6.948  -1.945 122.988  0.00  0.00    +0.000 A 
ATOM     13  C   UNL     1      -8.248  -2.426 122.947  0.00  0.00    +0.000 A 
ATOM     14  C   UNL     1      -9.279  -1.521 123.153  0.00  0.00    +0.000 A 
ATOM     15  N   UNL     1      -9.095  -0.191 123.370  0.00  0.00    +0.000 NA
ENDBRANCH   1  10
BRANCH   2  16
ATOM     16  C   UNL     1      -7.453   3.603 125.375  0.00  0.00    +0.000 C 
BRANCH  16  17
ATOM     17  N   UNL     1      -6.504   3.670 126.487  0.00  0.00    +0.000 NA
ATOM     18  C   UNL     1      -5.493   4.683 126.127  0.00  0.00    +0.000 C 
ATOM     19  C   UNL     1      -4.313   3.907 125.603  0.00  0.00    +0.000 C 
ATOM     20  C   UNL     1      -4.281   2.738 126.549  0.00  0.00    +0.000 C 
ATOM     21  C   UNL     1      -5.762   2.419 126.770  0.00  0.00    +0.000 C 
ENDBRANCH  16  17
ENDBRANCH   2  16
TORSDOF 4
ENDMDL
MODEL 4
REMARK VINA RESULT:      -7.1      2.425      5.133
REMARK  Name = Triprolidine
REMARK  5 active torsions:
REMARK  status: ('A' for Active; 'I' for Inactive)
REMARK    1  A    between atoms: C_1  and  C_2
REMARK    2  A    between atoms: C_5  and  C_8
REMARK    3  A    between atoms: C_8  and  C_16
REMARK    4  A    between atoms: C_9  and  C_10
REMARK    5  A    between atoms: C_10  and  N_11
REMARK                            x       y       z     vdW  Elec       q    Type
REMARK                         _______ _______ _______ _____ _____    ______ ____
ROOT
ATOM      1  C   UNL     1      -6.906   2.004 123.603  0.00  0.00    +0.000 C 
ATOM      2  C   UNL     1      -6.227   2.683 124.570  0.00  0.00    +0.000 C 
ENDROOT
BRANCH   1   7
ATOM      3  C   UNL     1      -9.046  -3.393 124.094  0.00  0.00    +0.000 C 
ATOM      4  C   UNL     1      -8.447  -2.033 123.994  0.00  0.00    +0.000 A 
ATOM      5  C   UNL     1      -9.005  -1.011 124.733  0.00  0.00    +0.000 A 
ATOM      6  C   UNL     1      -8.496   0.268 124.620  0.00  0.00    +0.000 A 
ATOM      7  C   UNL     1      -7.407   0.604 123.803  0.00  0.00    +0.000 A 
ATOM      8  C   UNL     1      -6.825  -0.462 123.099  0.00  0.00    +0.000 A 
ATOM      9  C   UNL     1      -7.352  -1.758 123.176  0.00  0.00    +0.000 A 
ENDBRANCH   1   7
BRANCH   1  10
ATOM     10  C   UNL     1      -7.195   2.819 122.368  0.00  0.00    +0.000 A 
ATOM     11  C   UNL     1      -8.517   3.063 121.997  0.00  0.00    +0.000 A 
ATOM     12  C   UNL     1      -8.786   3.710 120.792  0.00  0.00    +0.000 A 
ATOM     13  C   UNL     1      -7.731   4.132 119.996  0.00  0.00    +0.000 A 
ATOM     14  C   UNL     1      -6.442   3.886 120.446  0.00  0.00    +0.000 A 
ATOM     15  N   UNL     1      -6.149   3.239 121.606  0.00  0.00    +0.000 NA
ENDBRANCH   1  10
BRANCH   2  16
ATOM     16  C   UNL     1      -5.601   2.199 125.870  0.00  0.00    +0.000 C 
BRANCH  16  17
ATOM     17  N   UNL     1      -5.066   3.330 126.629  0.00  0.00    +0.000 NA
ATOM     18  C   UNL     1      -3.825   3.752 125.952  0.00  0.00    +0.000 C 
ATOM     19  C   UNL     1      -2.703   3.124 126.737  0.00  0.00    +0.000 C 
ATOM     20  C   UNL     1      -3.195   3.297 128.149  0.00  0.00    +0.000 C 
ATOM     21  C   UNL     1      -4.699   3.040 128.035  0.00  0.00    +0.000 C 
ENDBRANCH  16  17
ENDBRANCH   2  16
TORSDOF 4
ENDMDL
MODEL 5
REMARK VINA RESULT:      -7.0      2.646      4.447
REMARK  Name = Triprolidine
REMARK  5 active torsions:
REMARK  status: ('A' for Active; 'I' for Inactive)
REMARK    1  A    between atoms: C_1  and  C_2
REMARK    2  A    between atoms: C_5  and  C_8
REMARK    3  A    between atoms: C_8  and  C_16
REMARK    4  A    between atoms: C_9  and  C_10
REMARK    5  A    between atoms: C_10  and  N_11
REMARK                            x       y       z     vdW  Elec       q    Type
REMARK                         _______ _______ _______ _____ _____    ______ ____
ROOT
ATOM      1  C   UNL     1      -7.364   2.967 123.321  0.00  0.00    +0.000 C 
ATOM      2  C   UNL     1      -8.600   2.402 123.417  0.00  0.00    +0.000 C 
ENDROOT
BRANCH   1   7
ATOM      3  C   UNL     1      -3.353   3.058 127.547  0.00  0.00    +0.000 C 
ATOM      4  C   UNL     1      -4.417   3.065 126.504  0.00  0.00    +0.000 A 
ATOM      5  C   UNL     1      -4.965   1.862 126.114  0.00  0.00    +0.000 A 
ATOM      6  C   UNL     1      -5.919   1.840 125.115  0.00  0.00    +0.000 A 
ATOM      7  C   UNL     1      -6.398   2.989 124.470  0.00  0.00    +0.000 A 
ATOM      8  C   UNL     1      -5.860   4.205 124.918  0.00  0.00    +0.000 A 
ATOM      9  C   UNL     1      -4.867   4.242 125.905  0.00  0.00    +0.000 A 
ENDBRANCH   1   7
BRANCH   1  10
ATOM     10  C   UNL     1      -7.022   3.469 121.941  0.00  0.00    +0.000 A 
ATOM     11  C   UNL     1      -5.704   3.810 121.639  0.00  0.00    +0.000 A 
ATOM     12  C   UNL     1      -5.408   4.388 120.406  0.00  0.00    +0.000 A 
ATOM     13  C   UNL     1      -6.426   4.584 119.484  0.00  0.00    +0.000 A 
ATOM     14  C   UNL     1      -7.706   4.188 119.840  0.00  0.00    +0.000 A 
ATOM     15  N   UNL     1      -8.029   3.641 121.043  0.00  0.00    +0.000 NA
ENDBRANCH   1  10
BRANCH   2  16
ATOM     16  C   UNL     1      -9.388   1.934 124.632  0.00  0.00    +0.000 C 
BRANCH  16  17
ATOM     17  N   UNL     1      -9.856   0.561 124.437  0.00  0.00    +0.000 NA
ATOM     18  C   UNL     1      -9.354  -0.230 125.576  0.00  0.00    +0.000 C 
ATOM     19  C   UNL     1      -8.123  -0.933 125.069  0.00  0.00    +0.000 C 
ATOM     20  C   UNL     1      -8.553  -1.320 123.680  0.00  0.00    +0.000 C 
ATOM     21  C   UNL     1      -9.369  -0.112 123.211  0.00  0.00    +0.000 C 
ENDBRANCH  16  17
ENDBRANCH   2  16
TORSDOF 4
ENDMDL
MODEL 6
REMARK VINA RESULT:      -6.9      8.543     10.153
REMARK  Name = Triprolidine
REMARK  5 active torsions:
REMARK  status: ('A' for Active; 'I' for Inactive)
REMARK    1  A    between atoms: C_1  and  C_2
REMARK    2  A    between atoms: C_5  and  C_8
REMARK    3  A    between atoms: C_8  and  C_16
REMARK    4  A    between atoms: C_9  and  C_10
REMARK    5  A    between atoms: C_10  and  N_11
REMARK                            x       y       z     vdW  Elec       q    Type
REMARK                         _______ _______ _______ _____ _____    ______ ____
ROOT
ATOM      1  C   UNL     1      -8.785   6.367 131.541  0.00  0.00    +0.000 C 
ATOM      2  C   UNL     1      -9.099   6.027 132.823  0.00  0.00    +0.000 C 
ENDROOT
BRANCH   1   7
ATOM      3  C   UNL     1      -3.431   5.231 129.543  0.00  0.00    +0.000 C 
ATOM      4  C   UNL     1      -4.818   5.527 129.996  0.00  0.00    +0.000 A 
ATOM      5  C   UNL     1      -5.049   6.692 130.697  0.00  0.00    +0.000 A 
ATOM      6  C   UNL     1      -6.319   6.964 131.167  0.00  0.00    +0.000 A 
ATOM      7  C   UNL     1      -7.424   6.127 130.955  0.00  0.00    +0.000 A 
ATOM      8  C   UNL     1      -7.174   4.973 130.197  0.00  0.00    +0.000 A 
ATOM      9  C   UNL     1      -5.886   4.665 129.743  0.00  0.00    +0.000 A 
ENDBRANCH   1   7
BRANCH   1  10
ATOM     10  C   UNL     1      -9.947   6.905 130.745  0.00  0.00    +0.000 A 
ATOM     11  C   UNL     1     -11.251   6.617 131.148  0.00  0.00    +0.000 A 
ATOM     12  C   UNL     1     -12.321   7.009 130.348  0.00  0.00    +0.000 A 
ATOM     13  C   UNL     1     -12.075   7.711 129.176  0.00  0.00    +0.000 A 
ATOM     14  C   UNL     1     -10.754   7.992 128.857  0.00  0.00    +0.000 A 
ATOM     15  N   UNL     1      -9.688   7.604 129.607  0.00  0.00    +0.000 NA
ENDBRANCH   1  10
BRANCH   2  16
ATOM     16  C   UNL     1      -8.210   5.616 133.988  0.00  0.00    +0.000 C 
BRANCH  16  17
ATOM     17  N   UNL     1      -8.482   4.230 134.371  0.00  0.00    +0.000 NA
ATOM     18  C   UNL     1      -7.181   3.538 134.431  0.00  0.00    +0.000 C 
ATOM     19  C   UNL     1      -7.055   2.801 133.124  0.00  0.00    +0.000 C 
ATOM     20  C   UNL     1      -8.460   2.299 132.929  0.00  0.00    +0.000 C 
ATOM     21  C   UNL     1      -9.325   3.460 133.427  0.00  0.00    +0.000 C 
ENDBRANCH  16  17
ENDBRANCH   2  16
TORSDOF 4
ENDMDL
MODEL 7
REMARK VINA RESULT:      -6.9      7.893     10.158
REMARK  Name = Triprolidine
REMARK  5 active torsions:
REMARK  status: ('A' for Active; 'I' for Inactive)
REMARK    1  A    between atoms: C_1  and  C_2
REMARK    2  A    between atoms: C_5  and  C_8
REMARK    3  A    between atoms: C_8  and  C_16
REMARK    4  A    between atoms: C_9  and  C_10
REMARK    5  A    between atoms: C_10  and  N_11
REMARK                            x       y       z     vdW  Elec       q    Type
REMARK                         _______ _______ _______ _____ _____    ______ ____
ROOT
ATOM      1  C   UNL     1      -8.886   6.321 130.673  0.00  0.00    +0.000 C 
ATOM      2  C   UNL     1      -7.793   7.090 130.942  0.00  0.00    +0.000 C 
ENDROOT
BRANCH   1   7
ATOM      3  C   UNL     1      -9.418   0.632 131.814  0.00  0.00    +0.000 C 
ATOM      4  C   UNL     1      -9.224   2.077 131.506  0.00  0.00    +0.000 A 
ATOM      5  C   UNL     1      -9.281   2.985 132.541  0.00  0.00    +0.000 A 
ATOM      6  C   UNL     1      -9.151   4.334 132.272  0.00  0.00    +0.000 A 
ATOM      7  C   UNL     1      -8.935   4.855 130.988  0.00  0.00    +0.000 A 
ATOM      8  C   UNL     1      -8.831   3.907 129.958  0.00  0.00    +0.000 A 
ATOM      9  C   UNL     1      -8.996   2.539 130.209  0.00  0.00    +0.000 A 
ENDBRANCH   1   7
BRANCH   1  10
ATOM     10  C   UNL     1     -10.064   7.093 130.134  0.00  0.00    +0.000 A 
ATOM     11  C   UNL     1     -11.313   6.958 130.740  0.00  0.00    +0.000 A 
ATOM     12  C   UNL     1     -12.424   7.574 130.169  0.00  0.00    +0.000 A 
ATOM     13  C   UNL     1     -12.266   8.342 129.025  0.00  0.00    +0.000 A 
ATOM     14  C   UNL     1     -10.988   8.460 128.498  0.00  0.00    +0.000 A 
ATOM     15  N   UNL     1      -9.888   7.854 129.020  0.00  0.00    +0.000 NA
ENDBRANCH   1  10
BRANCH   2  16
ATOM     16  C   UNL     1      -6.374   6.699 131.328  0.00  0.00    +0.000 C 
BRANCH  16  17
ATOM     17  N   UNL     1      -5.485   6.804 130.171  0.00  0.00    +0.000 NA
ATOM     18  C   UNL     1      -4.970   5.448 129.901  0.00  0.00    +0.000 C 
ATOM     19  C   UNL     1      -3.602   5.403 130.528  0.00  0.00    +0.000 C 
ATOM     20  C   UNL     1      -3.074   6.771 130.191  0.00  0.00    +0.000 C 
ATOM     21  C   UNL     1      -4.299   7.674 130.353  0.00  0.00    +0.000 C 
ENDBRANCH  16  17
ENDBRANCH   2  16
TORSDOF 4
ENDMDL
MODEL 8
REMARK VINA RESULT:      -6.8      5.087      7.636
REMARK  Name = Triprolidine
REMARK  5 active torsions:
REMARK  status: ('A' for Active; 'I' for Inactive)
REMARK    1  A    between atoms: C_1  and  C_2
REMARK    2  A    between atoms: C_5  and  C_8
REMARK    3  A    between atoms: C_8  and  C_16
REMARK    4  A    between atoms: C_9  and  C_10
REMARK    5  A    between atoms: C_10  and  N_11
REMARK                            x       y       z     vdW  Elec       q    Type
REMARK                         _______ _______ _______ _____ _____    ______ ____
ROOT
ATOM      1  C   UNL     1      -7.108  -2.214 129.815  0.00  0.00    +0.000 C 
ATOM      2  C   UNL     1      -7.225  -0.927 130.247  0.00  0.00    +0.000 C 
ENDROOT
BRANCH   1   7
ATOM      3  C   UNL     1      -8.635  -3.513 124.344  0.00  0.00    +0.000 C 
ATOM      4  C   UNL     1      -8.195  -3.217 125.736  0.00  0.00    +0.000 A 
ATOM      5  C   UNL     1      -8.973  -3.664 126.783  0.00  0.00    +0.000 A 
ATOM      6  C   UNL     1      -8.609  -3.360 128.080  0.00  0.00    +0.000 A 
ATOM      7  C   UNL     1      -7.461  -2.629 128.416  0.00  0.00    +0.000 A 
ATOM      8  C   UNL     1      -6.659  -2.227 127.336  0.00  0.00    +0.000 A 
ATOM      9  C   UNL     1      -7.033  -2.497 126.014  0.00  0.00    +0.000 A 
ENDBRANCH   1   7
BRANCH   1  10
ATOM     10  C   UNL     1      -6.500  -3.150 130.829  0.00  0.00    +0.000 A 
ATOM     11  C   UNL     1      -5.863  -4.314 130.398  0.00  0.00    +0.000 A 
ATOM     12  C   UNL     1      -5.410  -5.238 131.336  0.00  0.00    +0.000 A 
ATOM     13  C   UNL     1      -5.569  -4.970 132.688  0.00  0.00    +0.000 A 
ATOM     14  C   UNL     1      -6.180  -3.776 133.043  0.00  0.00    +0.000 A 
ATOM     15  N   UNL     1      -6.651  -2.865 132.150  0.00  0.00    +0.000 NA
ENDBRANCH   1  10
BRANCH   2  16
ATOM     16  C   UNL     1      -7.922   0.272 129.619  0.00  0.00    +0.000 C 
BRANCH  16  17
ATOM     17  N   UNL     1      -7.889   1.415 130.533  0.00  0.00    +0.000 NA
ATOM     18  C   UNL     1      -8.283   0.913 131.863  0.00  0.00    +0.000 C 
ATOM     19  C   UNL     1      -9.740   1.262 132.011  0.00  0.00    +0.000 C 
ATOM     20  C   UNL     1      -9.781   2.634 131.395  0.00  0.00    +0.000 C 
ATOM     21  C   UNL     1      -8.821   2.520 130.208  0.00  0.00    +0.000 C 
ENDBRANCH  16  17
ENDBRANCH   2  16
TORSDOF 4
ENDMDL
MODEL 9
REMARK VINA RESULT:      -6.7      8.143     10.244
REMARK  Name = Triprolidine
REMARK  5 active torsions:
REMARK  status: ('A' for Active; 'I' for Inactive)
REMARK    1  A    between atoms: C_1  and  C_2
REMARK    2  A    between atoms: C_5  and  C_8
REMARK    3  A    between atoms: C_8  and  C_16
REMARK    4  A    between atoms: C_9  and  C_10
REMARK    5  A    between atoms: C_10  and  N_11
REMARK                            x       y       z     vdW  Elec       q    Type
REMARK                         _______ _______ _______ _____ _____    ______ ____
ROOT
ATOM      1  C   UNL     1     -10.022   4.646 131.106  0.00  0.00    +0.000 C 
ATOM      2  C   UNL     1      -9.837   3.628 130.219  0.00  0.00    +0.000 C 
ENDROOT
BRANCH   1   7
ATOM      3  C   UNL     1      -6.443   5.104 135.681  0.00  0.00    +0.000 C 
ATOM      4  C   UNL     1      -7.378   5.043 134.523  0.00  0.00    +0.000 A 
ATOM      5  C   UNL     1      -8.421   4.143 134.564  0.00  0.00    +0.000 A 
ATOM      6  C   UNL     1      -9.272   4.036 133.481  0.00  0.00    +0.000 A 
ATOM      7  C   UNL     1      -9.161   4.818 132.323  0.00  0.00    +0.000 A 
ATOM      8  C   UNL     1      -8.121   5.762 132.325  0.00  0.00    +0.000 A 
ATOM      9  C   UNL     1      -7.228   5.857 133.400  0.00  0.00    +0.000 A 
ENDBRANCH   1   7
BRANCH   1  10
ATOM     10  C   UNL     1     -11.091   5.629 130.701  0.00  0.00    +0.000 A 
ATOM     11  C   UNL     1     -11.618   6.503 131.650  0.00  0.00    +0.000 A 
ATOM     12  C   UNL     1     -12.689   7.326 131.308  0.00  0.00    +0.000 A 
ATOM     13  C   UNL     1     -13.192   7.287 130.016  0.00  0.00    +0.000 A 
ATOM     14  C   UNL     1     -12.594   6.418 129.115  0.00  0.00    +0.000 A 
ATOM     15  N   UNL     1     -11.562   5.588 129.426  0.00  0.00    +0.000 NA
ENDBRANCH   1  10
BRANCH   2  16
ATOM     16  C   UNL     1      -9.000   2.361 130.321  0.00  0.00    +0.000 C 
BRANCH  16  17
ATOM     17  N   UNL     1      -7.806   2.471 129.482  0.00  0.00    +0.000 NA
ATOM     18  C   UNL     1      -6.667   2.002 130.294  0.00  0.00    +0.000 C 
ATOM     19  C   UNL     1      -6.005   3.248 130.820  0.00  0.00    +0.000 C 
ATOM     20  C   UNL     1      -6.089   4.157 129.624  0.00  0.00    +0.000 C 
ATOM     21  C   UNL     1      -7.465   3.841 129.033  0.00  0.00    +0.000 C 
ENDBRANCH  16  17
ENDBRANCH   2  16
TORSDOF 4
ENDMDL
