MODEL 1
REMARK VINA RESULT:      -6.3      0.000      0.000
REMARK  Name = Tripelennamine
REMARK  8 active torsions:
REMARK  status: ('A' for Active; 'I' for Inactive)
REMARK    1  A    between atoms: C_1  and  N_2
REMARK    2  A    between atoms: N_2  and  C_3
REMARK    3  A    between atoms: N_2  and  C_4
REMARK    4  A    between atoms: C_4  and  C_5
REMARK    5  A    between atoms: C_5  and  N_6
REMARK    6  A    between atoms: N_6  and  C_7
REMARK    7  A    between atoms: N_6  and  C_14
REMARK    8  A    between atoms: C_7  and  C_8
REMARK                            x       y       z     vdW  Elec       q    Type
REMARK                         _______ _______ _______ _____ _____    ______ ____
ROOT
ATOM      1  N   UNL     1      -8.889  -1.414 125.618  0.00  0.00    +0.000 N 
ENDROOT
BRANCH   1   2
ATOM      2  C   UNL     1      -8.574  -2.036 126.852  0.00  0.00    +0.000 A 
ATOM      3  C   UNL     1      -9.056  -3.330 127.106  0.00  0.00    +0.000 A 
ATOM      4  C   UNL     1      -8.768  -3.976 128.315  0.00  0.00    +0.000 A 
ATOM      5  C   UNL     1      -8.018  -3.318 129.260  0.00  0.00    +0.000 A 
ATOM      6  C   UNL     1      -7.570  -2.044 128.953  0.00  0.00    +0.000 A 
ATOM      7  N   UNL     1      -7.816  -1.407 127.769  0.00  0.00    +0.000 NA
ENDBRANCH   1   2
BRANCH   1   8
ATOM      8  C   UNL     1      -8.748   0.067 125.650  0.00  0.00    +0.000 C 
BRANCH   8   9
ATOM      9  C   UNL     1      -9.819   0.877 124.922  0.00  0.00    +0.000 C 
BRANCH   9  11
ATOM     10  C   UNL     1      -8.159   1.627 123.376  0.00  0.00    +0.000 C 
ATOM     11  N   UNL     1      -9.616   1.525 123.612  0.00  0.00    +0.000 NA
ATOM     12  C   UNL     1     -10.179   0.674 122.570  0.00  0.00    +0.000 C 
ENDBRANCH   9  11
ENDBRANCH   8   9
ENDBRANCH   1   8
BRANCH   1  13
ATOM     13  C   UNL     1      -8.959  -2.335 124.455  0.00  0.00    +0.000 C 
BRANCH  13  14
ATOM     14  C   UNL     1      -7.645  -2.725 123.772  0.00  0.00    +0.000 A 
ATOM     15  C   UNL     1      -6.842  -3.742 124.326  0.00  0.00    +0.000 A 
ATOM     16  C   UNL     1      -5.480  -3.819 124.005  0.00  0.00    +0.000 A 
ATOM     17  C   UNL     1      -4.930  -2.964 123.048  0.00  0.00    +0.000 A 
ATOM     18  C   UNL     1      -5.741  -2.025 122.409  0.00  0.00    +0.000 A 
ATOM     19  C   UNL     1      -7.099  -1.921 122.747  0.00  0.00    +0.000 A 
ENDBRANCH  13  14
ENDBRANCH   1  13
TORSDOF 6
ENDMDL
MODEL 2
REMARK VINA RESULT:      -6.2      3.178      6.197
REMARK  Name = Tripelennamine
REMARK  8 active torsions:
REMARK  status: ('A' for Active; 'I' for Inactive)
REMARK    1  A    between atoms: C_1  and  N_2
REMARK    2  A    between atoms: N_2  and  C_3
REMARK    3  A    between atoms: N_2  and  C_4
REMARK    4  A    between atoms: C_4  and  C_5
REMARK    5  A    between atoms: C_5  and  N_6
REMARK    6  A    between atoms: N_6  and  C_7
REMARK    7  A    between atoms: N_6  and  C_14
REMARK    8  A    between atoms: C_7  and  C_8
REMARK                            x       y       z     vdW  Elec       q    Type
REMARK                         _______ _______ _______ _____ _____    ______ ____
ROOT
ATOM      1  N   UNL     1      -8.030   2.335 123.759  0.00  0.00    +0.000 N 
ENDROOT
BRANCH   1   2
ATOM      2  C   UNL     1      -7.802   2.924 122.490  0.00  0.00    +0.000 A 
ATOM      3  C   UNL     1      -6.481   3.117 122.055  0.00  0.00    +0.000 A 
ATOM      4  C   UNL     1      -6.216   3.698 120.808  0.00  0.00    +0.000 A 
ATOM      5  C   UNL     1      -7.269   4.093 120.020  0.00  0.00    +0.000 A 
ATOM      6  C   UNL     1      -8.550   3.877 120.501  0.00  0.00    +0.000 A 
ATOM      7  N   UNL     1      -8.831   3.286 121.702  0.00  0.00    +0.000 NA
ENDBRANCH   1   2
BRANCH   1   8
ATOM      8  C   UNL     1      -8.322   3.328 124.827  0.00  0.00    +0.000 C 
BRANCH   8   9
ATOM      9  C   UNL     1      -7.363   3.364 126.015  0.00  0.00    +0.000 C 
BRANCH   9  11
ATOM     10  C   UNL     1      -5.002   3.327 125.652  0.00  0.00    +0.000 C 
ATOM     11  N   UNL     1      -6.137   4.183 126.063  0.00  0.00    +0.000 NA
ATOM     12  C   UNL     1      -6.253   5.266 125.093  0.00  0.00    +0.000 C 
ENDBRANCH   9  11
ENDBRANCH   8   9
ENDBRANCH   1   8
BRANCH   1  13
ATOM     13  C   UNL     1      -8.279   0.871 123.732  0.00  0.00    +0.000 C 
BRANCH  13  14
ATOM     14  C   UNL     1      -7.071  -0.063 123.843  0.00  0.00    +0.000 A 
ATOM     15  C   UNL     1      -6.845  -1.038 122.852  0.00  0.00    +0.000 A 
ATOM     16  C   UNL     1      -6.048  -2.157 123.131  0.00  0.00    +0.000 A 
ATOM     17  C   UNL     1      -5.377  -2.259 124.351  0.00  0.00    +0.000 A 
ATOM     18  C   UNL     1      -5.503  -1.243 125.300  0.00  0.00    +0.000 A 
ATOM     19  C   UNL     1      -6.324  -0.135 125.040  0.00  0.00    +0.000 A 
ENDBRANCH  13  14
ENDBRANCH   1  13
TORSDOF 6
ENDMDL
MODEL 3
REMARK VINA RESULT:      -6.1      3.421      6.092
REMARK  Name = Tripelennamine
REMARK  8 active torsions:
REMARK  status: ('A' for Active; 'I' for Inactive)
REMARK    1  A    between atoms: C_1  and  N_2
REMARK    2  A    between atoms: N_2  and  C_3
REMARK    3  A    between atoms: N_2  and  C_4
REMARK    4  A    between atoms: C_4  and  C_5
REMARK    5  A    between atoms: C_5  and  N_6
REMARK    6  A    between atoms: N_6  and  C_7
REMARK    7  A    between atoms: N_6  and  C_14
REMARK    8  A    between atoms: C_7  and  C_8
REMARK                            x       y       z     vdW  Elec       q    Type
REMARK                         _______ _______ _______ _____ _____    ______ ____
ROOT
ATOM      1  N   UNL     1      -7.566   1.979 123.669  0.00  0.00    +0.000 N 
ENDROOT
BRANCH   1   2
ATOM      2  C   UNL     1      -7.810   0.608 123.407  0.00  0.00    +0.000 A 
ATOM      3  C   UNL     1      -9.129   0.178 123.190  0.00  0.00    +0.000 A 
ATOM      4  C   UNL     1      -9.410  -1.169 122.931  0.00  0.00    +0.000 A 
ATOM      5  C   UNL     1      -8.375  -2.073 122.909  0.00  0.00    +0.000 A 
ATOM      6  C   UNL     1      -7.096  -1.592 123.129  0.00  0.00    +0.000 A 
ATOM      7  N   UNL     1      -6.797  -0.277 123.355  0.00  0.00    +0.000 NA
ENDBRANCH   1   2
BRANCH   1   8
ATOM      8  C   UNL     1      -8.055   2.422 125.002  0.00  0.00    +0.000 C 
BRANCH   8   9
ATOM      9  C   UNL     1      -8.225   3.926 125.209  0.00  0.00    +0.000 C 
BRANCH   9  11
ATOM     10  C   UNL     1      -7.552   4.056 127.498  0.00  0.00    +0.000 C 
ATOM     11  N   UNL     1      -7.446   4.719 126.179  0.00  0.00    +0.000 NA
ATOM     12  C   UNL     1      -6.042   4.704 125.785  0.00  0.00    +0.000 C 
ENDBRANCH   9  11
ENDBRANCH   8   9
ENDBRANCH   1   8
BRANCH   1  13
ATOM     13  C   UNL     1      -6.589   2.624 122.756  0.00  0.00    +0.000 C 
BRANCH  13  14
ATOM     14  C   UNL     1      -7.139   3.469 121.602  0.00  0.00    +0.000 A 
ATOM     15  C   UNL     1      -8.527   3.510 121.364  0.00  0.00    +0.000 A 
ATOM     16  C   UNL     1      -9.015   3.889 120.106  0.00  0.00    +0.000 A 
ATOM     17  C   UNL     1      -8.141   4.340 119.114  0.00  0.00    +0.000 A 
ATOM     18  C   UNL     1      -6.772   4.410 119.377  0.00  0.00    +0.000 A 
ATOM     19  C   UNL     1      -6.272   4.003 120.623  0.00  0.00    +0.000 A 
ENDBRANCH  13  14
ENDBRANCH   1  13
TORSDOF 6
ENDMDL
MODEL 4
REMARK VINA RESULT:      -6.1      7.924     10.809
REMARK  Name = Tripelennamine
REMARK  8 active torsions:
REMARK  status: ('A' for Active; 'I' for Inactive)
REMARK    1  A    between atoms: C_1  and  N_2
REMARK    2  A    between atoms: N_2  and  C_3
REMARK    3  A    between atoms: N_2  and  C_4
REMARK    4  A    between atoms: C_4  and  C_5
REMARK    5  A    between atoms: C_5  and  N_6
REMARK    6  A    between atoms: N_6  and  C_7
REMARK    7  A    between atoms: N_6  and  C_14
REMARK    8  A    between atoms: C_7  and  C_8
REMARK                            x       y       z     vdW  Elec       q    Type
REMARK                         _______ _______ _______ _____ _____    ______ ____
ROOT
ATOM      1  N   UNL     1     -11.271   5.468 130.887  0.00  0.00    +0.000 N 
ENDROOT
BRANCH   1   2
ATOM      2  C   UNL     1     -11.674   6.474 129.973  0.00  0.00    +0.000 A 
ATOM      3  C   UNL     1     -12.283   7.638 130.466  0.00  0.00    +0.000 A 
ATOM      4  C   UNL     1     -12.697   8.653 129.594  0.00  0.00    +0.000 A 
ATOM      5  C   UNL     1     -12.515   8.486 128.243  0.00  0.00    +0.000 A 
ATOM      6  C   UNL     1     -11.908   7.317 127.815  0.00  0.00    +0.000 A 
ATOM      7  N   UNL     1     -11.471   6.327 128.651  0.00  0.00    +0.000 NA
ENDBRANCH   1   2
BRANCH   1   8
ATOM      8  C   UNL     1     -11.124   4.126 130.262  0.00  0.00    +0.000 C 
BRANCH   8   9
ATOM      9  C   UNL     1     -10.129   3.168 130.913  0.00  0.00    +0.000 C 
BRANCH   9  11
ATOM     10  C   UNL     1      -8.522   3.696 129.226  0.00  0.00    +0.000 C 
ATOM     11  N   UNL     1      -8.880   2.713 130.272  0.00  0.00    +0.000 NA
ATOM     12  C   UNL     1      -7.812   2.708 131.265  0.00  0.00    +0.000 C 
ENDBRANCH   9  11
ENDBRANCH   8   9
ENDBRANCH   1   8
BRANCH   1  13
ATOM     13  C   UNL     1     -10.741   5.975 132.179  0.00  0.00    +0.000 C 
BRANCH  13  14
ATOM     14  C   UNL     1      -9.242   6.277 132.269  0.00  0.00    +0.000 A 
ATOM     15  C   UNL     1      -8.570   6.819 131.156  0.00  0.00    +0.000 A 
ATOM     16  C   UNL     1      -7.177   6.697 131.045  0.00  0.00    +0.000 A 
ATOM     17  C   UNL     1      -6.432   6.141 132.086  0.00  0.00    +0.000 A 
ATOM     18  C   UNL     1      -7.077   5.701 133.244  0.00  0.00    +0.000 A 
ATOM     19  C   UNL     1      -8.473   5.792 133.349  0.00  0.00    +0.000 A 
ENDBRANCH  13  14
ENDBRANCH   1  13
TORSDOF 6
ENDMDL
MODEL 5
REMARK VINA RESULT:      -6.1      8.545     10.641
REMARK  Name = Tripelennamine
REMARK  8 active torsions:
REMARK  status: ('A' for Active; 'I' for Inactive)
REMARK    1  A    between atoms: C_1  and  N_2
REMARK    2  A    between atoms: N_2  and  C_3
REMARK    3  A    between atoms: N_2  and  C_4
REMARK    4  A    between atoms: C_4  and  C_5
REMARK    5  A    between atoms: C_5  and  N_6
REMARK    6  A    between atoms: N_6  and  C_7
REMARK    7  A    between atoms: N_6  and  C_14
REMARK    8  A    between atoms: C_7  and  C_8
REMARK                            x       y       z     vdW  Elec       q    Type
REMARK                         _______ _______ _______ _____ _____    ______ ____
ROOT
ATOM      1  N   UNL     1     -10.392   6.051 131.203  0.00  0.00    +0.000 N 
ENDROOT
BRANCH   1   2
ATOM      2  C   UNL     1     -10.021   4.801 131.759  0.00  0.00    +0.000 A 
ATOM      3  C   UNL     1     -10.219   3.634 131.005  0.00  0.00    +0.000 A 
ATOM      4  C   UNL     1      -9.867   2.380 131.522  0.00  0.00    +0.000 A 
ATOM      5  C   UNL     1      -9.338   2.306 132.787  0.00  0.00    +0.000 A 
ATOM      6  C   UNL     1      -9.165   3.490 133.483  0.00  0.00    +0.000 A 
ATOM      7  N   UNL     1      -9.475   4.726 132.987  0.00  0.00    +0.000 NA
ENDBRANCH   1   2
BRANCH   1   8
ATOM      8  C   UNL     1      -9.417   6.567 130.205  0.00  0.00    +0.000 C 
BRANCH   8   9
ATOM      9  C   UNL     1      -8.106   7.129 130.751  0.00  0.00    +0.000 C 
BRANCH   9  11
ATOM     10  C   UNL     1      -6.267   6.239 131.990  0.00  0.00    +0.000 C 
ATOM     11  N   UNL     1      -6.802   6.450 130.626  0.00  0.00    +0.000 NA
ATOM     12  C   UNL     1      -7.005   5.140 130.019  0.00  0.00    +0.000 C 
ENDBRANCH   9  11
ENDBRANCH   8   9
ENDBRANCH   1   8
BRANCH   1  13
ATOM     13  C   UNL     1     -11.805   6.443 131.438  0.00  0.00    +0.000 C 
BRANCH  13  14
ATOM     14  C   UNL     1     -12.550   7.152 130.303  0.00  0.00    +0.000 A 
ATOM     15  C   UNL     1     -12.928   6.429 129.154  0.00  0.00    +0.000 A 
ATOM     16  C   UNL     1     -13.196   7.101 127.954  0.00  0.00    +0.000 A 
ATOM     17  C   UNL     1     -13.205   8.497 127.912  0.00  0.00    +0.000 A 
ATOM     18  C   UNL     1     -12.942   9.227 129.073  0.00  0.00    +0.000 A 
ATOM     19  C   UNL     1     -12.642   8.561 130.271  0.00  0.00    +0.000 A 
ENDBRANCH  13  14
ENDBRANCH   1  13
TORSDOF 6
ENDMDL
MODEL 6
REMARK VINA RESULT:      -5.8      1.824      2.955
REMARK  Name = Tripelennamine
REMARK  8 active torsions:
REMARK  status: ('A' for Active; 'I' for Inactive)
REMARK    1  A    between atoms: C_1  and  N_2
REMARK    2  A    between atoms: N_2  and  C_3
REMARK    3  A    between atoms: N_2  and  C_4
REMARK    4  A    between atoms: C_4  and  C_5
REMARK    5  A    between atoms: C_5  and  N_6
REMARK    6  A    between atoms: N_6  and  C_7
REMARK    7  A    between atoms: N_6  and  C_14
REMARK    8  A    between atoms: C_7  and  C_8
REMARK                            x       y       z     vdW  Elec       q    Type
REMARK                         _______ _______ _______ _____ _____    ______ ____
ROOT
ATOM      1  N   UNL     1      -5.896  -1.683 126.449  0.00  0.00    +0.000 N 
ENDROOT
BRANCH   1   2
ATOM      2  C   UNL     1      -6.180  -2.283 127.701  0.00  0.00    +0.000 A 
ATOM      3  C   UNL     1      -7.519  -2.458 128.085  0.00  0.00    +0.000 A 
ATOM      4  C   UNL     1      -7.839  -3.045 129.316  0.00  0.00    +0.000 A 
ATOM      5  C   UNL     1      -6.822  -3.433 130.154  0.00  0.00    +0.000 A 
ATOM      6  C   UNL     1      -5.521  -3.236 129.721  0.00  0.00    +0.000 A 
ATOM      7  N   UNL     1      -5.187  -2.691 128.512  0.00  0.00    +0.000 NA
ENDBRANCH   1   2
BRANCH   1   8
ATOM      8  C   UNL     1      -5.500  -0.253 126.555  0.00  0.00    +0.000 C 
BRANCH   8   9
ATOM      9  C   UNL     1      -6.600   0.784 126.339  0.00  0.00    +0.000 C 
BRANCH   9  11
ATOM     10  C   UNL     1      -8.985   0.905 126.376  0.00  0.00    +0.000 C 
ATOM     11  N   UNL     1      -7.818   0.543 125.543  0.00  0.00    +0.000 NA
ATOM     12  C   UNL     1      -7.807   1.425 124.382  0.00  0.00    +0.000 C 
ENDBRANCH   9  11
ENDBRANCH   8   9
ENDBRANCH   1   8
BRANCH   1  13
ATOM     13  C   UNL     1      -5.705  -2.639 125.328  0.00  0.00    +0.000 C 
BRANCH  13  14
ATOM     14  C   UNL     1      -6.877  -2.858 124.367  0.00  0.00    +0.000 A 
ATOM     15  C   UNL     1      -6.978  -2.078 123.198  0.00  0.00    +0.000 A 
ATOM     16  C   UNL     1      -8.213  -1.936 122.549  0.00  0.00    +0.000 A 
ATOM     17  C   UNL     1      -9.327  -2.657 122.986  0.00  0.00    +0.000 A 
ATOM     18  C   UNL     1      -9.211  -3.521 124.076  0.00  0.00    +0.000 A 
ATOM     19  C   UNL     1      -7.986  -3.644 124.749  0.00  0.00    +0.000 A 
ENDBRANCH  13  14
ENDBRANCH   1  13
TORSDOF 6
ENDMDL
MODEL 7
REMARK VINA RESULT:      -5.8      7.301     10.211
REMARK  Name = Tripelennamine
REMARK  8 active torsions:
REMARK  status: ('A' for Active; 'I' for Inactive)
REMARK    1  A    between atoms: C_1  and  N_2
REMARK    2  A    between atoms: N_2  and  C_3
REMARK    3  A    between atoms: N_2  and  C_4
REMARK    4  A    between atoms: C_4  and  C_5
REMARK    5  A    between atoms: C_5  and  N_6
REMARK    6  A    between atoms: N_6  and  C_7
REMARK    7  A    between atoms: N_6  and  C_14
REMARK    8  A    between atoms: C_7  and  C_8
REMARK                            x       y       z     vdW  Elec       q    Type
REMARK                         _______ _______ _______ _____ _____    ______ ____
ROOT
ATOM      1  N   UNL     1      -9.762   6.105 130.725  0.00  0.00    +0.000 N 
ENDROOT
BRANCH   1   2
ATOM      2  C   UNL     1      -9.162   5.025 130.030  0.00  0.00    +0.000 A 
ATOM      3  C   UNL     1      -9.670   3.729 130.212  0.00  0.00    +0.000 A 
ATOM      4  C   UNL     1      -9.101   2.637 129.545  0.00  0.00    +0.000 A 
ATOM      5  C   UNL     1      -8.024   2.849 128.719  0.00  0.00    +0.000 A 
ATOM      6  C   UNL     1      -7.566   4.148 128.578  0.00  0.00    +0.000 A 
ATOM      7  N   UNL     1      -8.125   5.231 129.198  0.00  0.00    +0.000 NA
ENDBRANCH   1   2
BRANCH   1   8
ATOM      8  C   UNL     1      -9.898   5.864 132.187  0.00  0.00    +0.000 C 
BRANCH   8   9
ATOM      9  C   UNL     1      -8.615   5.906 133.014  0.00  0.00    +0.000 C 
BRANCH   9  11
ATOM     10  C   UNL     1      -9.107   3.734 133.877  0.00  0.00    +0.000 C 
ATOM     11  N   UNL     1      -8.033   4.735 133.696  0.00  0.00    +0.000 NA
ATOM     12  C   UNL     1      -7.013   4.144 132.837  0.00  0.00    +0.000 C 
ENDBRANCH   9  11
ENDBRANCH   8   9
ENDBRANCH   1   8
BRANCH   1  13
ATOM     13  C   UNL     1      -9.824   7.379 129.965  0.00  0.00    +0.000 C 
BRANCH  13  14
ATOM     14  C   UNL     1     -10.924   7.529 128.909  0.00  0.00    +0.000 A 
ATOM     15  C   UNL     1     -12.265   7.266 129.253  0.00  0.00    +0.000 A 
ATOM     16  C   UNL     1     -13.203   6.966 128.255  0.00  0.00    +0.000 A 
ATOM     17  C   UNL     1     -12.848   7.039 126.907  0.00  0.00    +0.000 A 
ATOM     18  C   UNL     1     -11.550   7.409 126.550  0.00  0.00    +0.000 A 
ATOM     19  C   UNL     1     -10.597   7.680 127.544  0.00  0.00    +0.000 A 
ENDBRANCH  13  14
ENDBRANCH   1  13
TORSDOF 6
ENDMDL
MODEL 8
REMARK VINA RESULT:      -5.8      1.398      4.478
REMARK  Name = Tripelennamine
REMARK  8 active torsions:
REMARK  status: ('A' for Active; 'I' for Inactive)
REMARK    1  A    between atoms: C_1  and  N_2
REMARK    2  A    between atoms: N_2  and  C_3
REMARK    3  A    between atoms: N_2  and  C_4
REMARK    4  A    between atoms: C_4  and  C_5
REMARK    5  A    between atoms: C_5  and  N_6
REMARK    6  A    between atoms: N_6  and  C_7
REMARK    7  A    between atoms: N_6  and  C_14
REMARK    8  A    between atoms: C_7  and  C_8
REMARK                            x       y       z     vdW  Elec       q    Type
REMARK                         _______ _______ _______ _____ _____    ______ ____
ROOT
ATOM      1  N   UNL     1      -7.646  -1.865 124.147  0.00  0.00    +0.000 N 
ENDROOT
BRANCH   1   2
ATOM      2  C   UNL     1      -6.559  -2.763 124.001  0.00  0.00    +0.000 A 
ATOM      3  C   UNL     1      -5.322  -2.269 123.557  0.00  0.00    +0.000 A 
ATOM      4  C   UNL     1      -4.225  -3.126 123.398  0.00  0.00    +0.000 A 
ATOM      5  C   UNL     1      -4.380  -4.464 123.667  0.00  0.00    +0.000 A 
ATOM      6  C   UNL     1      -5.623  -4.893 124.102  0.00  0.00    +0.000 A 
ATOM      7  N   UNL     1      -6.698  -4.069 124.291  0.00  0.00    +0.000 NA
ENDBRANCH   1   2
BRANCH   1   8
ATOM      8  C   UNL     1      -7.563  -0.685 123.247  0.00  0.00    +0.000 C 
BRANCH   8   9
ATOM      9  C   UNL     1      -7.736   0.689 123.893  0.00  0.00    +0.000 C 
BRANCH   9  11
ATOM     10  C   UNL     1      -8.842   2.744 124.400  0.00  0.00    +0.000 C 
ATOM     11  N   UNL     1      -9.044   1.291 124.214  0.00  0.00    +0.000 NA
ATOM     12  C   UNL     1      -9.942   1.106 123.081  0.00  0.00    +0.000 C 
ENDBRANCH   9  11
ENDBRANCH   8   9
ENDBRANCH   1   8
BRANCH   1  13
ATOM     13  C   UNL     1      -8.811  -2.413 124.887  0.00  0.00    +0.000 C 
BRANCH  13  14
ATOM     14  C   UNL     1      -8.744  -2.429 126.417  0.00  0.00    +0.000 A 
ATOM     15  C   UNL     1      -8.076  -1.393 127.100  0.00  0.00    +0.000 A 
ATOM     16  C   UNL     1      -7.621  -1.592 128.411  0.00  0.00    +0.000 A 
ATOM     17  C   UNL     1      -7.924  -2.771 129.094  0.00  0.00    +0.000 A 
ATOM     18  C   UNL     1      -8.684  -3.760 128.466  0.00  0.00    +0.000 A 
ATOM     19  C   UNL     1      -9.117  -3.582 127.143  0.00  0.00    +0.000 A 
ENDBRANCH  13  14
ENDBRANCH   1  13
TORSDOF 6
ENDMDL
MODEL 9
REMARK VINA RESULT:      -5.8      7.891     10.525
REMARK  Name = Tripelennamine
REMARK  8 active torsions:
REMARK  status: ('A' for Active; 'I' for Inactive)
REMARK    1  A    between atoms: C_1  and  N_2
REMARK    2  A    between atoms: N_2  and  C_3
REMARK    3  A    between atoms: N_2  and  C_4
REMARK    4  A    between atoms: C_4  and  C_5
REMARK    5  A    between atoms: C_5  and  N_6
REMARK    6  A    between atoms: N_6  and  C_7
REMARK    7  A    between atoms: N_6  and  C_14
REMARK    8  A    between atoms: C_7  and  C_8
REMARK                            x       y       z     vdW  Elec       q    Type
REMARK                         _______ _______ _______ _____ _____    ______ ____
ROOT
ATOM      1  N   UNL     1      -8.539   5.624 130.550  0.00  0.00    +0.000 N 
ENDROOT
BRANCH   1   2
ATOM      2  C   UNL     1      -8.558   5.095 131.865  0.00  0.00    +0.000 A 
ATOM      3  C   UNL     1      -8.038   5.865 132.918  0.00  0.00    +0.000 A 
ATOM      4  C   UNL     1      -8.036   5.376 134.230  0.00  0.00    +0.000 A 
ATOM      5  C   UNL     1      -8.537   4.120 134.473  0.00  0.00    +0.000 A 
ATOM      6  C   UNL     1      -9.037   3.407 133.396  0.00  0.00    +0.000 A 
ATOM      7  N   UNL     1      -9.074   3.877 132.113  0.00  0.00    +0.000 NA
ENDBRANCH   1   2
BRANCH   1   8
ATOM      8  C   UNL     1      -8.435   4.580 129.495  0.00  0.00    +0.000 C 
BRANCH   8   9
ATOM      9  C   UNL     1      -7.027   4.177 129.062  0.00  0.00    +0.000 C 
BRANCH   9  11
ATOM     10  C   UNL     1      -5.128   4.697 130.414  0.00  0.00    +0.000 C 
ATOM     11  N   UNL     1      -5.846   5.054 129.171  0.00  0.00    +0.000 NA
ATOM     12  C   UNL     1      -4.954   4.789 128.049  0.00  0.00    +0.000 C 
ENDBRANCH   9  11
ENDBRANCH   8   9
ENDBRANCH   1   8
BRANCH   1  13
ATOM     13  C   UNL     1      -8.967   7.042 130.442  0.00  0.00    +0.000 C 
BRANCH  13  14
ATOM     14  C   UNL     1     -10.363   7.327 129.880  0.00  0.00    +0.000 A 
ATOM     15  C   UNL     1     -10.502   8.086 128.701  0.00  0.00    +0.000 A 
ATOM     16  C   UNL     1     -11.716   8.724 128.412  0.00  0.00    +0.000 A 
ATOM     17  C   UNL     1     -12.833   8.520 129.225  0.00  0.00    +0.000 A 
ATOM     18  C   UNL     1     -12.738   7.678 130.334  0.00  0.00    +0.000 A 
ATOM     19  C   UNL     1     -11.518   7.061 130.648  0.00  0.00    +0.000 A 
ENDBRANCH  13  14
ENDBRANCH   1  13
TORSDOF 6
ENDMDL
