MODEL 1
REMARK VINA RESULT:      -8.6      0.000      0.000
REMARK  Name = Troglitazone
REMARK  10 active torsions:
REMARK  status: ('A' for Active; 'I' for Inactive)
REMARK    1  A    between atoms: C_1  and  C_2
REMARK    2  A    between atoms: C_3  and  C_4
REMARK    3  A    between atoms: C_9  and  C_10
REMARK    4  A    between atoms: C_9  and  C_11
REMARK    5  A    between atoms: C_11  and  O_12
REMARK    6  A    between atoms: O_12  and  C_13
REMARK    7  A    between atoms: C_16  and  C_17
REMARK    8  A    between atoms: C_17  and  C_18
REMARK    9  A    between atoms: C_28  and  C_29
REMARK   10  A    between atoms: C_30  and  O_31
REMARK                            x       y       z     vdW  Elec       q    Type
REMARK                         _______ _______ _______ _____ _____    ______ ____
ROOT
ATOM      1  C   UNL     1      -8.232  -2.316 125.761  0.00  0.00    +0.000 C 
ENDROOT
BRANCH   1  10
ATOM      2  C   UNL     1      -7.845   1.906 131.918  0.00  0.00    +0.000 C 
ATOM      3  C   UNL     1      -7.835   0.579 131.195  0.00  0.00    +0.000 A 
ATOM      4  C   UNL     1      -8.046   0.442 129.800  0.00  0.00    +0.000 A 
ATOM      5  C   UNL     1      -8.307   1.634 128.913  0.00  0.00    +0.000 C 
ATOM      6  C   UNL     1      -8.004  -0.849 129.213  0.00  0.00    +0.000 A 
ATOM      7  C   UNL     1      -7.800  -1.994 130.018  0.00  0.00    +0.000 A 
ATOM      8  C   UNL     1      -7.779  -3.365 129.398  0.00  0.00    +0.000 C 
ATOM      9  C   UNL     1      -8.370  -3.346 128.014  0.00  0.00    +0.000 C 
ATOM     10  C   UNL     1      -7.747  -2.192 127.231  0.00  0.00    +0.000 C 
ATOM     11  C   UNL     1      -6.203  -2.246 127.200  0.00  0.00    +0.000 C 
ATOM     12  O   UNL     1      -8.164  -0.938 127.832  0.00  0.00    +0.000 OA
ATOM     13  C   UNL     1      -7.557  -1.860 131.402  0.00  0.00    +0.000 A 
ATOM     14  C   UNL     1      -7.264  -3.069 132.254  0.00  0.00    +0.000 C 
ATOM     15  C   UNL     1      -7.590  -0.576 131.967  0.00  0.00    +0.000 A 
BRANCH  15  16
ATOM     16  O   UNL     1      -7.382  -0.386 133.313  0.00  0.00    +0.000 OA
ATOM     17  H   UNL     1      -6.447  -0.208 133.489  0.00  0.00    +0.000 HD
ENDBRANCH  15  16
ENDBRANCH   1  10
BRANCH   1  18
ATOM     18  O   UNL     1      -9.239  -1.298 125.551  0.00  0.00    +0.000 OA
BRANCH  18  19
ATOM     19  C   UNL     1      -8.831  -0.168 124.917  0.00  0.00    +0.000 A 
ATOM     20  C   UNL     1      -7.721  -0.257 124.074  0.00  0.00    +0.000 A 
ATOM     21  C   UNL     1      -7.234   0.878 123.409  0.00  0.00    +0.000 A 
ATOM     22  C   UNL     1      -7.855   2.120 123.593  0.00  0.00    +0.000 A 
ATOM     23  C   UNL     1      -8.953   2.167 124.453  0.00  0.00    +0.000 A 
ATOM     24  C   UNL     1      -9.423   1.058 125.136  0.00  0.00    +0.000 A 
BRANCH  22  25
ATOM     25  C   UNL     1      -7.320   3.348 122.884  0.00  0.00    +0.000 C 
BRANCH  25  26
ATOM     26  C   UNL     1      -6.866   3.244 121.415  0.00  0.00    +0.000 C 
ATOM     27  S   UNL     1      -5.191   3.912 121.068  0.00  0.00    +0.000 S 
ATOM     28  C   UNL     1      -5.775   4.986 119.814  0.00  0.00    +0.000 C 
ATOM     29  O   UNL     1      -5.113   5.869 119.306  0.00  0.00    +0.000 OA
ATOM     30  N   UNL     1      -7.084   4.736 119.554  0.00  0.00    +0.000 N 
ATOM     31  C   UNL     1      -7.775   3.898 120.386  0.00  0.00    +0.000 C 
ATOM     32  O   UNL     1      -8.975   3.688 120.268  0.00  0.00    +0.000 OA
ATOM     33  H   UNL     1      -7.565   5.273 118.849  0.00  0.00    +0.000 HD
ENDBRANCH  25  26
ENDBRANCH  22  25
ENDBRANCH  18  19
ENDBRANCH   1  18
TORSDOF 6
ENDMDL
MODEL 2
REMARK VINA RESULT:      -8.5      5.866      7.557
REMARK  Name = Troglitazone
REMARK  10 active torsions:
REMARK  status: ('A' for Active; 'I' for Inactive)
REMARK    1  A    between atoms: C_1  and  C_2
REMARK    2  A    between atoms: C_3  and  C_4
REMARK    3  A    between atoms: C_9  and  C_10
REMARK    4  A    between atoms: C_9  and  C_11
REMARK    5  A    between atoms: C_11  and  O_12
REMARK    6  A    between atoms: O_12  and  C_13
REMARK    7  A    between atoms: C_16  and  C_17
REMARK    8  A    between atoms: C_17  and  C_18
REMARK    9  A    between atoms: C_28  and  C_29
REMARK   10  A    between atoms: C_30  and  O_31
REMARK                            x       y       z     vdW  Elec       q    Type
REMARK                         _______ _______ _______ _____ _____    ______ ____
ROOT
ATOM      1  C   UNL     1      -8.513   2.014 132.919  0.00  0.00    +0.000 C 
ENDROOT
BRANCH   1  10
ATOM      2  C   UNL     1      -5.196  -4.615 133.889  0.00  0.00    +0.000 C 
ATOM      3  C   UNL     1      -5.940  -3.592 133.062  0.00  0.00    +0.000 A 
ATOM      4  C   UNL     1      -6.401  -2.353 133.574  0.00  0.00    +0.000 A 
ATOM      5  C   UNL     1      -6.186  -1.954 135.012  0.00  0.00    +0.000 C 
ATOM      6  C   UNL     1      -7.079  -1.453 132.710  0.00  0.00    +0.000 A 
ATOM      7  C   UNL     1      -7.334  -1.808 131.365  0.00  0.00    +0.000 A 
ATOM      8  C   UNL     1      -8.074  -0.863 130.457  0.00  0.00    +0.000 C 
ATOM      9  C   UNL     1      -8.785   0.204 131.244  0.00  0.00    +0.000 C 
ATOM     10  C   UNL     1      -7.810   0.797 132.259  0.00  0.00    +0.000 C 
ATOM     11  C   UNL     1      -6.510   1.325 131.613  0.00  0.00    +0.000 C 
ATOM     12  O   UNL     1      -7.471  -0.224 133.235  0.00  0.00    +0.000 OA
ATOM     13  C   UNL     1      -6.848  -3.026 130.843  0.00  0.00    +0.000 A 
ATOM     14  C   UNL     1      -7.050  -3.378 129.392  0.00  0.00    +0.000 C 
ATOM     15  C   UNL     1      -6.169  -3.901 131.705  0.00  0.00    +0.000 A 
BRANCH  15  16
ATOM     16  O   UNL     1      -5.692  -5.111 131.259  0.00  0.00    +0.000 OA
ATOM     17  H   UNL     1      -5.009  -5.447 131.857  0.00  0.00    +0.000 HD
ENDBRANCH  15  16
ENDBRANCH   1  10
BRANCH   1  18
ATOM     18  O   UNL     1      -8.064   3.201 132.226  0.00  0.00    +0.000 OA
BRANCH  18  19
ATOM     19  C   UNL     1      -9.027   4.081 131.849  0.00  0.00    +0.000 A 
ATOM     20  C   UNL     1      -9.174   5.250 132.600  0.00  0.00    +0.000 A 
ATOM     21  C   UNL     1     -10.165   6.189 132.279  0.00  0.00    +0.000 A 
ATOM     22  C   UNL     1     -11.030   5.956 131.201  0.00  0.00    +0.000 A 
ATOM     23  C   UNL     1     -10.857   4.770 130.485  0.00  0.00    +0.000 A 
ATOM     24  C   UNL     1      -9.900   3.825 130.813  0.00  0.00    +0.000 A 
BRANCH  22  25
ATOM     25  C   UNL     1     -12.110   6.964 130.863  0.00  0.00    +0.000 C 
BRANCH  25  26
ATOM     26  C   UNL     1     -11.929   7.898 129.651  0.00  0.00    +0.000 C 
ATOM     27  S   UNL     1     -13.161   7.677 128.306  0.00  0.00    +0.000 S 
ATOM     28  C   UNL     1     -11.928   7.425 127.088  0.00  0.00    +0.000 C 
ATOM     29  O   UNL     1     -12.150   7.027 125.962  0.00  0.00    +0.000 OA
ATOM     30  N   UNL     1     -10.697   7.664 127.610  0.00  0.00    +0.000 N 
ATOM     31  C   UNL     1     -10.575   7.843 128.960  0.00  0.00    +0.000 C 
ATOM     32  O   UNL     1      -9.492   7.979 129.515  0.00  0.00    +0.000 OA
ATOM     33  H   UNL     1      -9.881   7.564 127.027  0.00  0.00    +0.000 HD
ENDBRANCH  25  26
ENDBRANCH  22  25
ENDBRANCH  18  19
ENDBRANCH   1  18
TORSDOF 6
ENDMDL
MODEL 3
REMARK VINA RESULT:      -8.4      5.758      7.409
REMARK  Name = Troglitazone
REMARK  10 active torsions:
REMARK  status: ('A' for Active; 'I' for Inactive)
REMARK    1  A    between atoms: C_1  and  C_2
REMARK    2  A    between atoms: C_3  and  C_4
REMARK    3  A    between atoms: C_9  and  C_10
REMARK    4  A    between atoms: C_9  and  C_11
REMARK    5  A    between atoms: C_11  and  O_12
REMARK    6  A    between atoms: O_12  and  C_13
REMARK    7  A    between atoms: C_16  and  C_17
REMARK    8  A    between atoms: C_17  and  C_18
REMARK    9  A    between atoms: C_28  and  C_29
REMARK   10  A    between atoms: C_30  and  O_31
REMARK                            x       y       z     vdW  Elec       q    Type
REMARK                         _______ _______ _______ _____ _____    ______ ____
ROOT
ATOM      1  C   UNL     1      -7.885   2.097 130.623  0.00  0.00    +0.000 C 
ENDROOT
BRANCH   1  10
ATOM      2  C   UNL     1      -5.546  -5.001 130.781  0.00  0.00    +0.000 C 
ATOM      3  C   UNL     1      -5.378  -3.524 131.053  0.00  0.00    +0.000 A 
ATOM      4  C   UNL     1      -6.324  -2.541 130.666  0.00  0.00    +0.000 A 
ATOM      5  C   UNL     1      -7.592  -2.901 129.934  0.00  0.00    +0.000 C 
ATOM      6  C   UNL     1      -6.080  -1.179 130.981  0.00  0.00    +0.000 A 
ATOM      7  C   UNL     1      -4.884  -0.799 131.632  0.00  0.00    +0.000 A 
ATOM      8  C   UNL     1      -4.616   0.650 131.944  0.00  0.00    +0.000 C 
ATOM      9  C   UNL     1      -5.524   1.554 131.155  0.00  0.00    +0.000 C 
ATOM     10  C   UNL     1      -6.957   1.043 131.285  0.00  0.00    +0.000 C 
ATOM     11  C   UNL     1      -7.417   0.899 132.753  0.00  0.00    +0.000 C 
ATOM     12  O   UNL     1      -7.057  -0.249 130.630  0.00  0.00    +0.000 OA
ATOM     13  C   UNL     1      -3.955  -1.776 132.048  0.00  0.00    +0.000 A 
ATOM     14  C   UNL     1      -2.714  -1.386 132.810  0.00  0.00    +0.000 C 
ATOM     15  C   UNL     1      -4.215  -3.121 131.742  0.00  0.00    +0.000 A 
BRANCH  15  16
ATOM     16  O   UNL     1      -3.336  -4.115 132.103  0.00  0.00    +0.000 OA
ATOM     17  H   UNL     1      -2.448  -3.752 132.229  0.00  0.00    +0.000 HD
ENDBRANCH  15  16
ENDBRANCH   1  10
BRANCH   1  18
ATOM     18  O   UNL     1      -8.990   2.330 131.527  0.00  0.00    +0.000 OA
BRANCH  18  19
ATOM     19  C   UNL     1      -9.698   3.473 131.334  0.00  0.00    +0.000 A 
ATOM     20  C   UNL     1      -9.384   4.578 132.130  0.00  0.00    +0.000 A 
ATOM     21  C   UNL     1     -10.094   5.780 131.999  0.00  0.00    +0.000 A 
ATOM     22  C   UNL     1     -11.136   5.882 131.069  0.00  0.00    +0.000 A 
ATOM     23  C   UNL     1     -11.425   4.752 130.302  0.00  0.00    +0.000 A 
ATOM     24  C   UNL     1     -10.749   3.552 130.446  0.00  0.00    +0.000 A 
BRANCH  22  25
ATOM     25  C   UNL     1     -11.912   7.178 130.937  0.00  0.00    +0.000 C 
BRANCH  25  26
ATOM     26  C   UNL     1     -11.794   8.008 129.644  0.00  0.00    +0.000 C 
ATOM     27  S   UNL     1     -13.068   7.648 128.369  0.00  0.00    +0.000 S 
ATOM     28  C   UNL     1     -11.873   7.317 127.132  0.00  0.00    +0.000 C 
ATOM     29  O   UNL     1     -12.126   6.820 126.053  0.00  0.00    +0.000 OA
ATOM     30  N   UNL     1     -10.630   7.624 127.586  0.00  0.00    +0.000 N 
ATOM     31  C   UNL     1     -10.465   7.921 128.910  0.00  0.00    +0.000 C 
ATOM     32  O   UNL     1      -9.367   8.125 129.412  0.00  0.00    +0.000 OA
ATOM     33  H   UNL     1      -9.833   7.491 126.984  0.00  0.00    +0.000 HD
ENDBRANCH  25  26
ENDBRANCH  22  25
ENDBRANCH  18  19
ENDBRANCH   1  18
TORSDOF 6
ENDMDL
MODEL 4
REMARK VINA RESULT:      -8.4      4.542      7.614
REMARK  Name = Troglitazone
REMARK  10 active torsions:
REMARK  status: ('A' for Active; 'I' for Inactive)
REMARK    1  A    between atoms: C_1  and  C_2
REMARK    2  A    between atoms: C_3  and  C_4
REMARK    3  A    between atoms: C_9  and  C_10
REMARK    4  A    between atoms: C_9  and  C_11
REMARK    5  A    between atoms: C_11  and  O_12
REMARK    6  A    between atoms: O_12  and  C_13
REMARK    7  A    between atoms: C_16  and  C_17
REMARK    8  A    between atoms: C_17  and  C_18
REMARK    9  A    between atoms: C_28  and  C_29
REMARK   10  A    between atoms: C_30  and  O_31
REMARK                            x       y       z     vdW  Elec       q    Type
REMARK                         _______ _______ _______ _____ _____    ______ ____
ROOT
ATOM      1  C   UNL     1      -7.338  -1.225 130.099  0.00  0.00    +0.000 C 
ENDROOT
BRANCH   1  10
ATOM      2  C   UNL     1      -9.215  -0.313 122.921  0.00  0.00    +0.000 C 
ATOM      3  C   UNL     1      -8.320  -0.836 124.021  0.00  0.00    +0.000 A 
ATOM      4  C   UNL     1      -8.529  -0.571 125.398  0.00  0.00    +0.000 A 
ATOM      5  C   UNL     1      -9.682   0.273 125.880  0.00  0.00    +0.000 C 
ATOM      6  C   UNL     1      -7.637  -1.120 126.355  0.00  0.00    +0.000 A 
ATOM      7  C   UNL     1      -6.523  -1.885 125.938  0.00  0.00    +0.000 A 
ATOM      8  C   UNL     1      -5.564  -2.446 126.954  0.00  0.00    +0.000 C 
ATOM      9  C   UNL     1      -5.731  -1.776 128.290  0.00  0.00    +0.000 C 
ATOM     10  C   UNL     1      -7.218  -1.747 128.642  0.00  0.00    +0.000 C 
ATOM     11  C   UNL     1      -7.873  -3.146 128.611  0.00  0.00    +0.000 C 
ATOM     12  O   UNL     1      -7.906  -0.882 127.701  0.00  0.00    +0.000 OA
ATOM     13  C   UNL     1      -6.328  -2.177 124.572  0.00  0.00    +0.000 A 
ATOM     14  C   UNL     1      -5.186  -3.054 124.126  0.00  0.00    +0.000 C 
ATOM     15  C   UNL     1      -7.225  -1.638 123.636  0.00  0.00    +0.000 A 
BRANCH  15  16
ATOM     16  O   UNL     1      -7.074  -1.871 122.290  0.00  0.00    +0.000 OA
ATOM     17  H   UNL     1      -7.066  -2.823 122.110  0.00  0.00    +0.000 HD
ENDBRANCH  15  16
ENDBRANCH   1  10
BRANCH   1  18
ATOM     18  O   UNL     1      -6.842   0.134 130.114  0.00  0.00    +0.000 OA
BRANCH  18  19
ATOM     19  C   UNL     1      -7.778   1.118 130.145  0.00  0.00    +0.000 A 
ATOM     20  C   UNL     1      -8.716   1.094 131.181  0.00  0.00    +0.000 A 
ATOM     21  C   UNL     1      -9.723   2.066 131.258  0.00  0.00    +0.000 A 
ATOM     22  C   UNL     1      -9.805   3.071 130.285  0.00  0.00    +0.000 A 
ATOM     23  C   UNL     1      -8.856   3.052 129.261  0.00  0.00    +0.000 A 
ATOM     24  C   UNL     1      -7.876   2.079 129.162  0.00  0.00    +0.000 A 
BRANCH  22  25
ATOM     25  C   UNL     1     -10.903   4.113 130.361  0.00  0.00    +0.000 C 
BRANCH  25  26
ATOM     26  C   UNL     1     -10.532   5.599 130.541  0.00  0.00    +0.000 C 
ATOM     27  S   UNL     1     -11.703   6.575 131.565  0.00  0.00    +0.000 S 
ATOM     28  C   UNL     1     -11.948   7.775 130.313  0.00  0.00    +0.000 C 
ATOM     29  O   UNL     1     -12.812   8.628 130.342  0.00  0.00    +0.000 OA
ATOM     30  N   UNL     1     -11.089   7.560 129.283  0.00  0.00    +0.000 N 
ATOM     31  C   UNL     1     -10.358   6.404 129.263  0.00  0.00    +0.000 C 
ATOM     32  O   UNL     1      -9.626   6.099 128.329  0.00  0.00    +0.000 OA
ATOM     33  H   UNL     1     -11.106   8.173 128.483  0.00  0.00    +0.000 HD
ENDBRANCH  25  26
ENDBRANCH  22  25
ENDBRANCH  18  19
ENDBRANCH   1  18
TORSDOF 6
ENDMDL
MODEL 5
REMARK VINA RESULT:      -8.4      4.679      7.760
REMARK  Name = Troglitazone
REMARK  10 active torsions:
REMARK  status: ('A' for Active; 'I' for Inactive)
REMARK    1  A    between atoms: C_1  and  C_2
REMARK    2  A    between atoms: C_3  and  C_4
REMARK    3  A    between atoms: C_9  and  C_10
REMARK    4  A    between atoms: C_9  and  C_11
REMARK    5  A    between atoms: C_11  and  O_12
REMARK    6  A    between atoms: O_12  and  C_13
REMARK    7  A    between atoms: C_16  and  C_17
REMARK    8  A    between atoms: C_17  and  C_18
REMARK    9  A    between atoms: C_28  and  C_29
REMARK   10  A    between atoms: C_30  and  O_31
REMARK                            x       y       z     vdW  Elec       q    Type
REMARK                         _______ _______ _______ _____ _____    ______ ____
ROOT
ATOM      1  C   UNL     1      -8.195   1.119 129.912  0.00  0.00    +0.000 C 
ENDROOT
BRANCH   1  10
ATOM      2  C   UNL     1      -8.029  -4.148 124.610  0.00  0.00    +0.000 C 
ATOM      3  C   UNL     1      -7.940  -2.716 125.086  0.00  0.00    +0.000 A 
ATOM      4  C   UNL     1      -8.153  -2.321 126.431  0.00  0.00    +0.000 A 
ATOM      5  C   UNL     1      -8.497  -3.317 127.510  0.00  0.00    +0.000 C 
ATOM      6  C   UNL     1      -8.033  -0.951 126.780  0.00  0.00    +0.000 A 
ATOM      7  C   UNL     1      -7.749   0.018 125.789  0.00  0.00    +0.000 A 
ATOM      8  C   UNL     1      -7.646   1.474 126.157  0.00  0.00    +0.000 C 
ATOM      9  C   UNL     1      -8.247   1.738 127.510  0.00  0.00    +0.000 C 
ATOM     10  C   UNL     1      -7.706   0.706 128.498  0.00  0.00    +0.000 C 
ATOM     11  C   UNL     1      -6.163   0.669 128.549  0.00  0.00    +0.000 C 
ATOM     12  O   UNL     1      -8.198  -0.608 128.120  0.00  0.00    +0.000 OA
ATOM     13  C   UNL     1      -7.504  -0.375 124.456  0.00  0.00    +0.000 A 
ATOM     14  C   UNL     1      -7.127   0.642 123.409  0.00  0.00    +0.000 C 
ATOM     15  C   UNL     1      -7.614  -1.735 124.127  0.00  0.00    +0.000 A 
BRANCH  15  16
ATOM     16  O   UNL     1      -7.408  -2.174 122.841  0.00  0.00    +0.000 OA
ATOM     17  H   UNL     1      -6.591  -1.798 122.481  0.00  0.00    +0.000 HD
ENDBRANCH  15  16
ENDBRANCH   1  10
BRANCH   1  18
ATOM     18  O   UNL     1      -7.632   2.420 130.202  0.00  0.00    +0.000 OA
BRANCH  18  19
ATOM     19  C   UNL     1      -8.516   3.434 130.386  0.00  0.00    +0.000 A 
ATOM     20  C   UNL     1      -8.013   4.675 130.783  0.00  0.00    +0.000 A 
ATOM     21  C   UNL     1      -8.875   5.757 131.015  0.00  0.00    +0.000 A 
ATOM     22  C   UNL     1     -10.258   5.598 130.858  0.00  0.00    +0.000 A 
ATOM     23  C   UNL     1     -10.720   4.339 130.473  0.00  0.00    +0.000 A 
ATOM     24  C   UNL     1      -9.878   3.258 130.270  0.00  0.00    +0.000 A 
BRANCH  22  25
ATOM     25  C   UNL     1     -11.190   6.764 131.122  0.00  0.00    +0.000 C 
BRANCH  25  26
ATOM     26  C   UNL     1     -11.633   7.666 129.953  0.00  0.00    +0.000 C 
ATOM     27  S   UNL     1     -13.091   7.062 129.013  0.00  0.00    +0.000 S 
ATOM     28  C   UNL     1     -12.246   7.115 127.480  0.00  0.00    +0.000 C 
ATOM     29  O   UNL     1     -12.666   6.629 126.450  0.00  0.00    +0.000 OA
ATOM     30  N   UNL     1     -11.032   7.705 127.635  0.00  0.00    +0.000 N 
ATOM     31  C   UNL     1     -10.578   7.961 128.899  0.00  0.00    +0.000 C 
ATOM     32  O   UNL     1      -9.462   8.413 129.123  0.00  0.00    +0.000 OA
ATOM     33  H   UNL     1     -10.425   7.813 126.837  0.00  0.00    +0.000 HD
ENDBRANCH  25  26
ENDBRANCH  22  25
ENDBRANCH  18  19
ENDBRANCH   1  18
TORSDOF 6
ENDMDL
MODEL 6
REMARK VINA RESULT:      -8.3      6.711      8.998
REMARK  Name = Troglitazone
REMARK  10 active torsions:
REMARK  status: ('A' for Active; 'I' for Inactive)
REMARK    1  A    between atoms: C_1  and  C_2
REMARK    2  A    between atoms: C_3  and  C_4
REMARK    3  A    between atoms: C_9  and  C_10
REMARK    4  A    between atoms: C_9  and  C_11
REMARK    5  A    between atoms: C_11  and  O_12
REMARK    6  A    between atoms: O_12  and  C_13
REMARK    7  A    between atoms: C_16  and  C_17
REMARK    8  A    between atoms: C_17  and  C_18
REMARK    9  A    between atoms: C_28  and  C_29
REMARK   10  A    between atoms: C_30  and  O_31
REMARK                            x       y       z     vdW  Elec       q    Type
REMARK                         _______ _______ _______ _____ _____    ______ ____
ROOT
ATOM      1  C   UNL     1      -7.430   3.491 133.358  0.00  0.00    +0.000 C 
ENDROOT
BRANCH   1  10
ATOM      2  C   UNL     1      -2.588   4.545 127.761  0.00  0.00    +0.000 C 
ATOM      3  C   UNL     1      -3.183   4.889 129.106  0.00  0.00    +0.000 A 
ATOM      4  C   UNL     1      -4.304   4.224 129.664  0.00  0.00    +0.000 A 
ATOM      5  C   UNL     1      -5.005   3.101 128.941  0.00  0.00    +0.000 C 
ATOM      6  C   UNL     1      -4.779   4.614 130.943  0.00  0.00    +0.000 A 
ATOM      7  C   UNL     1      -4.171   5.688 131.635  0.00  0.00    +0.000 A 
ATOM      8  C   UNL     1      -4.692   6.117 132.980  0.00  0.00    +0.000 C 
ATOM      9  C   UNL     1      -6.067   5.561 133.235  0.00  0.00    +0.000 C 
ATOM     10  C   UNL     1      -6.061   4.069 132.907  0.00  0.00    +0.000 C 
ATOM     11  C   UNL     1      -4.970   3.286 133.672  0.00  0.00    +0.000 C 
ATOM     12  O   UNL     1      -5.849   3.902 131.481  0.00  0.00    +0.000 OA
ATOM     13  C   UNL     1      -3.037   6.332 131.098  0.00  0.00    +0.000 A 
ATOM     14  C   UNL     1      -2.337   7.427 131.863  0.00  0.00    +0.000 C 
ATOM     15  C   UNL     1      -2.569   5.928 129.838  0.00  0.00    +0.000 A 
BRANCH  15  16
ATOM     16  O   UNL     1      -1.481   6.532 129.255  0.00  0.00    +0.000 OA
ATOM     17  H   UNL     1      -0.709   6.473 129.837  0.00  0.00    +0.000 HD
ENDBRANCH  15  16
ENDBRANCH   1  10
BRANCH   1  18
ATOM     18  O   UNL     1      -8.180   3.174 132.162  0.00  0.00    +0.000 OA
BRANCH  18  19
ATOM     19  C   UNL     1      -9.147   4.058 131.803  0.00  0.00    +0.000 A 
ATOM     20  C   UNL     1      -9.356   5.167 132.628  0.00  0.00    +0.000 A 
ATOM     21  C   UNL     1     -10.355   6.104 132.327  0.00  0.00    +0.000 A 
ATOM     22  C   UNL     1     -11.163   5.932 131.196  0.00  0.00    +0.000 A 
ATOM     23  C   UNL     1     -10.929   4.804 130.407  0.00  0.00    +0.000 A 
ATOM     24  C   UNL     1      -9.964   3.859 130.712  0.00  0.00    +0.000 A 
BRANCH  22  25
ATOM     25  C   UNL     1     -12.251   6.938 130.880  0.00  0.00    +0.000 C 
BRANCH  25  26
ATOM     26  C   UNL     1     -12.122   7.834 129.633  0.00  0.00    +0.000 C 
ATOM     27  S   UNL     1     -13.332   7.487 128.296  0.00  0.00    +0.000 S 
ATOM     28  C   UNL     1     -12.081   7.264 127.090  0.00  0.00    +0.000 C 
ATOM     29  O   UNL     1     -12.274   6.811 125.980  0.00  0.00    +0.000 OA
ATOM     30  N   UNL     1     -10.869   7.598 127.605  0.00  0.00    +0.000 N 
ATOM     31  C   UNL     1     -10.764   7.835 128.948  0.00  0.00    +0.000 C 
ATOM     32  O   UNL     1      -9.694   8.058 129.500  0.00  0.00    +0.000 OA
ATOM     33  H   UNL     1     -10.045   7.526 127.029  0.00  0.00    +0.000 HD
ENDBRANCH  25  26
ENDBRANCH  22  25
ENDBRANCH  18  19
ENDBRANCH   1  18
TORSDOF 6
ENDMDL
MODEL 7
REMARK VINA RESULT:      -8.3      3.080      5.520
REMARK  Name = Troglitazone
REMARK  10 active torsions:
REMARK  status: ('A' for Active; 'I' for Inactive)
REMARK    1  A    between atoms: C_1  and  C_2
REMARK    2  A    between atoms: C_3  and  C_4
REMARK    3  A    between atoms: C_9  and  C_10
REMARK    4  A    between atoms: C_9  and  C_11
REMARK    5  A    between atoms: C_11  and  O_12
REMARK    6  A    between atoms: O_12  and  C_13
REMARK    7  A    between atoms: C_16  and  C_17
REMARK    8  A    between atoms: C_17  and  C_18
REMARK    9  A    between atoms: C_28  and  C_29
REMARK   10  A    between atoms: C_30  and  O_31
REMARK                            x       y       z     vdW  Elec       q    Type
REMARK                         _______ _______ _______ _____ _____    ______ ____
ROOT
ATOM      1  C   UNL     1      -6.112  -0.688 130.119  0.00  0.00    +0.000 C 
ENDROOT
BRANCH   1  10
ATOM      2  C   UNL     1      -8.257   4.631 134.914  0.00  0.00    +0.000 C 
ATOM      3  C   UNL     1      -8.340   3.896 133.596  0.00  0.00    +0.000 A 
ATOM      4  C   UNL     1      -7.471   2.837 133.231  0.00  0.00    +0.000 A 
ATOM      5  C   UNL     1      -6.373   2.356 134.145  0.00  0.00    +0.000 C 
ATOM      6  C   UNL     1      -7.640   2.202 131.973  0.00  0.00    +0.000 A 
ATOM      7  C   UNL     1      -8.635   2.650 131.073  0.00  0.00    +0.000 A 
ATOM      8  C   UNL     1      -8.797   1.990 129.730  0.00  0.00    +0.000 C 
ATOM      9  C   UNL     1      -7.589   1.163 129.380  0.00  0.00    +0.000 C 
ATOM     10  C   UNL     1      -7.235   0.282 130.576  0.00  0.00    +0.000 C 
ATOM     11  C   UNL     1      -8.416  -0.591 131.055  0.00  0.00    +0.000 C 
ATOM     12  O   UNL     1      -6.801   1.131 131.672  0.00  0.00    +0.000 OA
ATOM     13  C   UNL     1      -9.522   3.682 131.445  0.00  0.00    +0.000 A 
ATOM     14  C   UNL     1     -10.632   4.115 130.522  0.00  0.00    +0.000 C 
ATOM     15  C   UNL     1      -9.352   4.294 132.697  0.00  0.00    +0.000 A 
BRANCH  15  16
ATOM     16  O   UNL     1     -10.172   5.318 133.105  0.00  0.00    +0.000 OA
ATOM     17  H   UNL     1     -11.102   5.071 132.997  0.00  0.00    +0.000 HD
ENDBRANCH  15  16
ENDBRANCH   1  10
BRANCH   1  18
ATOM     18  O   UNL     1      -6.747  -1.920 129.704  0.00  0.00    +0.000 OA
BRANCH  18  19
ATOM     19  C   UNL     1      -6.767  -2.169 128.369  0.00  0.00    +0.000 A 
ATOM     20  C   UNL     1      -7.957  -2.646 127.813  0.00  0.00    +0.000 A 
ATOM     21  C   UNL     1      -8.038  -2.946 126.445  0.00  0.00    +0.000 A 
ATOM     22  C   UNL     1      -6.917  -2.778 125.622  0.00  0.00    +0.000 A 
ATOM     23  C   UNL     1      -5.746  -2.311 126.220  0.00  0.00    +0.000 A 
ATOM     24  C   UNL     1      -5.649  -2.040 127.574  0.00  0.00    +0.000 A 
BRANCH  22  25
ATOM     25  C   UNL     1      -7.001  -3.117 124.147  0.00  0.00    +0.000 C 
BRANCH  25  26
ATOM     26  C   UNL     1      -7.574  -2.081 123.159  0.00  0.00    +0.000 C 
ATOM     27  S   UNL     1      -6.801  -0.417 123.241  0.00  0.00    +0.000 S 
ATOM     28  C   UNL     1      -8.335   0.390 123.491  0.00  0.00    +0.000 C 
ATOM     29  O   UNL     1      -8.451   1.554 123.815  0.00  0.00    +0.000 OA
ATOM     30  N   UNL     1      -9.357  -0.493 123.347  0.00  0.00    +0.000 N 
ATOM     31  C   UNL     1      -9.071  -1.827 123.249  0.00  0.00    +0.000 C 
ATOM     32  O   UNL     1      -9.938  -2.690 123.200  0.00  0.00    +0.000 OA
ATOM     33  H   UNL     1     -10.308  -0.178 123.458  0.00  0.00    +0.000 HD
ENDBRANCH  25  26
ENDBRANCH  22  25
ENDBRANCH  18  19
ENDBRANCH   1  18
TORSDOF 6
ENDMDL
MODEL 8
REMARK VINA RESULT:      -8.2      4.781      9.696
REMARK  Name = Troglitazone
REMARK  10 active torsions:
REMARK  status: ('A' for Active; 'I' for Inactive)
REMARK    1  A    between atoms: C_1  and  C_2
REMARK    2  A    between atoms: C_3  and  C_4
REMARK    3  A    between atoms: C_9  and  C_10
REMARK    4  A    between atoms: C_9  and  C_11
REMARK    5  A    between atoms: C_11  and  O_12
REMARK    6  A    between atoms: O_12  and  C_13
REMARK    7  A    between atoms: C_16  and  C_17
REMARK    8  A    between atoms: C_17  and  C_18
REMARK    9  A    between atoms: C_28  and  C_29
REMARK   10  A    between atoms: C_30  and  O_31
REMARK                            x       y       z     vdW  Elec       q    Type
REMARK                         _______ _______ _______ _____ _____    ______ ____
ROOT
ATOM      1  C   UNL     1      -9.047  -1.879 125.749  0.00  0.00    +0.000 C 
ENDROOT
BRANCH   1  10
ATOM      2  C   UNL     1      -4.481   4.035 125.500  0.00  0.00    +0.000 C 
ATOM      3  C   UNL     1      -5.583   3.163 124.944  0.00  0.00    +0.000 A 
ATOM      4  C   UNL     1      -6.012   1.956 125.552  0.00  0.00    +0.000 A 
ATOM      5  C   UNL     1      -5.388   1.437 126.822  0.00  0.00    +0.000 C 
ATOM      6  C   UNL     1      -7.066   1.214 124.957  0.00  0.00    +0.000 A 
ATOM      7  C   UNL     1      -7.651   1.649 123.744  0.00  0.00    +0.000 A 
ATOM      8  C   UNL     1      -8.752   0.848 123.102  0.00  0.00    +0.000 C 
ATOM      9  C   UNL     1      -8.817  -0.543 123.671  0.00  0.00    +0.000 C 
ATOM     10  C   UNL     1      -8.789  -0.451 125.195  0.00  0.00    +0.000 C 
ATOM     11  C   UNL     1      -9.898   0.460 125.767  0.00  0.00    +0.000 C 
ATOM     12  O   UNL     1      -7.496   0.062 125.611  0.00  0.00    +0.000 OA
ATOM     13  C   UNL     1      -7.249   2.865 123.153  0.00  0.00    +0.000 A 
ATOM     14  C   UNL     1      -7.918   3.374 121.902  0.00  0.00    +0.000 C 
ATOM     15  C   UNL     1      -6.214   3.596 123.759  0.00  0.00    +0.000 A 
BRANCH  15  16
ATOM     16  O   UNL     1      -5.765   4.776 123.217  0.00  0.00    +0.000 OA
ATOM     17  H   UNL     1      -6.187   5.531 123.654  0.00  0.00    +0.000 HD
ENDBRANCH  15  16
ENDBRANCH   1  10
BRANCH   1  18
ATOM     18  O   UNL     1      -7.759  -2.511 125.932  0.00  0.00    +0.000 OA
BRANCH  18  19
ATOM     19  C   UNL     1      -7.345  -2.678 127.215  0.00  0.00    +0.000 A 
ATOM     20  C   UNL     1      -8.248  -3.234 128.125  0.00  0.00    +0.000 A 
ATOM     21  C   UNL     1      -7.892  -3.411 129.470  0.00  0.00    +0.000 A 
ATOM     22  C   UNL     1      -6.623  -3.019 129.918  0.00  0.00    +0.000 A 
ATOM     23  C   UNL     1      -5.757  -2.457 128.979  0.00  0.00    +0.000 A 
ATOM     24  C   UNL     1      -6.111  -2.253 127.656  0.00  0.00    +0.000 A 
BRANCH  22  25
ATOM     25  C   UNL     1      -6.245  -3.197 131.374  0.00  0.00    +0.000 C 
BRANCH  25  26
ATOM     26  C   UNL     1      -5.254  -4.309 131.774  0.00  0.00    +0.000 C 
ATOM     27  S   UNL     1      -5.578  -5.091 133.404  0.00  0.00    +0.000 S 
ATOM     28  C   UNL     1      -3.962  -4.759 133.992  0.00  0.00    +0.000 C 
ATOM     29  O   UNL     1      -3.613  -4.891 135.147  0.00  0.00    +0.000 OA
ATOM     30  N   UNL     1      -3.190  -4.265 132.988  0.00  0.00    +0.000 N 
ATOM     31  C   UNL     1      -3.786  -3.917 131.807  0.00  0.00    +0.000 C 
ATOM     32  O   UNL     1      -3.174  -3.389 130.887  0.00  0.00    +0.000 OA
ATOM     33  H   UNL     1      -2.228  -4.028 133.170  0.00  0.00    +0.000 HD
ENDBRANCH  25  26
ENDBRANCH  22  25
ENDBRANCH  18  19
ENDBRANCH   1  18
TORSDOF 6
ENDMDL
MODEL 9
REMARK VINA RESULT:      -8.2      5.782      9.019
REMARK  Name = Troglitazone
REMARK  10 active torsions:
REMARK  status: ('A' for Active; 'I' for Inactive)
REMARK    1  A    between atoms: C_1  and  C_2
REMARK    2  A    between atoms: C_3  and  C_4
REMARK    3  A    between atoms: C_9  and  C_10
REMARK    4  A    between atoms: C_9  and  C_11
REMARK    5  A    between atoms: C_11  and  O_12
REMARK    6  A    between atoms: O_12  and  C_13
REMARK    7  A    between atoms: C_16  and  C_17
REMARK    8  A    between atoms: C_17  and  C_18
REMARK    9  A    between atoms: C_28  and  C_29
REMARK   10  A    between atoms: C_30  and  O_31
REMARK                            x       y       z     vdW  Elec       q    Type
REMARK                         _______ _______ _______ _____ _____    ______ ____
ROOT
ATOM      1  C   UNL     1      -5.766   4.291 124.623  0.00  0.00    +0.000 C 
ENDROOT
BRANCH   1  10
ATOM      2  C   UNL     1      -7.302  -3.022 124.427  0.00  0.00    +0.000 C 
ATOM      3  C   UNL     1      -7.640  -1.570 124.181  0.00  0.00    +0.000 A 
ATOM      4  C   UNL     1      -6.800  -0.492 124.557  0.00  0.00    +0.000 A 
ATOM      5  C   UNL     1      -5.478  -0.715 125.248  0.00  0.00    +0.000 C 
ATOM      6  C   UNL     1      -7.203   0.838 124.268  0.00  0.00    +0.000 A 
ATOM      7  C   UNL     1      -8.453   1.089 123.655  0.00  0.00    +0.000 A 
ATOM      8  C   UNL     1      -8.890   2.501 123.372  0.00  0.00    +0.000 C 
ATOM      9  C   UNL     1      -8.066   3.493 124.148  0.00  0.00    +0.000 C 
ATOM     10  C   UNL     1      -6.589   3.147 123.972  0.00  0.00    +0.000 C 
ATOM     11  C   UNL     1      -6.158   3.072 122.490  0.00  0.00    +0.000 C 
ATOM     12  O   UNL     1      -6.327   1.867 124.605  0.00  0.00    +0.000 OA
ATOM     13  C   UNL     1      -9.278   0.018 123.251  0.00  0.00    +0.000 A 
ATOM     14  C   UNL     1     -10.576   0.275 122.529  0.00  0.00    +0.000 C 
ATOM     15  C   UNL     1      -8.861  -1.292 123.531  0.00  0.00    +0.000 A 
BRANCH  15  16
ATOM     16  O   UNL     1      -9.633  -2.374 123.180  0.00  0.00    +0.000 OA
ATOM     17  H   UNL     1      -9.073  -3.131 122.953  0.00  0.00    +0.000 HD
ENDBRANCH  15  16
ENDBRANCH   1  10
BRANCH   1  18
ATOM     18  O   UNL     1      -4.557   3.704 125.160  0.00  0.00    +0.000 OA
BRANCH  18  19
ATOM     19  C   UNL     1      -4.208   4.081 126.417  0.00  0.00    +0.000 A 
ATOM     20  C   UNL     1      -2.856   4.025 126.764  0.00  0.00    +0.000 A 
ATOM     21  C   UNL     1      -2.432   4.377 128.053  0.00  0.00    +0.000 A 
ATOM     22  C   UNL     1      -3.367   4.782 129.014  0.00  0.00    +0.000 A 
ATOM     23  C   UNL     1      -4.709   4.813 128.630  0.00  0.00    +0.000 A 
ATOM     24  C   UNL     1      -5.140   4.439 127.368  0.00  0.00    +0.000 A 
BRANCH  22  25
ATOM     25  C   UNL     1      -2.910   5.149 130.411  0.00  0.00    +0.000 C 
BRANCH  25  26
ATOM     26  C   UNL     1      -2.270   6.529 130.666  0.00  0.00    +0.000 C 
ATOM     27  S   UNL     1      -0.972   6.557 131.966  0.00  0.00    +0.000 S 
ATOM     28  C   UNL     1      -1.772   7.823 132.872  0.00  0.00    +0.000 C 
ATOM     29  O   UNL     1      -1.460   8.162 133.996  0.00  0.00    +0.000 OA
ATOM     30  N   UNL     1      -2.829   8.308 132.169  0.00  0.00    +0.000 N 
ATOM     31  C   UNL     1      -3.226   7.652 131.037  0.00  0.00    +0.000 C 
ATOM     32  O   UNL     1      -4.218   7.976 130.396  0.00  0.00    +0.000 OA
ATOM     33  H   UNL     1      -3.390   9.049 132.559  0.00  0.00    +0.000 HD
ENDBRANCH  25  26
ENDBRANCH  22  25
ENDBRANCH  18  19
ENDBRANCH   1  18
TORSDOF 6
ENDMDL
