MODEL 1
REMARK VINA RESULT:      -4.5      0.000      0.000
REMARK  Name = Trolamine
REMARK  9 active torsions:
REMARK  status: ('A' for Active; 'I' for Inactive)
REMARK    1  A    between atoms: O_1  and  C_2
REMARK    2  A    between atoms: C_2  and  C_3
REMARK    3  A    between atoms: C_3  and  N_4
REMARK    4  A    between atoms: N_4  and  C_5
REMARK    5  A    between atoms: N_4  and  C_8
REMARK    6  A    between atoms: C_5  and  C_6
REMARK    7  A    between atoms: C_6  and  O_7
REMARK    8  A    between atoms: C_8  and  C_9
REMARK    9  A    between atoms: C_9  and  O_10
REMARK                            x       y       z     vdW  Elec       q    Type
REMARK                         _______ _______ _______ _____ _____    ______ ____
ROOT
ATOM      1  N   UNL     1     -12.043   8.566 129.112  0.00  0.00    +0.000 NA
ENDROOT
BRANCH   1   2
ATOM      2  C   UNL     1     -12.557   7.317 129.736  0.00  0.00    +0.000 C 
BRANCH   2   3
ATOM      3  C   UNL     1     -12.642   7.332 131.271  0.00  0.00    +0.000 C 
BRANCH   3   4
ATOM      4  O   UNL     1     -12.161   6.142 131.878  0.00  0.00    +0.000 OA
ATOM      5  H   UNL     1     -12.200   6.314 132.839  0.00  0.00    +0.000 HD
ENDBRANCH   3   4
ENDBRANCH   2   3
ENDBRANCH   1   2
BRANCH   1   6
ATOM      6  C   UNL     1     -11.307   8.355 127.847  0.00  0.00    +0.000 C 
BRANCH   6   7
ATOM      7  C   UNL     1     -11.867   7.356 126.823  0.00  0.00    +0.000 C 
BRANCH   7   8
ATOM      8  O   UNL     1     -10.804   6.571 126.283  0.00  0.00    +0.000 OA
ATOM      9  H   UNL     1     -10.834   5.723 126.747  0.00  0.00    +0.000 HD
ENDBRANCH   7   8
ENDBRANCH   6   7
ENDBRANCH   1   6
BRANCH   1  10
ATOM     10  C   UNL     1     -13.191   9.489 128.881  0.00  0.00    +0.000 C 
BRANCH  10  11
ATOM     11  C   UNL     1     -13.341  10.638 129.900  0.00  0.00    +0.000 C 
BRANCH  11  12
ATOM     12  O   UNL     1     -13.264  11.903 129.248  0.00  0.00    +0.000 OA
ATOM     13  H   UNL     1     -12.486  11.874 128.659  0.00  0.00    +0.000 HD
ENDBRANCH  11  12
ENDBRANCH  10  11
ENDBRANCH   1  10
TORSDOF 9
ENDMDL
MODEL 2
REMARK VINA RESULT:      -4.4      0.518      4.443
REMARK  Name = Trolamine
REMARK  9 active torsions:
REMARK  status: ('A' for Active; 'I' for Inactive)
REMARK    1  A    between atoms: O_1  and  C_2
REMARK    2  A    between atoms: C_2  and  C_3
REMARK    3  A    between atoms: C_3  and  N_4
REMARK    4  A    between atoms: N_4  and  C_5
REMARK    5  A    between atoms: N_4  and  C_8
REMARK    6  A    between atoms: C_5  and  C_6
REMARK    7  A    between atoms: C_6  and  O_7
REMARK    8  A    between atoms: C_8  and  C_9
REMARK    9  A    between atoms: C_9  and  O_10
REMARK                            x       y       z     vdW  Elec       q    Type
REMARK                         _______ _______ _______ _____ _____    ______ ____
ROOT
ATOM      1  N   UNL     1     -11.825   8.548 129.122  0.00  0.00    +0.000 NA
ENDROOT
BRANCH   1   2
ATOM      2  C   UNL     1     -11.002   8.361 127.895  0.00  0.00    +0.000 C 
BRANCH   2   3
ATOM      3  C   UNL     1     -11.604   7.428 126.832  0.00  0.00    +0.000 C 
BRANCH   3   4
ATOM      4  O   UNL     1     -10.666   6.518 126.277  0.00  0.00    +0.000 OA
ATOM      5  H   UNL     1      -9.793   6.919 126.450  0.00  0.00    +0.000 HD
ENDBRANCH   3   4
ENDBRANCH   2   3
ENDBRANCH   1   2
BRANCH   1   6
ATOM      6  C   UNL     1     -13.025   9.388 128.925  0.00  0.00    +0.000 C 
BRANCH   6   7
ATOM      7  C   UNL     1     -13.306  10.522 129.923  0.00  0.00    +0.000 C 
BRANCH   7   8
ATOM      8  O   UNL     1     -13.238  11.781 129.254  0.00  0.00    +0.000 OA
ATOM      9  H   UNL     1     -12.848  11.603 128.387  0.00  0.00    +0.000 HD
ENDBRANCH   7   8
ENDBRANCH   6   7
ENDBRANCH   1   6
BRANCH   1  10
ATOM     10  C   UNL     1     -12.224   7.206 129.634  0.00  0.00    +0.000 C 
BRANCH  10  11
ATOM     11  C   UNL     1     -11.390   6.664 130.814  0.00  0.00    +0.000 C 
BRANCH  11  12
ATOM     12  O   UNL     1     -12.239   6.249 131.882  0.00  0.00    +0.000 OA
ATOM     13  H   UNL     1     -12.681   7.049 132.223  0.00  0.00    +0.000 HD
ENDBRANCH  11  12
ENDBRANCH  10  11
ENDBRANCH   1  10
TORSDOF 9
ENDMDL
MODEL 3
REMARK VINA RESULT:      -4.3      0.759      3.541
REMARK  Name = Trolamine
REMARK  9 active torsions:
REMARK  status: ('A' for Active; 'I' for Inactive)
REMARK    1  A    between atoms: O_1  and  C_2
REMARK    2  A    between atoms: C_2  and  C_3
REMARK    3  A    between atoms: C_3  and  N_4
REMARK    4  A    between atoms: N_4  and  C_5
REMARK    5  A    between atoms: N_4  and  C_8
REMARK    6  A    between atoms: C_5  and  C_6
REMARK    7  A    between atoms: C_6  and  O_7
REMARK    8  A    between atoms: C_8  and  C_9
REMARK    9  A    between atoms: C_9  and  O_10
REMARK                            x       y       z     vdW  Elec       q    Type
REMARK                         _______ _______ _______ _____ _____    ______ ____
ROOT
ATOM      1  N   UNL     1     -12.712   7.933 128.842  0.00  0.00    +0.000 NA
ENDROOT
BRANCH   1   2
ATOM      2  C   UNL     1     -13.271   9.286 128.570  0.00  0.00    +0.000 C 
BRANCH   2   3
ATOM      3  C   UNL     1     -13.196  10.279 129.741  0.00  0.00    +0.000 C 
BRANCH   3   4
ATOM      4  O   UNL     1     -13.223  11.639 129.333  0.00  0.00    +0.000 OA
ATOM      5  H   UNL     1     -13.729  11.644 128.498  0.00  0.00    +0.000 HD
ENDBRANCH   3   4
ENDBRANCH   2   3
ENDBRANCH   1   2
BRANCH   1   6
ATOM      6  C   UNL     1     -11.328   7.740 128.360  0.00  0.00    +0.000 C 
BRANCH   6   7
ATOM      7  C   UNL     1     -11.066   7.735 126.846  0.00  0.00    +0.000 C 
BRANCH   7   8
ATOM      8  O   UNL     1     -11.822   6.694 126.229  0.00  0.00    +0.000 OA
ATOM      9  H   UNL     1     -11.643   5.893 126.741  0.00  0.00    +0.000 HD
ENDBRANCH   7   8
ENDBRANCH   6   7
ENDBRANCH   1   6
BRANCH   1  10
ATOM     10  C   UNL     1     -12.777   7.680 130.310  0.00  0.00    +0.000 C 
BRANCH  10  11
ATOM     11  C   UNL     1     -11.618   6.846 130.897  0.00  0.00    +0.000 C 
BRANCH  11  12
ATOM     12  O   UNL     1     -12.076   6.042 131.982  0.00  0.00    +0.000 OA
ATOM     13  H   UNL     1     -11.989   5.111 131.704  0.00  0.00    +0.000 HD
ENDBRANCH  11  12
ENDBRANCH  10  11
ENDBRANCH   1  10
TORSDOF 9
ENDMDL
MODEL 4
REMARK VINA RESULT:      -4.3      0.646      4.393
REMARK  Name = Trolamine
REMARK  9 active torsions:
REMARK  status: ('A' for Active; 'I' for Inactive)
REMARK    1  A    between atoms: O_1  and  C_2
REMARK    2  A    between atoms: C_2  and  C_3
REMARK    3  A    between atoms: C_3  and  N_4
REMARK    4  A    between atoms: N_4  and  C_5
REMARK    5  A    between atoms: N_4  and  C_8
REMARK    6  A    between atoms: C_5  and  C_6
REMARK    7  A    between atoms: C_6  and  O_7
REMARK    8  A    between atoms: C_8  and  C_9
REMARK    9  A    between atoms: C_9  and  O_10
REMARK                            x       y       z     vdW  Elec       q    Type
REMARK                         _______ _______ _______ _____ _____    ______ ____
ROOT
ATOM      1  N   UNL     1     -12.406   8.451 128.911  0.00  0.00    +0.000 NA
ENDROOT
BRANCH   1   2
ATOM      2  C   UNL     1     -13.368   9.576 128.748  0.00  0.00    +0.000 C 
BRANCH   2   3
ATOM      3  C   UNL     1     -13.332  10.641 129.855  0.00  0.00    +0.000 C 
BRANCH   3   4
ATOM      4  O   UNL     1     -13.318  11.973 129.362  0.00  0.00    +0.000 OA
ATOM      5  H   UNL     1     -13.997  12.443 129.884  0.00  0.00    +0.000 HD
ENDBRANCH   3   4
ENDBRANCH   2   3
ENDBRANCH   1   2
BRANCH   1   6
ATOM      6  C   UNL     1     -12.758   7.502 129.989  0.00  0.00    +0.000 C 
BRANCH   6   7
ATOM      7  C   UNL     1     -11.628   6.870 130.815  0.00  0.00    +0.000 C 
BRANCH   7   8
ATOM      8  O   UNL     1     -12.180   6.178 131.936  0.00  0.00    +0.000 OA
ATOM      9  H   UNL     1     -13.140   6.209 131.824  0.00  0.00    +0.000 HD
ENDBRANCH   7   8
ENDBRANCH   6   7
ENDBRANCH   1   6
BRANCH   1  10
ATOM     10  C   UNL     1     -12.301   7.725 127.613  0.00  0.00    +0.000 C 
BRANCH  10  11
ATOM     11  C   UNL     1     -10.904   7.729 126.955  0.00  0.00    +0.000 C 
BRANCH  11  12
ATOM     12  O   UNL     1     -10.688   6.523 126.226  0.00  0.00    +0.000 OA
ATOM     13  H   UNL     1     -11.424   5.922 126.443  0.00  0.00    +0.000 HD
ENDBRANCH  11  12
ENDBRANCH  10  11
ENDBRANCH   1  10
TORSDOF 9
ENDMDL
MODEL 5
REMARK VINA RESULT:      -4.3      2.518      4.865
REMARK  Name = Trolamine
REMARK  9 active torsions:
REMARK  status: ('A' for Active; 'I' for Inactive)
REMARK    1  A    between atoms: O_1  and  C_2
REMARK    2  A    between atoms: C_2  and  C_3
REMARK    3  A    between atoms: C_3  and  N_4
REMARK    4  A    between atoms: N_4  and  C_5
REMARK    5  A    between atoms: N_4  and  C_8
REMARK    6  A    between atoms: C_5  and  C_6
REMARK    7  A    between atoms: C_6  and  O_7
REMARK    8  A    between atoms: C_8  and  C_9
REMARK    9  A    between atoms: C_9  and  O_10
REMARK                            x       y       z     vdW  Elec       q    Type
REMARK                         _______ _______ _______ _____ _____    ______ ____
ROOT
ATOM      1  N   UNL     1     -10.900   7.984 129.381  0.00  0.00    +0.000 NA
ENDROOT
BRANCH   1   2
ATOM      2  C   UNL     1     -10.768   8.389 127.955  0.00  0.00    +0.000 C 
BRANCH   2   3
ATOM      3  C   UNL     1     -11.580   7.552 126.953  0.00  0.00    +0.000 C 
BRANCH   3   4
ATOM      4  O   UNL     1     -10.812   6.561 126.287  0.00  0.00    +0.000 OA
ATOM      5  H   UNL     1     -10.128   7.057 125.797  0.00  0.00    +0.000 HD
ENDBRANCH   3   4
ENDBRANCH   2   3
ENDBRANCH   1   2
BRANCH   1   6
ATOM      6  C   UNL     1     -12.061   7.111 129.660  0.00  0.00    +0.000 C 
BRANCH   6   7
ATOM      7  C   UNL     1     -12.770   7.234 131.017  0.00  0.00    +0.000 C 
BRANCH   7   8
ATOM      8  O   UNL     1     -12.270   6.242 131.914  0.00  0.00    +0.000 OA
ATOM      9  H   UNL     1     -12.634   6.460 132.783  0.00  0.00    +0.000 HD
ENDBRANCH   7   8
ENDBRANCH   6   7
ENDBRANCH   1   6
BRANCH   1  10
ATOM     10  C   UNL     1      -9.642   7.302 129.800  0.00  0.00    +0.000 C 
BRANCH  10  11
ATOM     11  C   UNL     1      -9.613   5.772 129.602  0.00  0.00    +0.000 C 
BRANCH  11  12
ATOM     12  O   UNL     1      -9.018   5.436 128.351  0.00  0.00    +0.000 OA
ATOM     13  H   UNL     1      -9.347   4.552 128.106  0.00  0.00    +0.000 HD
ENDBRANCH  11  12
ENDBRANCH  10  11
ENDBRANCH   1  10
TORSDOF 9
ENDMDL
MODEL 6
REMARK VINA RESULT:      -4.3      2.539      3.328
REMARK  Name = Trolamine
REMARK  9 active torsions:
REMARK  status: ('A' for Active; 'I' for Inactive)
REMARK    1  A    between atoms: O_1  and  C_2
REMARK    2  A    between atoms: C_2  and  C_3
REMARK    3  A    between atoms: C_3  and  N_4
REMARK    4  A    between atoms: N_4  and  C_5
REMARK    5  A    between atoms: N_4  and  C_8
REMARK    6  A    between atoms: C_5  and  C_6
REMARK    7  A    between atoms: C_6  and  O_7
REMARK    8  A    between atoms: C_8  and  C_9
REMARK    9  A    between atoms: C_9  and  O_10
REMARK                            x       y       z     vdW  Elec       q    Type
REMARK                         _______ _______ _______ _____ _____    ______ ____
ROOT
ATOM      1  N   UNL     1     -10.902   7.970 129.375  0.00  0.00    +0.000 NA
ENDROOT
BRANCH   1   2
ATOM      2  C   UNL     1      -9.646   7.310 129.824  0.00  0.00    +0.000 C 
BRANCH   2   3
ATOM      3  C   UNL     1      -9.571   5.794 129.575  0.00  0.00    +0.000 C 
BRANCH   3   4
ATOM      4  O   UNL     1      -9.014   5.453 128.314  0.00  0.00    +0.000 OA
ATOM      5  H   UNL     1      -8.290   4.830 128.517  0.00  0.00    +0.000 HD
ENDBRANCH   3   4
ENDBRANCH   2   3
ENDBRANCH   1   2
BRANCH   1   6
ATOM      6  C   UNL     1     -10.920   8.329 127.941  0.00  0.00    +0.000 C 
BRANCH   6   7
ATOM      7  C   UNL     1     -11.716   7.447 126.967  0.00  0.00    +0.000 C 
BRANCH   7   8
ATOM      8  O   UNL     1     -10.827   6.571 126.274  0.00  0.00    +0.000 OA
ATOM      9  H   UNL     1     -10.994   5.686 126.627  0.00  0.00    +0.000 HD
ENDBRANCH   7   8
ENDBRANCH   6   7
ENDBRANCH   1   6
BRANCH   1  10
ATOM     10  C   UNL     1     -12.048   7.069 129.686  0.00  0.00    +0.000 C 
BRANCH  10  11
ATOM     11  C   UNL     1     -12.658   7.224 131.095  0.00  0.00    +0.000 C 
BRANCH  11  12
ATOM     12  O   UNL     1     -12.211   6.179 131.955  0.00  0.00    +0.000 OA
ATOM     13  H   UNL     1     -13.006   5.745 132.316  0.00  0.00    +0.000 HD
ENDBRANCH  11  12
ENDBRANCH  10  11
ENDBRANCH   1  10
TORSDOF 9
ENDMDL
MODEL 7
REMARK VINA RESULT:      -4.3      0.569      3.515
REMARK  Name = Trolamine
REMARK  9 active torsions:
REMARK  status: ('A' for Active; 'I' for Inactive)
REMARK    1  A    between atoms: O_1  and  C_2
REMARK    2  A    between atoms: C_2  and  C_3
REMARK    3  A    between atoms: C_3  and  N_4
REMARK    4  A    between atoms: N_4  and  C_5
REMARK    5  A    between atoms: N_4  and  C_8
REMARK    6  A    between atoms: C_5  and  C_6
REMARK    7  A    between atoms: C_6  and  O_7
REMARK    8  A    between atoms: C_8  and  C_9
REMARK    9  A    between atoms: C_9  and  O_10
REMARK                            x       y       z     vdW  Elec       q    Type
REMARK                         _______ _______ _______ _____ _____    ______ ____
ROOT
ATOM      1  N   UNL     1     -12.614   8.226 128.737  0.00  0.00    +0.000 NA
ENDROOT
BRANCH   1   2
ATOM      2  C   UNL     1     -11.328   8.332 127.994  0.00  0.00    +0.000 C 
BRANCH   2   3
ATOM      3  C   UNL     1     -11.311   7.669 126.607  0.00  0.00    +0.000 C 
BRANCH   3   4
ATOM      4  O   UNL     1     -10.331   6.649 126.478  0.00  0.00    +0.000 OA
ATOM      5  H   UNL     1     -10.788   5.915 126.024  0.00  0.00    +0.000 HD
ENDBRANCH   3   4
ENDBRANCH   2   3
ENDBRANCH   1   2
BRANCH   1   6
ATOM      6  C   UNL     1     -12.707   7.046 129.624  0.00  0.00    +0.000 C 
BRANCH   6   7
ATOM      7  C   UNL     1     -12.815   7.268 131.140  0.00  0.00    +0.000 C 
BRANCH   7   8
ATOM      8  O   UNL     1     -12.193   6.185 131.831  0.00  0.00    +0.000 OA
ATOM      9  H   UNL     1     -12.873   5.505 131.933  0.00  0.00    +0.000 HD
ENDBRANCH   7   8
ENDBRANCH   6   7
ENDBRANCH   1   6
BRANCH   1  10
ATOM     10  C   UNL     1     -12.806   9.473 129.531  0.00  0.00    +0.000 C 
BRANCH  10  11
ATOM     11  C   UNL     1     -13.744  10.527 128.906  0.00  0.00    +0.000 C 
BRANCH  11  12
ATOM     12  O   UNL     1     -13.267  11.844 129.169  0.00  0.00    +0.000 OA
ATOM     13  H   UNL     1     -13.882  12.248 129.810  0.00  0.00    +0.000 HD
ENDBRANCH  11  12
ENDBRANCH  10  11
ENDBRANCH   1  10
TORSDOF 9
ENDMDL
MODEL 8
REMARK VINA RESULT:      -4.1      8.279     10.035
REMARK  Name = Trolamine
REMARK  9 active torsions:
REMARK  status: ('A' for Active; 'I' for Inactive)
REMARK    1  A    between atoms: O_1  and  C_2
REMARK    2  A    between atoms: C_2  and  C_3
REMARK    3  A    between atoms: C_3  and  N_4
REMARK    4  A    between atoms: N_4  and  C_5
REMARK    5  A    between atoms: N_4  and  C_8
REMARK    6  A    between atoms: C_5  and  C_6
REMARK    7  A    between atoms: C_6  and  O_7
REMARK    8  A    between atoms: C_8  and  C_9
REMARK    9  A    between atoms: C_9  and  O_10
REMARK                            x       y       z     vdW  Elec       q    Type
REMARK                         _______ _______ _______ _____ _____    ______ ____
ROOT
ATOM      1  N   UNL     1      -6.071   4.184 122.720  0.00  0.00    +0.000 NA
ENDROOT
BRANCH   1   2
ATOM      2  C   UNL     1      -5.632   4.162 124.142  0.00  0.00    +0.000 C 
BRANCH   2   3
ATOM      3  C   UNL     1      -6.282   5.218 125.051  0.00  0.00    +0.000 C 
BRANCH   3   4
ATOM      4  O   UNL     1      -7.700   5.237 124.974  0.00  0.00    +0.000 OA
ATOM      5  H   UNL     1      -7.932   6.168 124.794  0.00  0.00    +0.000 HD
ENDBRANCH   3   4
ENDBRANCH   2   3
ENDBRANCH   1   2
BRANCH   1   6
ATOM      6  C   UNL     1      -4.977   4.394 121.749  0.00  0.00    +0.000 C 
BRANCH   6   7
ATOM      7  C   UNL     1      -5.328   4.855 120.326  0.00  0.00    +0.000 C 
BRANCH   7   8
ATOM      8  O   UNL     1      -4.873   6.193 120.127  0.00  0.00    +0.000 OA
ATOM      9  H   UNL     1      -3.944   6.203 120.396  0.00  0.00    +0.000 HD
ENDBRANCH   7   8
ENDBRANCH   6   7
ENDBRANCH   1   6
BRANCH   1  10
ATOM     10  C   UNL     1      -6.773   2.903 122.422  0.00  0.00    +0.000 C 
BRANCH  10  11
ATOM     11  C   UNL     1      -8.314   2.982 122.358  0.00  0.00    +0.000 C 
BRANCH  11  12
ATOM     12  O   UNL     1      -8.729   3.945 121.393  0.00  0.00    +0.000 OA
ATOM     13  H   UNL     1      -9.614   4.256 121.662  0.00  0.00    +0.000 HD
ENDBRANCH  11  12
ENDBRANCH  10  11
ENDBRANCH   1  10
TORSDOF 9
ENDMDL
MODEL 9
REMARK VINA RESULT:      -4.0      2.757      3.537
REMARK  Name = Trolamine
REMARK  9 active torsions:
REMARK  status: ('A' for Active; 'I' for Inactive)
REMARK    1  A    between atoms: O_1  and  C_2
REMARK    2  A    between atoms: C_2  and  C_3
REMARK    3  A    between atoms: C_3  and  N_4
REMARK    4  A    between atoms: N_4  and  C_5
REMARK    5  A    between atoms: N_4  and  C_8
REMARK    6  A    between atoms: C_5  and  C_6
REMARK    7  A    between atoms: C_6  and  O_7
REMARK    8  A    between atoms: C_8  and  C_9
REMARK    9  A    between atoms: C_9  and  O_10
REMARK                            x       y       z     vdW  Elec       q    Type
REMARK                         _______ _______ _______ _____ _____    ______ ____
ROOT
ATOM      1  N   UNL     1     -10.766   6.129 128.862  0.00  0.00    +0.000 NA
ENDROOT
BRANCH   1   2
ATOM      2  C   UNL     1     -11.973   5.738 129.640  0.00  0.00    +0.000 C 
BRANCH   2   3
ATOM      3  C   UNL     1     -12.498   6.799 130.622  0.00  0.00    +0.000 C 
BRANCH   3   4
ATOM      4  O   UNL     1     -12.308   6.452 131.986  0.00  0.00    +0.000 OA
ATOM      5  H   UNL     1     -11.436   6.014 132.017  0.00  0.00    +0.000 HD
ENDBRANCH   3   4
ENDBRANCH   2   3
ENDBRANCH   1   2
BRANCH   1   6
ATOM      6  C   UNL     1     -10.732   7.554 128.468  0.00  0.00    +0.000 C 
BRANCH   6   7
ATOM      7  C   UNL     1     -10.987   7.922 126.999  0.00  0.00    +0.000 C 
BRANCH   7   8
ATOM      8  O   UNL     1     -11.307   6.746 126.256  0.00  0.00    +0.000 OA
ATOM      9  H   UNL     1     -12.187   6.473 126.552  0.00  0.00    +0.000 HD
ENDBRANCH   7   8
ENDBRANCH   6   7
ENDBRANCH   1   6
BRANCH   1  10
ATOM     10  C   UNL     1      -9.555   5.797 129.667  0.00  0.00    +0.000 C 
BRANCH  10  11
ATOM     11  C   UNL     1      -9.015   6.932 130.562  0.00  0.00    +0.000 C 
BRANCH  11  12
ATOM     12  O   UNL     1      -9.276   6.657 131.936  0.00  0.00    +0.000 OA
ATOM     13  H   UNL     1      -9.355   7.516 132.390  0.00  0.00    +0.000 HD
ENDBRANCH  11  12
ENDBRANCH  10  11
ENDBRANCH   1  10
TORSDOF 9
ENDMDL
