MODEL 1
REMARK VINA RESULT:      -3.8      0.000      0.000
REMARK  Name = Tromethamine
REMARK  7 active torsions:
REMARK  status: ('A' for Active; 'I' for Inactive)
REMARK    1  A    between atoms: N_1  and  C_2
REMARK    2  A    between atoms: C_2  and  C_3
REMARK    3  A    between atoms: C_2  and  C_5
REMARK    4  A    between atoms: C_2  and  C_7
REMARK    5  A    between atoms: C_3  and  O_4
REMARK    6  A    between atoms: C_5  and  O_6
REMARK    7  A    between atoms: C_7  and  O_8
REMARK                            x       y       z     vdW  Elec       q    Type
REMARK                         _______ _______ _______ _____ _____    ______ ____
ROOT
ATOM      1  C   UNL     1     -12.144   8.007 128.258  0.00  0.00    +0.000 C 
ENDROOT
BRANCH   1   2
ATOM      2  N   UNL     1     -12.797   9.316 128.518  0.00  0.00    +0.000 NA
ATOM      3  H   UNL     1     -12.427   9.987 127.839  0.00  0.00    +0.000 HD
ATOM      4  H   UNL     1     -12.481   9.680 129.418  0.00  0.00    +0.000 HD
ENDBRANCH   1   2
BRANCH   1   5
ATOM      5  C   UNL     1     -10.634   8.239 127.949  0.00  0.00    +0.000 C 
BRANCH   5   6
ATOM      6  O   UNL     1      -9.809   7.085 128.096  0.00  0.00    +0.000 OA
ATOM      7  H   UNL     1      -9.786   6.815 129.024  0.00  0.00    +0.000 HD
ENDBRANCH   5   6
ENDBRANCH   1   5
BRANCH   1   8
ATOM      8  C   UNL     1     -12.275   7.107 129.520  0.00  0.00    +0.000 C 
BRANCH   8   9
ATOM      9  O   UNL     1     -12.180   5.718 129.191  0.00  0.00    +0.000 OA
ATOM     10  H   UNL     1     -13.065   5.326 129.276  0.00  0.00    +0.000 HD
ENDBRANCH   8   9
ENDBRANCH   1   8
BRANCH   1  11
ATOM     11  C   UNL     1     -12.859   7.310 127.074  0.00  0.00    +0.000 C 
BRANCH  11  12
ATOM     12  O   UNL     1     -11.949   6.578 126.257  0.00  0.00    +0.000 OA
ATOM     13  H   UNL     1     -11.805   5.703 126.656  0.00  0.00    +0.000 HD
ENDBRANCH  11  12
ENDBRANCH   1  11
TORSDOF 7
ENDMDL
MODEL 2
REMARK VINA RESULT:      -3.8      0.051      2.390
REMARK  Name = Tromethamine
REMARK  7 active torsions:
REMARK  status: ('A' for Active; 'I' for Inactive)
REMARK    1  A    between atoms: N_1  and  C_2
REMARK    2  A    between atoms: C_2  and  C_3
REMARK    3  A    between atoms: C_2  and  C_5
REMARK    4  A    between atoms: C_2  and  C_7
REMARK    5  A    between atoms: C_3  and  O_4
REMARK    6  A    between atoms: C_5  and  O_6
REMARK    7  A    between atoms: C_7  and  O_8
REMARK                            x       y       z     vdW  Elec       q    Type
REMARK                         _______ _______ _______ _____ _____    ______ ____
ROOT
ATOM      1  C   UNL     1     -12.123   8.029 128.271  0.00  0.00    +0.000 C 
ENDROOT
BRANCH   1   2
ATOM      2  N   UNL     1     -12.796   9.324 128.551  0.00  0.00    +0.000 NA
ATOM      3  H   UNL     1     -13.776   9.121 128.771  0.00  0.00    +0.000 HD
ATOM      4  H   UNL     1     -12.847   9.872 127.691  0.00  0.00    +0.000 HD
ENDBRANCH   1   2
BRANCH   1   5
ATOM      5  C   UNL     1     -12.807   7.349 127.047  0.00  0.00    +0.000 C 
BRANCH   5   6
ATOM      6  O   UNL     1     -11.938   6.556 126.240  0.00  0.00    +0.000 OA
ATOM      7  H   UNL     1     -12.174   6.654 125.309  0.00  0.00    +0.000 HD
ENDBRANCH   5   6
ENDBRANCH   1   5
BRANCH   1   8
ATOM      8  C   UNL     1     -10.625   8.289 127.940  0.00  0.00    +0.000 C 
BRANCH   8   9
ATOM      9  O   UNL     1      -9.829   7.118 128.138  0.00  0.00    +0.000 OA
ATOM     10  H   UNL     1      -9.129   7.332 128.777  0.00  0.00    +0.000 HD
ENDBRANCH   8   9
ENDBRANCH   1   8
BRANCH   1  11
ATOM     11  C   UNL     1     -12.205   7.133 129.530  0.00  0.00    +0.000 C 
BRANCH  11  12
ATOM     12  O   UNL     1     -12.200   5.745 129.200  0.00  0.00    +0.000 OA
ATOM     13  H   UNL     1     -11.283   5.422 129.223  0.00  0.00    +0.000 HD
ENDBRANCH  11  12
ENDBRANCH   1  11
TORSDOF 7
ENDMDL
MODEL 3
REMARK VINA RESULT:      -3.7      0.078      2.411
REMARK  Name = Tromethamine
REMARK  7 active torsions:
REMARK  status: ('A' for Active; 'I' for Inactive)
REMARK    1  A    between atoms: N_1  and  C_2
REMARK    2  A    between atoms: C_2  and  C_3
REMARK    3  A    between atoms: C_2  and  C_5
REMARK    4  A    between atoms: C_2  and  C_7
REMARK    5  A    between atoms: C_3  and  O_4
REMARK    6  A    between atoms: C_5  and  O_6
REMARK    7  A    between atoms: C_7  and  O_8
REMARK                            x       y       z     vdW  Elec       q    Type
REMARK                         _______ _______ _______ _____ _____    ______ ____
ROOT
ATOM      1  C   UNL     1     -12.124   8.015 128.253  0.00  0.00    +0.000 C 
ENDROOT
BRANCH   1   2
ATOM      2  N   UNL     1     -12.802   9.308 128.524  0.00  0.00    +0.000 NA
ATOM      3  H   UNL     1     -13.459   9.157 129.296  0.00  0.00    +0.000 HD
ATOM      4  H   UNL     1     -13.405   9.547 127.735  0.00  0.00    +0.000 HD
ENDBRANCH   1   2
BRANCH   1   5
ATOM      5  C   UNL     1     -12.272   7.087 129.497  0.00  0.00    +0.000 C 
BRANCH   5   6
ATOM      6  O   UNL     1     -12.167   5.692 129.218  0.00  0.00    +0.000 OA
ATOM      7  H   UNL     1     -12.020   5.556 128.273  0.00  0.00    +0.000 HD
ENDBRANCH   5   6
ENDBRANCH   1   5
BRANCH   1   8
ATOM      8  C   UNL     1     -12.790   7.332 127.024  0.00  0.00    +0.000 C 
BRANCH   8   9
ATOM      9  O   UNL     1     -11.849   6.559 126.274  0.00  0.00    +0.000 OA
ATOM     10  H   UNL     1     -10.955   6.856 126.513  0.00  0.00    +0.000 HD
ENDBRANCH   8   9
ENDBRANCH   1   8
BRANCH   1  11
ATOM     11  C   UNL     1     -10.634   8.282 127.926  0.00  0.00    +0.000 C 
BRANCH  11  12
ATOM     12  O   UNL     1      -9.810   7.161 128.237  0.00  0.00    +0.000 OA
ATOM     13  H   UNL     1      -8.900   7.354 127.953  0.00  0.00    +0.000 HD
ENDBRANCH  11  12
ENDBRANCH   1  11
TORSDOF 7
ENDMDL
MODEL 4
REMARK VINA RESULT:      -3.5      1.959      2.562
REMARK  Name = Tromethamine
REMARK  7 active torsions:
REMARK  status: ('A' for Active; 'I' for Inactive)
REMARK    1  A    between atoms: N_1  and  C_2
REMARK    2  A    between atoms: C_2  and  C_3
REMARK    3  A    between atoms: C_2  and  C_5
REMARK    4  A    between atoms: C_2  and  C_7
REMARK    5  A    between atoms: C_3  and  O_4
REMARK    6  A    between atoms: C_5  and  O_6
REMARK    7  A    between atoms: C_7  and  O_8
REMARK                            x       y       z     vdW  Elec       q    Type
REMARK                         _______ _______ _______ _____ _____    ______ ____
ROOT
ATOM      1  C   UNL     1     -12.021   7.257 128.450  0.00  0.00    +0.000 C 
ENDROOT
BRANCH   1   2
ATOM      2  N   UNL     1     -12.051   5.971 129.192  0.00  0.00    +0.000 NA
ATOM      3  H   UNL     1     -11.949   6.186 130.189  0.00  0.00    +0.000 HD
ATOM      4  H   UNL     1     -11.212   5.433 128.972  0.00  0.00    +0.000 HD
ENDBRANCH   1   2
BRANCH   1   5
ATOM      5  C   UNL     1     -10.559   7.559 128.004  0.00  0.00    +0.000 C 
BRANCH   5   6
ATOM      6  O   UNL     1      -9.796   6.411 127.635  0.00  0.00    +0.000 OA
ATOM      7  H   UNL     1      -9.285   6.600 126.837  0.00  0.00    +0.000 HD
ENDBRANCH   5   6
ENDBRANCH   1   5
BRANCH   1   8
ATOM      8  C   UNL     1     -12.926   7.144 127.188  0.00  0.00    +0.000 C 
BRANCH   8   9
ATOM      9  O   UNL     1     -12.203   6.640 126.063  0.00  0.00    +0.000 OA
ATOM     10  H   UNL     1     -12.022   7.382 125.462  0.00  0.00    +0.000 HD
ENDBRANCH   8   9
ENDBRANCH   1   8
BRANCH   1  11
ATOM     11  C   UNL     1     -12.575   8.381 129.359  0.00  0.00    +0.000 C 
BRANCH  11  12
ATOM     12  O   UNL     1     -12.693   9.621 128.665  0.00  0.00    +0.000 OA
ATOM     13  H   UNL     1     -13.039  10.291 129.279  0.00  0.00    +0.000 HD
ENDBRANCH  11  12
ENDBRANCH   1  11
TORSDOF 7
ENDMDL
MODEL 5
REMARK VINA RESULT:      -3.5      2.063      2.774
REMARK  Name = Tromethamine
REMARK  7 active torsions:
REMARK  status: ('A' for Active; 'I' for Inactive)
REMARK    1  A    between atoms: N_1  and  C_2
REMARK    2  A    between atoms: C_2  and  C_3
REMARK    3  A    between atoms: C_2  and  C_5
REMARK    4  A    between atoms: C_2  and  C_7
REMARK    5  A    between atoms: C_3  and  O_4
REMARK    6  A    between atoms: C_5  and  O_6
REMARK    7  A    between atoms: C_7  and  O_8
REMARK                            x       y       z     vdW  Elec       q    Type
REMARK                         _______ _______ _______ _____ _____    ______ ____
ROOT
ATOM      1  C   UNL     1     -12.023   7.186 128.599  0.00  0.00    +0.000 C 
ENDROOT
BRANCH   1   2
ATOM      2  N   UNL     1     -12.409   5.883 129.197  0.00  0.00    +0.000 NA
ATOM      3  H   UNL     1     -12.014   5.143 128.608  0.00  0.00    +0.000 HD
ATOM      4  H   UNL     1     -13.418   5.754 129.106  0.00  0.00    +0.000 HD
ENDBRANCH   1   2
BRANCH   1   5
ATOM      5  C   UNL     1     -12.416   7.197 127.091  0.00  0.00    +0.000 C 
BRANCH   5   6
ATOM      6  O   UNL     1     -11.412   6.702 126.207  0.00  0.00    +0.000 OA
ATOM      7  H   UNL     1     -10.738   7.380 126.064  0.00  0.00    +0.000 HD
ENDBRANCH   5   6
ENDBRANCH   1   5
BRANCH   1   8
ATOM      8  C   UNL     1     -12.778   8.333 129.332  0.00  0.00    +0.000 C 
BRANCH   8   9
ATOM      9  O   UNL     1     -12.751   9.549 128.580  0.00  0.00    +0.000 OA
ATOM     10  H   UNL     1     -13.119   9.368 127.698  0.00  0.00    +0.000 HD
ENDBRANCH   8   9
ENDBRANCH   1   8
BRANCH   1  11
ATOM     11  C   UNL     1     -10.500   7.398 128.783  0.00  0.00    +0.000 C 
BRANCH  11  12
ATOM     12  O   UNL     1     -10.051   8.609 128.178  0.00  0.00    +0.000 OA
ATOM     13  H   UNL     1      -9.589   8.391 127.351  0.00  0.00    +0.000 HD
ENDBRANCH  11  12
ENDBRANCH   1  11
TORSDOF 7
ENDMDL
MODEL 6
REMARK VINA RESULT:      -3.5      1.868      2.819
REMARK  Name = Tromethamine
REMARK  7 active torsions:
REMARK  status: ('A' for Active; 'I' for Inactive)
REMARK    1  A    between atoms: N_1  and  C_2
REMARK    2  A    between atoms: C_2  and  C_3
REMARK    3  A    between atoms: C_2  and  C_5
REMARK    4  A    between atoms: C_2  and  C_7
REMARK    5  A    between atoms: C_3  and  O_4
REMARK    6  A    between atoms: C_5  and  O_6
REMARK    7  A    between atoms: C_7  and  O_8
REMARK                            x       y       z     vdW  Elec       q    Type
REMARK                         _______ _______ _______ _____ _____    ______ ____
ROOT
ATOM      1  C   UNL     1     -11.837   7.913 128.348  0.00  0.00    +0.000 C 
ENDROOT
BRANCH   1   2
ATOM      2  N   UNL     1     -10.779   8.758 127.737  0.00  0.00    +0.000 NA
ATOM      3  H   UNL     1     -11.241   9.439 127.126  0.00  0.00    +0.000 HD
ATOM      4  H   UNL     1     -10.223   8.193 127.094  0.00  0.00    +0.000 HD
ENDBRANCH   1   2
BRANCH   1   5
ATOM      5  C   UNL     1     -12.747   8.802 129.250  0.00  0.00    +0.000 C 
BRANCH   5   6
ATOM      6  O   UNL     1     -13.123  10.051 128.674  0.00  0.00    +0.000 OA
ATOM      7  H   UNL     1     -14.038  10.257 128.905  0.00  0.00    +0.000 HD
ENDBRANCH   5   6
ENDBRANCH   1   5
BRANCH   1   8
ATOM      8  C   UNL     1     -12.702   7.276 127.221  0.00  0.00    +0.000 C 
BRANCH   8   9
ATOM      9  O   UNL     1     -11.899   6.556 126.282  0.00  0.00    +0.000 OA
ATOM     10  H   UNL     1     -12.420   5.806 125.950  0.00  0.00    +0.000 HD
ENDBRANCH   8   9
ENDBRANCH   1   8
BRANCH   1  11
ATOM     11  C   UNL     1     -11.172   6.779 129.165  0.00  0.00    +0.000 C 
BRANCH  11  12
ATOM     12  O   UNL     1     -11.982   5.606 129.209  0.00  0.00    +0.000 OA
ATOM     13  H   UNL     1     -12.381   5.469 128.333  0.00  0.00    +0.000 HD
ENDBRANCH  11  12
ENDBRANCH   1  11
TORSDOF 7
ENDMDL
MODEL 7
REMARK VINA RESULT:      -3.3      2.226      3.241
REMARK  Name = Tromethamine
REMARK  7 active torsions:
REMARK  status: ('A' for Active; 'I' for Inactive)
REMARK    1  A    between atoms: N_1  and  C_2
REMARK    2  A    between atoms: C_2  and  C_3
REMARK    3  A    between atoms: C_2  and  C_5
REMARK    4  A    between atoms: C_2  and  C_7
REMARK    5  A    between atoms: C_3  and  O_4
REMARK    6  A    between atoms: C_5  and  O_6
REMARK    7  A    between atoms: C_7  and  O_8
REMARK                            x       y       z     vdW  Elec       q    Type
REMARK                         _______ _______ _______ _____ _____    ______ ____
ROOT
ATOM      1  C   UNL     1     -12.105   7.214 129.697  0.00  0.00    +0.000 C 
ENDROOT
BRANCH   1   2
ATOM      2  N   UNL     1     -12.229   5.838 129.153  0.00  0.00    +0.000 NA
ATOM      3  H   UNL     1     -11.492   5.714 128.452  0.00  0.00    +0.000 HD
ATOM      4  H   UNL     1     -13.093   5.763 128.614  0.00  0.00    +0.000 HD
ENDBRANCH   1   2
BRANCH   1   5
ATOM      5  C   UNL     1     -10.615   7.666 129.614  0.00  0.00    +0.000 C 
BRANCH   5   6
ATOM      6  O   UNL     1     -10.027   7.552 128.319  0.00  0.00    +0.000 OA
ATOM      7  H   UNL     1     -10.719   7.535 127.645  0.00  0.00    +0.000 HD
ENDBRANCH   5   6
ENDBRANCH   1   5
BRANCH   1   8
ATOM      8  C   UNL     1     -12.981   8.183 128.852  0.00  0.00    +0.000 C 
BRANCH   8   9
ATOM      9  O   UNL     1     -12.302   9.413 128.585  0.00  0.00    +0.000 OA
ATOM     10  H   UNL     1     -12.937  10.140 128.699  0.00  0.00    +0.000 HD
ENDBRANCH   8   9
ENDBRANCH   1   8
BRANCH   1  11
ATOM     11  C   UNL     1     -12.615   7.230 131.159  0.00  0.00    +0.000 C 
BRANCH  11  12
ATOM     12  O   UNL     1     -12.113   6.127 131.912  0.00  0.00    +0.000 OA
ATOM     13  H   UNL     1     -11.519   6.466 132.603  0.00  0.00    +0.000 HD
ENDBRANCH  11  12
ENDBRANCH   1  11
TORSDOF 7
ENDMDL
MODEL 8
REMARK VINA RESULT:      -3.3      3.785      4.460
REMARK  Name = Tromethamine
REMARK  7 active torsions:
REMARK  status: ('A' for Active; 'I' for Inactive)
REMARK    1  A    between atoms: N_1  and  C_2
REMARK    2  A    between atoms: C_2  and  C_3
REMARK    3  A    between atoms: C_2  and  C_5
REMARK    4  A    between atoms: C_2  and  C_7
REMARK    5  A    between atoms: C_3  and  O_4
REMARK    6  A    between atoms: C_5  and  O_6
REMARK    7  A    between atoms: C_7  and  O_8
REMARK                            x       y       z     vdW  Elec       q    Type
REMARK                         _______ _______ _______ _____ _____    ______ ____
ROOT
ATOM      1  C   UNL     1      -9.986   6.113 130.995  0.00  0.00    +0.000 C 
ENDROOT
BRANCH   1   2
ATOM      2  N   UNL     1      -9.018   6.972 130.267  0.00  0.00    +0.000 NA
ATOM      3  H   UNL     1      -8.075   6.683 130.547  0.00  0.00    +0.000 HD
ATOM      4  H   UNL     1      -9.090   7.931 130.610  0.00  0.00    +0.000 HD
ENDBRANCH   1   2
BRANCH   1   5
ATOM      5  C   UNL     1      -9.567   6.022 132.493  0.00  0.00    +0.000 C 
BRANCH   5   6
ATOM      6  O   UNL     1     -10.132   4.924 133.207  0.00  0.00    +0.000 OA
ATOM      7  H   UNL     1     -10.159   4.143 132.639  0.00  0.00    +0.000 HD
ENDBRANCH   5   6
ENDBRANCH   1   5
BRANCH   1   8
ATOM      8  C   UNL     1     -11.406   6.743 130.899  0.00  0.00    +0.000 C 
BRANCH   8   9
ATOM      9  O   UNL     1     -12.265   6.269 131.939  0.00  0.00    +0.000 OA
ATOM     10  H   UNL     1     -12.377   6.983 132.589  0.00  0.00    +0.000 HD
ENDBRANCH   8   9
ENDBRANCH   1   8
BRANCH   1  11
ATOM     11  C   UNL     1     -10.018   4.713 130.334  0.00  0.00    +0.000 C 
BRANCH  11  12
ATOM     12  O   UNL     1     -11.195   3.986 130.681  0.00  0.00    +0.000 OA
ATOM     13  H   UNL     1     -11.501   4.286 131.554  0.00  0.00    +0.000 HD
ENDBRANCH  11  12
ENDBRANCH   1  11
TORSDOF 7
ENDMDL
MODEL 9
REMARK VINA RESULT:      -3.2      2.252      3.138
REMARK  Name = Tromethamine
REMARK  7 active torsions:
REMARK  status: ('A' for Active; 'I' for Inactive)
REMARK    1  A    between atoms: N_1  and  C_2
REMARK    2  A    between atoms: C_2  and  C_3
REMARK    3  A    between atoms: C_2  and  C_5
REMARK    4  A    between atoms: C_2  and  C_7
REMARK    5  A    between atoms: C_3  and  O_4
REMARK    6  A    between atoms: C_5  and  O_6
REMARK    7  A    between atoms: C_7  and  O_8
REMARK                            x       y       z     vdW  Elec       q    Type
REMARK                         _______ _______ _______ _____ _____    ______ ____
ROOT
ATOM      1  C   UNL     1     -11.794   7.222 129.827  0.00  0.00    +0.000 C 
ENDROOT
BRANCH   1   2
ATOM      2  N   UNL     1     -12.232   6.057 129.016  0.00  0.00    +0.000 NA
ATOM      3  H   UNL     1     -12.231   5.236 129.629  0.00  0.00    +0.000 HD
ATOM      4  H   UNL     1     -11.519   5.842 128.319  0.00  0.00    +0.000 HD
ENDBRANCH   1   2
BRANCH   1   5
ATOM      5  C   UNL     1     -12.426   7.126 131.248  0.00  0.00    +0.000 C 
BRANCH   5   6
ATOM      6  O   UNL     1     -12.010   5.997 132.013  0.00  0.00    +0.000 OA
ATOM      7  H   UNL     1     -11.272   5.555 131.572  0.00  0.00    +0.000 HD
ENDBRANCH   5   6
ENDBRANCH   1   5
BRANCH   1   8
ATOM      8  C   UNL     1     -10.243   7.206 129.955  0.00  0.00    +0.000 C 
BRANCH   8   9
ATOM      9  O   UNL     1      -9.623   6.637 128.799  0.00  0.00    +0.000 OA
ATOM     10  H   UNL     1      -8.992   5.960 129.096  0.00  0.00    +0.000 HD
ENDBRANCH   8   9
ENDBRANCH   1   8
BRANCH   1  11
ATOM     11  C   UNL     1     -12.219   8.527 129.110  0.00  0.00    +0.000 C 
BRANCH  11  12
ATOM     12  O   UNL     1     -11.243   8.960 128.165  0.00  0.00    +0.000 OA
ATOM     13  H   UNL     1     -10.428   9.193 128.642  0.00  0.00    +0.000 HD
ENDBRANCH  11  12
ENDBRANCH   1  11
TORSDOF 7
ENDMDL
