MODEL 1
REMARK VINA RESULT:      -6.3      0.000      0.000
REMARK  Name = Tromantadine
REMARK  8 active torsions:
REMARK  status: ('A' for Active; 'I' for Inactive)
REMARK    1  A    between atoms: C_1  and  N_2
REMARK    2  A    between atoms: N_2  and  C_3
REMARK    3  A    between atoms: N_2  and  C_4
REMARK    4  A    between atoms: C_4  and  C_5
REMARK    5  A    between atoms: C_5  and  O_6
REMARK    6  A    between atoms: O_6  and  C_7
REMARK    7  A    between atoms: C_7  and  C_8
REMARK    8  A    between atoms: N_10  and  C_11
REMARK                            x       y       z     vdW  Elec       q    Type
REMARK                         _______ _______ _______ _____ _____    ______ ____
ROOT
ATOM      1  C   UNL     1      -7.966   1.773 124.306  0.00  0.00    +0.000 C 
ATOM      2  O   UNL     1      -7.288   1.792 125.341  0.00  0.00    +0.000 OA
ATOM      3  N   UNL     1      -8.487   0.622 123.715  0.00  0.00    +0.000 N 
ATOM      4  H   UNL     1      -9.022   0.713 122.858  0.00  0.00    +0.000 HD
ENDROOT
BRANCH   3   5
ATOM      5  C   UNL     1      -8.293  -0.740 124.279  0.00  0.00    +0.000 C 
ATOM      6  C   UNL     1      -8.981  -1.835 123.417  0.00  0.00    +0.000 C 
ATOM      7  C   UNL     1      -8.855  -3.218 124.106  0.00  0.00    +0.000 C 
ATOM      8  C   UNL     1      -7.367  -3.582 124.258  0.00  0.00    +0.000 C 
ATOM      9  C   UNL     1      -6.637  -2.502 125.077  0.00  0.00    +0.000 C 
ATOM     10  C   UNL     1      -7.262  -2.448 126.481  0.00  0.00    +0.000 C 
ATOM     11  C   UNL     1      -8.755  -2.145 126.370  0.00  0.00    +0.000 C 
ATOM     12  C   UNL     1      -9.490  -3.168 125.507  0.00  0.00    +0.000 C 
ATOM     13  C   UNL     1      -8.891  -0.808 125.697  0.00  0.00    +0.000 C 
ATOM     14  C   UNL     1      -6.791  -1.128 124.374  0.00  0.00    +0.000 C 
ENDBRANCH   3   5
BRANCH   1  15
ATOM     15  C   UNL     1      -8.247   3.091 123.634  0.00  0.00    +0.000 C 
BRANCH  15  16
ATOM     16  O   UNL     1      -7.774   2.924 122.288  0.00  0.00    +0.000 OA
BRANCH  16  17
ATOM     17  C   UNL     1      -6.438   3.341 122.154  0.00  0.00    +0.000 C 
BRANCH  17  18
ATOM     18  C   UNL     1      -6.026   3.391 120.679  0.00  0.00    +0.000 C 
BRANCH  18  20
ATOM     19  C   UNL     1      -5.301   5.430 119.622  0.00  0.00    +0.000 C 
ATOM     20  N   UNL     1      -6.463   4.656 120.057  0.00  0.00    +0.000 NA
ATOM     21  C   UNL     1      -7.341   4.408 118.911  0.00  0.00    +0.000 C 
ENDBRANCH  18  20
ENDBRANCH  17  18
ENDBRANCH  16  17
ENDBRANCH  15  16
ENDBRANCH   1  15
TORSDOF 6
ENDMDL
MODEL 2
REMARK VINA RESULT:      -6.1      2.592      3.698
REMARK  Name = Tromantadine
REMARK  8 active torsions:
REMARK  status: ('A' for Active; 'I' for Inactive)
REMARK    1  A    between atoms: C_1  and  N_2
REMARK    2  A    between atoms: N_2  and  C_3
REMARK    3  A    between atoms: N_2  and  C_4
REMARK    4  A    between atoms: C_4  and  C_5
REMARK    5  A    between atoms: C_5  and  O_6
REMARK    6  A    between atoms: O_6  and  C_7
REMARK    7  A    between atoms: C_7  and  C_8
REMARK    8  A    between atoms: N_10  and  C_11
REMARK                            x       y       z     vdW  Elec       q    Type
REMARK                         _______ _______ _______ _____ _____    ______ ____
ROOT
ATOM      1  C   UNL     1      -7.640   0.418 127.206  0.00  0.00    +0.000 C 
ATOM      2  O   UNL     1      -6.661  -0.257 127.543  0.00  0.00    +0.000 OA
ATOM      3  N   UNL     1      -8.453   0.150 126.104  0.00  0.00    +0.000 N 
ATOM      4  H   UNL     1      -9.228   0.773 125.905  0.00  0.00    +0.000 HD
ENDROOT
BRANCH   3   5
ATOM      5  C   UNL     1      -8.235  -1.009 125.198  0.00  0.00    +0.000 C 
ATOM      6  C   UNL     1      -6.731  -1.220 124.868  0.00  0.00    +0.000 C 
ATOM      7  C   UNL     1      -6.565  -2.360 123.829  0.00  0.00    +0.000 C 
ATOM      8  C   UNL     1      -7.124  -3.670 124.412  0.00  0.00    +0.000 C 
ATOM      9  C   UNL     1      -8.606  -3.495 124.789  0.00  0.00    +0.000 C 
ATOM     10  C   UNL     1      -9.398  -3.162 123.513  0.00  0.00    +0.000 C 
ATOM     11  C   UNL     1      -8.835  -1.895 122.871  0.00  0.00    +0.000 C 
ATOM     12  C   UNL     1      -7.348  -2.022 122.548  0.00  0.00    +0.000 C 
ATOM     13  C   UNL     1      -8.985  -0.784 123.871  0.00  0.00    +0.000 C 
ATOM     14  C   UNL     1      -8.745  -2.340 125.816  0.00  0.00    +0.000 C 
ENDBRANCH   3   5
BRANCH   1  15
ATOM     15  C   UNL     1      -7.980   1.620 128.046  0.00  0.00    +0.000 C 
BRANCH  15  16
ATOM     16  O   UNL     1      -8.649   2.519 127.147  0.00  0.00    +0.000 OA
BRANCH  16  17
ATOM     17  C   UNL     1      -7.772   3.496 126.647  0.00  0.00    +0.000 C 
BRANCH  17  18
ATOM     18  C   UNL     1      -8.121   3.853 125.198  0.00  0.00    +0.000 C 
BRANCH  18  20
ATOM     19  C   UNL     1      -8.453   2.963 122.984  0.00  0.00    +0.000 C 
ATOM     20  N   UNL     1      -7.876   2.704 124.303  0.00  0.00    +0.000 NA
ATOM     21  C   UNL     1      -6.443   2.435 124.166  0.00  0.00    +0.000 C 
ENDBRANCH  18  20
ENDBRANCH  17  18
ENDBRANCH  16  17
ENDBRANCH  15  16
ENDBRANCH   1  15
TORSDOF 6
ENDMDL
MODEL 3
REMARK VINA RESULT:      -6.1      3.044      4.144
REMARK  Name = Tromantadine
REMARK  8 active torsions:
REMARK  status: ('A' for Active; 'I' for Inactive)
REMARK    1  A    between atoms: C_1  and  N_2
REMARK    2  A    between atoms: N_2  and  C_3
REMARK    3  A    between atoms: N_2  and  C_4
REMARK    4  A    between atoms: C_4  and  C_5
REMARK    5  A    between atoms: C_5  and  O_6
REMARK    6  A    between atoms: O_6  and  C_7
REMARK    7  A    between atoms: C_7  and  C_8
REMARK    8  A    between atoms: N_10  and  C_11
REMARK                            x       y       z     vdW  Elec       q    Type
REMARK                         _______ _______ _______ _____ _____    ______ ____
ROOT
ATOM      1  C   UNL     1      -7.870  -0.141 127.562  0.00  0.00    +0.000 C 
ATOM      2  O   UNL     1      -7.258  -1.133 127.974  0.00  0.00    +0.000 OA
ATOM      3  N   UNL     1      -8.399  -0.006 126.278  0.00  0.00    +0.000 N 
ATOM      4  H   UNL     1      -8.876   0.855 126.034  0.00  0.00    +0.000 HD
ENDROOT
BRANCH   3   5
ATOM      5  C   UNL     1      -8.295  -1.068 125.242  0.00  0.00    +0.000 C 
ATOM      6  C   UNL     1      -8.962  -2.397 125.696  0.00  0.00    +0.000 C 
ATOM      7  C   UNL     1      -8.724  -3.505 124.638  0.00  0.00    +0.000 C 
ATOM      8  C   UNL     1      -9.352  -3.078 123.299  0.00  0.00    +0.000 C 
ATOM      9  C   UNL     1      -8.747  -1.744 122.829  0.00  0.00    +0.000 C 
ATOM     10  C   UNL     1      -7.238  -1.944 122.607  0.00  0.00    +0.000 C 
ATOM     11  C   UNL     1      -6.585  -2.423 123.902  0.00  0.00    +0.000 C 
ATOM     12  C   UNL     1      -7.214  -3.713 124.424  0.00  0.00    +0.000 C 
ATOM     13  C   UNL     1      -6.813  -1.360 124.939  0.00  0.00    +0.000 C 
ATOM     14  C   UNL     1      -8.985  -0.658 123.911  0.00  0.00    +0.000 C 
ENDBRANCH   3   5
BRANCH   1  15
ATOM     15  C   UNL     1      -8.057   1.009 128.517  0.00  0.00    +0.000 C 
BRANCH  15  16
ATOM     16  O   UNL     1      -8.649   2.050 127.725  0.00  0.00    +0.000 OA
BRANCH  16  17
ATOM     17  C   UNL     1      -7.922   3.249 127.821  0.00  0.00    +0.000 C 
BRANCH  17  18
ATOM     18  C   UNL     1      -7.643   3.832 126.431  0.00  0.00    +0.000 C 
BRANCH  18  20
ATOM     19  C   UNL     1      -8.388   3.089 124.264  0.00  0.00    +0.000 C 
ATOM     20  N   UNL     1      -7.558   2.758 125.422  0.00  0.00    +0.000 NA
ATOM     21  C   UNL     1      -6.175   2.549 124.987  0.00  0.00    +0.000 C 
ENDBRANCH  18  20
ENDBRANCH  17  18
ENDBRANCH  16  17
ENDBRANCH  15  16
ENDBRANCH   1  15
TORSDOF 6
ENDMDL
MODEL 4
REMARK VINA RESULT:      -6.1      2.693      3.639
REMARK  Name = Tromantadine
REMARK  8 active torsions:
REMARK  status: ('A' for Active; 'I' for Inactive)
REMARK    1  A    between atoms: C_1  and  N_2
REMARK    2  A    between atoms: N_2  and  C_3
REMARK    3  A    between atoms: N_2  and  C_4
REMARK    4  A    between atoms: C_4  and  C_5
REMARK    5  A    between atoms: C_5  and  O_6
REMARK    6  A    between atoms: O_6  and  C_7
REMARK    7  A    between atoms: C_7  and  C_8
REMARK    8  A    between atoms: N_10  and  C_11
REMARK                            x       y       z     vdW  Elec       q    Type
REMARK                         _______ _______ _______ _____ _____    ______ ____
ROOT
ATOM      1  C   UNL     1      -8.516   0.772 126.711  0.00  0.00    +0.000 C 
ATOM      2  O   UNL     1      -9.600   0.819 126.118  0.00  0.00    +0.000 OA
ATOM      3  N   UNL     1      -7.483  -0.117 126.413  0.00  0.00    +0.000 N 
ATOM      4  H   UNL     1      -6.634  -0.083 126.968  0.00  0.00    +0.000 HD
ENDROOT
BRANCH   3   5
ATOM      5  C   UNL     1      -7.565  -1.119 125.318  0.00  0.00    +0.000 C 
ATOM      6  C   UNL     1      -8.562  -2.266 125.647  0.00  0.00    +0.000 C 
ATOM      7  C   UNL     1      -8.523  -3.345 124.533  0.00  0.00    +0.000 C 
ATOM      8  C   UNL     1      -8.935  -2.713 123.192  0.00  0.00    +0.000 C 
ATOM      9  C   UNL     1      -7.995  -1.545 122.844  0.00  0.00    +0.000 C 
ATOM     10  C   UNL     1      -6.566  -2.097 122.695  0.00  0.00    +0.000 C 
ATOM     11  C   UNL     1      -6.141  -2.784 123.991  0.00  0.00    +0.000 C 
ATOM     12  C   UNL     1      -7.097  -3.905 124.392  0.00  0.00    +0.000 C 
ATOM     13  C   UNL     1      -6.179  -1.750 125.080  0.00  0.00    +0.000 C 
ATOM     14  C   UNL     1      -8.040  -0.489 123.980  0.00  0.00    +0.000 C 
ENDBRANCH   3   5
BRANCH   1  15
ATOM     15  C   UNL     1      -8.296   1.743 127.841  0.00  0.00    +0.000 C 
BRANCH  15  16
ATOM     16  O   UNL     1      -8.626   3.027 127.289  0.00  0.00    +0.000 OA
BRANCH  16  17
ATOM     17  C   UNL     1      -7.477   3.720 126.870  0.00  0.00    +0.000 C 
BRANCH  17  18
ATOM     18  C   UNL     1      -7.756   4.520 125.593  0.00  0.00    +0.000 C 
BRANCH  18  20
ATOM     19  C   UNL     1      -6.121   2.921 124.835  0.00  0.00    +0.000 C 
ATOM     20  N   UNL     1      -7.174   3.846 124.416  0.00  0.00    +0.000 NA
ATOM     21  C   UNL     1      -8.197   3.115 123.665  0.00  0.00    +0.000 C 
ENDBRANCH  18  20
ENDBRANCH  17  18
ENDBRANCH  16  17
ENDBRANCH  15  16
ENDBRANCH   1  15
TORSDOF 6
ENDMDL
MODEL 5
REMARK VINA RESULT:      -6.0      2.234      3.200
REMARK  Name = Tromantadine
REMARK  8 active torsions:
REMARK  status: ('A' for Active; 'I' for Inactive)
REMARK    1  A    between atoms: C_1  and  N_2
REMARK    2  A    between atoms: N_2  and  C_3
REMARK    3  A    between atoms: N_2  and  C_4
REMARK    4  A    between atoms: C_4  and  C_5
REMARK    5  A    between atoms: C_5  and  O_6
REMARK    6  A    between atoms: O_6  and  C_7
REMARK    7  A    between atoms: C_7  and  C_8
REMARK    8  A    between atoms: N_10  and  C_11
REMARK                            x       y       z     vdW  Elec       q    Type
REMARK                         _______ _______ _______ _____ _____    ______ ____
ROOT
ATOM      1  C   UNL     1      -8.193   1.524 123.283  0.00  0.00    +0.000 C 
ATOM      2  O   UNL     1      -9.313   1.137 122.929  0.00  0.00    +0.000 OA
ATOM      3  N   UNL     1      -7.261   0.746 123.971  0.00  0.00    +0.000 N 
ATOM      4  H   UNL     1      -6.372   1.161 124.227  0.00  0.00    +0.000 HD
ENDROOT
BRANCH   3   5
ATOM      5  C   UNL     1      -7.509  -0.669 124.353  0.00  0.00    +0.000 C 
ATOM      6  C   UNL     1      -7.784  -1.570 123.116  0.00  0.00    +0.000 C 
ATOM      7  C   UNL     1      -8.154  -3.006 123.570  0.00  0.00    +0.000 C 
ATOM      8  C   UNL     1      -6.982  -3.612 124.362  0.00  0.00    +0.000 C 
ATOM      9  C   UNL     1      -6.650  -2.730 125.579  0.00  0.00    +0.000 C 
ATOM     10  C   UNL     1      -7.881  -2.688 126.501  0.00  0.00    +0.000 C 
ATOM     11  C   UNL     1      -9.084  -2.144 125.734  0.00  0.00    +0.000 C 
ATOM     12  C   UNL     1      -9.392  -2.966 124.484  0.00  0.00    +0.000 C 
ATOM     13  C   UNL     1      -8.735  -0.754 125.283  0.00  0.00    +0.000 C 
ATOM     14  C   UNL     1      -6.299  -1.297 125.098  0.00  0.00    +0.000 C 
ENDBRANCH   3   5
BRANCH   1  15
ATOM     15  C   UNL     1      -7.807   2.941 122.950  0.00  0.00    +0.000 C 
BRANCH  15  16
ATOM     16  O   UNL     1      -6.386   2.991 123.150  0.00  0.00    +0.000 OA
BRANCH  16  17
ATOM     17  C   UNL     1      -5.995   4.183 123.784  0.00  0.00    +0.000 C 
BRANCH  17  18
ATOM     18  C   UNL     1      -5.159   3.889 125.034  0.00  0.00    +0.000 C 
BRANCH  18  20
ATOM     19  C   UNL     1      -4.546   1.964 126.347  0.00  0.00    +0.000 C 
ATOM     20  N   UNL     1      -5.657   2.684 125.725  0.00  0.00    +0.000 NA
ATOM     21  C   UNL     1      -6.647   3.031 126.747  0.00  0.00    +0.000 C 
ENDBRANCH  18  20
ENDBRANCH  17  18
ENDBRANCH  16  17
ENDBRANCH  15  16
ENDBRANCH   1  15
TORSDOF 6
ENDMDL
MODEL 6
REMARK VINA RESULT:      -6.0      2.541      3.424
REMARK  Name = Tromantadine
REMARK  8 active torsions:
REMARK  status: ('A' for Active; 'I' for Inactive)
REMARK    1  A    between atoms: C_1  and  N_2
REMARK    2  A    between atoms: N_2  and  C_3
REMARK    3  A    between atoms: N_2  and  C_4
REMARK    4  A    between atoms: C_4  and  C_5
REMARK    5  A    between atoms: C_5  and  O_6
REMARK    6  A    between atoms: O_6  and  C_7
REMARK    7  A    between atoms: C_7  and  C_8
REMARK    8  A    between atoms: N_10  and  C_11
REMARK                            x       y       z     vdW  Elec       q    Type
REMARK                         _______ _______ _______ _____ _____    ______ ____
ROOT
ATOM      1  C   UNL     1      -8.368   0.638 126.638  0.00  0.00    +0.000 C 
ATOM      2  O   UNL     1      -9.434   0.570 126.015  0.00  0.00    +0.000 OA
ATOM      3  N   UNL     1      -7.225  -0.107 126.348  0.00  0.00    +0.000 N 
ATOM      4  H   UNL     1      -6.402   0.014 126.928  0.00  0.00    +0.000 HD
ENDROOT
BRANCH   3   5
ATOM      5  C   UNL     1      -7.154  -1.080 125.225  0.00  0.00    +0.000 C 
ATOM      6  C   UNL     1      -7.715  -0.488 123.901  0.00  0.00    +0.000 C 
ATOM      7  C   UNL     1      -7.731  -1.573 122.793  0.00  0.00    +0.000 C 
ATOM      8  C   UNL     1      -6.295  -2.064 122.536  0.00  0.00    +0.000 C 
ATOM      9  C   UNL     1      -5.685  -2.625 123.832  0.00  0.00    +0.000 C 
ATOM     10  C   UNL     1      -6.528  -3.829 124.287  0.00  0.00    +0.000 C 
ATOM     11  C   UNL     1      -7.977  -3.394 124.499  0.00  0.00    +0.000 C 
ATOM     12  C   UNL     1      -8.584  -2.773 123.244  0.00  0.00    +0.000 C 
ATOM     13  C   UNL     1      -7.975  -2.337 125.568  0.00  0.00    +0.000 C 
ATOM     14  C   UNL     1      -5.696  -1.526 124.927  0.00  0.00    +0.000 C 
ENDBRANCH   3   5
BRANCH   1  15
ATOM     15  C   UNL     1      -8.300   1.595 127.798  0.00  0.00    +0.000 C 
BRANCH  15  16
ATOM     16  O   UNL     1      -8.669   2.869 127.245  0.00  0.00    +0.000 OA
BRANCH  16  17
ATOM     17  C   UNL     1      -7.548   3.570 126.769  0.00  0.00    +0.000 C 
BRANCH  17  18
ATOM     18  C   UNL     1      -7.826   4.171 125.387  0.00  0.00    +0.000 C 
BRANCH  18  20
ATOM     19  C   UNL     1      -8.377   3.006 123.352  0.00  0.00    +0.000 C 
ATOM     20  N   UNL     1      -7.317   3.288 124.320  0.00  0.00    +0.000 NA
ATOM     21  C   UNL     1      -6.175   3.893 123.631  0.00  0.00    +0.000 C 
ENDBRANCH  18  20
ENDBRANCH  17  18
ENDBRANCH  16  17
ENDBRANCH  15  16
ENDBRANCH   1  15
TORSDOF 6
ENDMDL
MODEL 7
REMARK VINA RESULT:      -6.0      3.805      6.247
REMARK  Name = Tromantadine
REMARK  8 active torsions:
REMARK  status: ('A' for Active; 'I' for Inactive)
REMARK    1  A    between atoms: C_1  and  N_2
REMARK    2  A    between atoms: N_2  and  C_3
REMARK    3  A    between atoms: N_2  and  C_4
REMARK    4  A    between atoms: C_4  and  C_5
REMARK    5  A    between atoms: C_5  and  O_6
REMARK    6  A    between atoms: O_6  and  C_7
REMARK    7  A    between atoms: C_7  and  C_8
REMARK    8  A    between atoms: N_10  and  C_11
REMARK                            x       y       z     vdW  Elec       q    Type
REMARK                         _______ _______ _______ _____ _____    ______ ____
ROOT
ATOM      1  C   UNL     1      -8.643   0.833 126.866  0.00  0.00    +0.000 C 
ATOM      2  O   UNL     1      -9.572   1.072 126.085  0.00  0.00    +0.000 OA
ATOM      3  N   UNL     1      -7.703  -0.184 126.698  0.00  0.00    +0.000 N 
ATOM      4  H   UNL     1      -6.984  -0.305 127.404  0.00  0.00    +0.000 HD
ENDROOT
BRANCH   3   5
ATOM      5  C   UNL     1      -7.702  -1.106 125.532  0.00  0.00    +0.000 C 
ATOM      6  C   UNL     1      -9.002  -1.956 125.458  0.00  0.00    +0.000 C 
ATOM      7  C   UNL     1      -8.904  -2.984 124.300  0.00  0.00    +0.000 C 
ATOM      8  C   UNL     1      -8.734  -2.238 122.965  0.00  0.00    +0.000 C 
ATOM      9  C   UNL     1      -7.477  -1.352 123.008  0.00  0.00    +0.000 C 
ATOM     10  C   UNL     1      -6.249  -2.257 123.210  0.00  0.00    +0.000 C 
ATOM     11  C   UNL     1      -6.406  -3.059 124.500  0.00  0.00    +0.000 C 
ATOM     12  C   UNL     1      -7.683  -3.896 124.508  0.00  0.00    +0.000 C 
ATOM     13  C   UNL     1      -6.508  -2.074 125.630  0.00  0.00    +0.000 C 
ATOM     14  C   UNL     1      -7.593  -0.345 124.182  0.00  0.00    +0.000 C 
ENDBRANCH   3   5
BRANCH   1  15
ATOM     15  C   UNL     1      -8.520   1.702 128.089  0.00  0.00    +0.000 C 
BRANCH  15  16
ATOM     16  O   UNL     1      -7.617   0.995 128.952  0.00  0.00    +0.000 OA
BRANCH  16  17
ATOM     17  C   UNL     1      -8.216   0.687 130.186  0.00  0.00    +0.000 C 
BRANCH  17  18
ATOM     18  C   UNL     1      -7.944  -0.769 130.577  0.00  0.00    +0.000 C 
BRANCH  18  20
ATOM     19  C   UNL     1      -5.983  -1.860 129.701  0.00  0.00    +0.000 C 
ATOM     20  N   UNL     1      -7.381  -1.521 129.438  0.00  0.00    +0.000 NA
ATOM     21  C   UNL     1      -8.142  -2.746 129.185  0.00  0.00    +0.000 C 
ENDBRANCH  18  20
ENDBRANCH  17  18
ENDBRANCH  16  17
ENDBRANCH  15  16
ENDBRANCH   1  15
TORSDOF 6
ENDMDL
MODEL 8
REMARK VINA RESULT:      -6.0      3.781      5.676
REMARK  Name = Tromantadine
REMARK  8 active torsions:
REMARK  status: ('A' for Active; 'I' for Inactive)
REMARK    1  A    between atoms: C_1  and  N_2
REMARK    2  A    between atoms: N_2  and  C_3
REMARK    3  A    between atoms: N_2  and  C_4
REMARK    4  A    between atoms: C_4  and  C_5
REMARK    5  A    between atoms: C_5  and  O_6
REMARK    6  A    between atoms: O_6  and  C_7
REMARK    7  A    between atoms: C_7  and  C_8
REMARK    8  A    between atoms: N_10  and  C_11
REMARK                            x       y       z     vdW  Elec       q    Type
REMARK                         _______ _______ _______ _____ _____    ______ ____
ROOT
ATOM      1  C   UNL     1      -8.504   0.894 126.898  0.00  0.00    +0.000 C 
ATOM      2  O   UNL     1      -9.433   1.162 126.127  0.00  0.00    +0.000 OA
ATOM      3  N   UNL     1      -7.593  -0.147 126.717  0.00  0.00    +0.000 N 
ATOM      4  H   UNL     1      -6.871  -0.291 127.415  0.00  0.00    +0.000 HD
ENDROOT
BRANCH   3   5
ATOM      5  C   UNL     1      -7.628  -1.062 125.546  0.00  0.00    +0.000 C 
ATOM      6  C   UNL     1      -8.977  -1.827 125.441  0.00  0.00    +0.000 C 
ATOM      7  C   UNL     1      -8.922  -2.854 124.280  0.00  0.00    +0.000 C 
ATOM      8  C   UNL     1      -8.678  -2.115 122.952  0.00  0.00    +0.000 C 
ATOM      9  C   UNL     1      -7.367  -1.312 123.025  0.00  0.00    +0.000 C 
ATOM     10  C   UNL     1      -6.204  -2.295 123.247  0.00  0.00    +0.000 C 
ATOM     11  C   UNL     1      -6.439  -3.090 124.529  0.00  0.00    +0.000 C 
ATOM     12  C   UNL     1      -7.766  -3.844 124.507  0.00  0.00    +0.000 C 
ATOM     13  C   UNL     1      -6.500  -2.105 125.662  0.00  0.00    +0.000 C 
ATOM     14  C   UNL     1      -7.443  -0.304 124.202  0.00  0.00    +0.000 C 
ENDBRANCH   3   5
BRANCH   1  15
ATOM     15  C   UNL     1      -8.347   1.753 128.124  0.00  0.00    +0.000 C 
BRANCH  15  16
ATOM     16  O   UNL     1      -8.639   3.087 127.678  0.00  0.00    +0.000 OA
BRANCH  16  17
ATOM     17  C   UNL     1      -7.892   4.044 128.386  0.00  0.00    +0.000 C 
BRANCH  17  18
ATOM     18  C   UNL     1      -8.530   4.334 129.749  0.00  0.00    +0.000 C 
BRANCH  18  20
ATOM     19  C   UNL     1     -10.758   3.803 130.495  0.00  0.00    +0.000 C 
ATOM     20  N   UNL     1      -9.965   4.645 129.600  0.00  0.00    +0.000 NA
ATOM     21  C   UNL     1     -10.234   6.055 129.890  0.00  0.00    +0.000 C 
ENDBRANCH  18  20
ENDBRANCH  17  18
ENDBRANCH  16  17
ENDBRANCH  15  16
ENDBRANCH   1  15
TORSDOF 6
ENDMDL
MODEL 9
REMARK VINA RESULT:      -6.0      1.661      2.762
REMARK  Name = Tromantadine
REMARK  8 active torsions:
REMARK  status: ('A' for Active; 'I' for Inactive)
REMARK    1  A    between atoms: C_1  and  N_2
REMARK    2  A    between atoms: N_2  and  C_3
REMARK    3  A    between atoms: N_2  and  C_4
REMARK    4  A    between atoms: C_4  and  C_5
REMARK    5  A    between atoms: C_5  and  O_6
REMARK    6  A    between atoms: O_6  and  C_7
REMARK    7  A    between atoms: C_7  and  C_8
REMARK    8  A    between atoms: N_10  and  C_11
REMARK                            x       y       z     vdW  Elec       q    Type
REMARK                         _______ _______ _______ _____ _____    ______ ____
ROOT
ATOM      1  C   UNL     1      -8.622   2.045 124.696  0.00  0.00    +0.000 C 
ATOM      2  O   UNL     1      -9.582   1.749 123.975  0.00  0.00    +0.000 OA
ATOM      3  N   UNL     1      -7.656   1.145 125.146  0.00  0.00    +0.000 N 
ATOM      4  H   UNL     1      -6.911   1.487 125.745  0.00  0.00    +0.000 HD
ENDROOT
BRANCH   3   5
ATOM      5  C   UNL     1      -7.663  -0.299 124.793  0.00  0.00    +0.000 C 
ATOM      6  C   UNL     1      -6.470  -1.065 125.431  0.00  0.00    +0.000 C 
ATOM      7  C   UNL     1      -6.452  -2.535 124.939  0.00  0.00    +0.000 C 
ATOM      8  C   UNL     1      -7.758  -3.233 125.360  0.00  0.00    +0.000 C 
ATOM      9  C   UNL     1      -8.971  -2.484 124.780  0.00  0.00    +0.000 C 
ATOM     10  C   UNL     1      -8.880  -2.524 123.244  0.00  0.00    +0.000 C 
ATOM     11  C   UNL     1      -7.568  -1.890 122.788  0.00  0.00    +0.000 C 
ATOM     12  C   UNL     1      -6.350  -2.575 123.404  0.00  0.00    +0.000 C 
ATOM     13  C   UNL     1      -7.570  -0.465 123.264  0.00  0.00    +0.000 C 
ATOM     14  C   UNL     1      -8.956  -1.014 125.274  0.00  0.00    +0.000 C 
ENDBRANCH   3   5
BRANCH   1  15
ATOM     15  C   UNL     1      -8.488   3.483 125.121  0.00  0.00    +0.000 C 
BRANCH  15  16
ATOM     16  O   UNL     1      -7.119   3.616 125.537  0.00  0.00    +0.000 OA
BRANCH  16  17
ATOM     17  C   UNL     1      -6.495   4.712 124.917  0.00  0.00    +0.000 C 
BRANCH  17  18
ATOM     18  C   UNL     1      -5.352   4.248 124.008  0.00  0.00    +0.000 C 
BRANCH  18  20
ATOM     19  C   UNL     1      -4.502   4.753 121.812  0.00  0.00    +0.000 C 
ATOM     20  N   UNL     1      -5.702   4.441 122.588  0.00  0.00    +0.000 NA
ATOM     21  C   UNL     1      -6.346   3.248 122.033  0.00  0.00    +0.000 C 
ENDBRANCH  18  20
ENDBRANCH  17  18
ENDBRANCH  16  17
ENDBRANCH  15  16
ENDBRANCH   1  15
TORSDOF 6
ENDMDL
