MODEL 1
REMARK VINA RESULT:      -7.8      0.000      0.000
REMARK  Name = Tropisetron
REMARK  4 active torsions:
REMARK  status: ('A' for Active; 'I' for Inactive)
REMARK    1  A    between atoms: C_8  and  O_11
REMARK    2  A    between atoms: O_11  and  C_12
REMARK    3  A    between atoms: C_12  and  C_14
REMARK    4  A    between atoms: N_23  and  C_24
REMARK                            x       y       z     vdW  Elec       q    Type
REMARK                         _______ _______ _______ _____ _____    ______ ____
ROOT
ATOM      1  C   UNL     1      -9.764   5.094 129.366  0.00  0.00    +0.000 C 
ATOM      2  O   UNL     1      -8.804   5.338 128.635  0.00  0.00    +0.000 OA
ENDROOT
BRANCH   1   3
ATOM      3  C   UNL     1      -9.601   4.325 130.590  0.00  0.00    +0.000 A 
ATOM      4  C   UNL     1     -10.252   3.127 130.844  0.00  0.00    +0.000 A 
ATOM      5  N   UNL     1     -10.011   2.762 132.139  0.00  0.00    +0.000 N 
ATOM      6  C   UNL     1      -9.229   3.711 132.756  0.00  0.00    +0.000 A 
ATOM      7  C   UNL     1      -8.818   3.811 134.092  0.00  0.00    +0.000 A 
ATOM      8  C   UNL     1      -8.054   4.925 134.451  0.00  0.00    +0.000 A 
ATOM      9  C   UNL     1      -7.691   5.881 133.505  0.00  0.00    +0.000 A 
ATOM     10  C   UNL     1      -8.100   5.759 132.173  0.00  0.00    +0.000 A 
ATOM     11  C   UNL     1      -8.903   4.667 131.789  0.00  0.00    +0.000 A 
ATOM     12  H   UNL     1     -10.408   1.954 132.601  0.00  0.00    +0.000 HD
ENDBRANCH   1   3
BRANCH   1  13
ATOM     13  O   UNL     1     -11.036   5.542 129.133  0.00  0.00    +0.000 OA
BRANCH  13  19
ATOM     14  C   UNL     1     -13.389   7.676 128.488  0.00  0.00    +0.000 C 
ATOM     15  C   UNL     1     -12.801   6.999 127.244  0.00  0.00    +0.000 C 
ATOM     16  C   UNL     1     -11.426   7.660 127.061  0.00  0.00    +0.000 C 
ATOM     17  C   UNL     1     -11.312   8.635 128.239  0.00  0.00    +0.000 C 
ATOM     18  C   UNL     1     -10.714   7.943 129.487  0.00  0.00    +0.000 C 
ATOM     19  C   UNL     1     -11.498   6.679 129.920  0.00  0.00    +0.000 C 
ATOM     20  C   UNL     1     -13.015   6.937 129.784  0.00  0.00    +0.000 C 
ATOM     21  N   UNL     1     -12.729   8.979 128.401  0.00  0.00    +0.000 NA
ATOM     22  C   UNL     1     -13.065   9.924 129.447  0.00  0.00    +0.000 C 
ENDBRANCH  13  19
ENDBRANCH   1  13
TORSDOF 3
ENDMDL
MODEL 2
REMARK VINA RESULT:      -7.8      8.756     11.444
REMARK  Name = Tropisetron
REMARK  4 active torsions:
REMARK  status: ('A' for Active; 'I' for Inactive)
REMARK    1  A    between atoms: C_8  and  O_11
REMARK    2  A    between atoms: O_11  and  C_12
REMARK    3  A    between atoms: C_12  and  C_14
REMARK    4  A    between atoms: N_23  and  C_24
REMARK                            x       y       z     vdW  Elec       q    Type
REMARK                         _______ _______ _______ _____ _____    ______ ____
ROOT
ATOM      1  C   UNL     1      -7.858   2.608 122.912  0.00  0.00    +0.000 C 
ATOM      2  O   UNL     1      -8.900   3.184 123.221  0.00  0.00    +0.000 OA
ENDROOT
BRANCH   1   3
ATOM      3  C   UNL     1      -6.768   3.320 122.263  0.00  0.00    +0.000 A 
ATOM      4  C   UNL     1      -5.613   3.726 122.913  0.00  0.00    +0.000 A 
ATOM      5  N   UNL     1      -4.882   4.509 122.063  0.00  0.00    +0.000 N 
ATOM      6  C   UNL     1      -5.545   4.648 120.866  0.00  0.00    +0.000 A 
ATOM      7  C   UNL     1      -5.232   5.431 119.747  0.00  0.00    +0.000 A 
ATOM      8  C   UNL     1      -6.128   5.411 118.674  0.00  0.00    +0.000 A 
ATOM      9  C   UNL     1      -7.270   4.615 118.707  0.00  0.00    +0.000 A 
ATOM     10  C   UNL     1      -7.561   3.830 119.827  0.00  0.00    +0.000 A 
ATOM     11  C   UNL     1      -6.698   3.859 120.940  0.00  0.00    +0.000 A 
ATOM     12  H   UNL     1      -4.018   4.980 122.301  0.00  0.00    +0.000 HD
ENDBRANCH   1   3
BRANCH   1  13
ATOM     13  O   UNL     1      -7.606   1.288 123.175  0.00  0.00    +0.000 OA
BRANCH  13  19
ATOM     14  C   UNL     1      -7.315  -1.293 125.114  0.00  0.00    +0.000 C 
ATOM     15  C   UNL     1      -6.160  -1.126 124.118  0.00  0.00    +0.000 C 
ATOM     16  C   UNL     1      -6.756  -1.547 122.765  0.00  0.00    +0.000 C 
ATOM     17  C   UNL     1      -8.219  -1.882 123.081  0.00  0.00    +0.000 C 
ATOM     18  C   UNL     1      -9.118  -0.627 122.985  0.00  0.00    +0.000 C 
ATOM     19  C   UNL     1      -8.637   0.539 123.883  0.00  0.00    +0.000 C 
ATOM     20  C   UNL     1      -8.160  -0.015 125.244  0.00  0.00    +0.000 C 
ATOM     21  N   UNL     1      -8.060  -2.367 124.457  0.00  0.00    +0.000 NA
ATOM     22  C   UNL     1      -9.256  -2.812 125.144  0.00  0.00    +0.000 C 
ENDBRANCH  13  19
ENDBRANCH   1  13
TORSDOF 3
ENDMDL
MODEL 3
REMARK VINA RESULT:      -7.6      1.942      6.571
REMARK  Name = Tropisetron
REMARK  4 active torsions:
REMARK  status: ('A' for Active; 'I' for Inactive)
REMARK    1  A    between atoms: C_8  and  O_11
REMARK    2  A    between atoms: O_11  and  C_12
REMARK    3  A    between atoms: C_12  and  C_14
REMARK    4  A    between atoms: N_23  and  C_24
REMARK                            x       y       z     vdW  Elec       q    Type
REMARK                         _______ _______ _______ _____ _____    ______ ____
ROOT
ATOM      1  C   UNL     1      -8.656   6.654 131.153  0.00  0.00    +0.000 C 
ATOM      2  O   UNL     1      -7.842   7.332 130.529  0.00  0.00    +0.000 OA
ENDROOT
BRANCH   1   3
ATOM      3  C   UNL     1     -10.087   6.880 131.015  0.00  0.00    +0.000 A 
ATOM      4  C   UNL     1     -11.032   6.444 131.931  0.00  0.00    +0.000 A 
ATOM      5  N   UNL     1     -12.279   6.669 131.418  0.00  0.00    +0.000 N 
ATOM      6  C   UNL     1     -12.177   7.227 130.165  0.00  0.00    +0.000 A 
ATOM      7  C   UNL     1     -13.174   7.533 129.230  0.00  0.00    +0.000 A 
ATOM      8  C   UNL     1     -12.767   8.058 128.000  0.00  0.00    +0.000 A 
ATOM      9  C   UNL     1     -11.421   8.298 127.732  0.00  0.00    +0.000 A 
ATOM     10  C   UNL     1     -10.440   7.998 128.682  0.00  0.00    +0.000 A 
ATOM     11  C   UNL     1     -10.816   7.432 129.916  0.00  0.00    +0.000 A 
ATOM     12  H   UNL     1     -13.149   6.399 131.859  0.00  0.00    +0.000 HD
ENDBRANCH   1   3
BRANCH   1  13
ATOM     13  O   UNL     1      -8.315   5.621 131.984  0.00  0.00    +0.000 OA
BRANCH  13  19
ATOM     14  C   UNL     1      -9.316   2.631 132.740  0.00  0.00    +0.000 C 
ATOM     15  C   UNL     1      -9.391   3.629 133.903  0.00  0.00    +0.000 C 
ATOM     16  C   UNL     1      -7.930   3.821 134.338  0.00  0.00    +0.000 C 
ATOM     17  C   UNL     1      -7.124   2.953 133.364  0.00  0.00    +0.000 C 
ATOM     18  C   UNL     1      -6.753   3.739 132.084  0.00  0.00    +0.000 C 
ATOM     19  C   UNL     1      -7.981   4.346 131.361  0.00  0.00    +0.000 C 
ATOM     20  C   UNL     1      -9.148   3.334 131.382  0.00  0.00    +0.000 C 
ATOM     21  N   UNL     1      -8.110   1.895 133.119  0.00  0.00    +0.000 NA
ATOM     22  C   UNL     1      -7.721   0.824 132.221  0.00  0.00    +0.000 C 
ENDBRANCH  13  19
ENDBRANCH   1  13
TORSDOF 3
ENDMDL
MODEL 4
REMARK VINA RESULT:      -7.5      8.704     11.261
REMARK  Name = Tropisetron
REMARK  4 active torsions:
REMARK  status: ('A' for Active; 'I' for Inactive)
REMARK    1  A    between atoms: C_8  and  O_11
REMARK    2  A    between atoms: O_11  and  C_12
REMARK    3  A    between atoms: C_12  and  C_14
REMARK    4  A    between atoms: N_23  and  C_24
REMARK                            x       y       z     vdW  Elec       q    Type
REMARK                         _______ _______ _______ _____ _____    ______ ____
ROOT
ATOM      1  C   UNL     1      -6.836   1.986 124.172  0.00  0.00    +0.000 C 
ATOM      2  O   UNL     1      -6.427   2.637 125.133  0.00  0.00    +0.000 OA
ENDROOT
BRANCH   1   3
ATOM      3  C   UNL     1      -7.455   2.640 123.029  0.00  0.00    +0.000 A 
ATOM      4  C   UNL     1      -8.788   2.490 122.679  0.00  0.00    +0.000 A 
ATOM      5  N   UNL     1      -8.997   3.096 121.472  0.00  0.00    +0.000 N 
ATOM      6  C   UNL     1      -7.818   3.629 121.004  0.00  0.00    +0.000 A 
ATOM      7  C   UNL     1      -7.531   4.247 119.779  0.00  0.00    +0.000 A 
ATOM      8  C   UNL     1      -6.213   4.654 119.556  0.00  0.00    +0.000 A 
ATOM      9  C   UNL     1      -5.232   4.479 120.530  0.00  0.00    +0.000 A 
ATOM     10  C   UNL     1      -5.540   3.872 121.751  0.00  0.00    +0.000 A 
ATOM     11  C   UNL     1      -6.850   3.415 121.991  0.00  0.00    +0.000 A 
ATOM     12  H   UNL     1      -9.871   3.093 120.960  0.00  0.00    +0.000 HD
ENDBRANCH   1   3
BRANCH   1  13
ATOM     13  O   UNL     1      -6.718   0.627 124.061  0.00  0.00    +0.000 OA
BRANCH  13  19
ATOM     14  C   UNL     1      -6.449  -2.551 124.638  0.00  0.00    +0.000 C 
ATOM     15  C   UNL     1      -6.130  -2.149 123.192  0.00  0.00    +0.000 C 
ATOM     16  C   UNL     1      -7.500  -1.841 122.568  0.00  0.00    +0.000 C 
ATOM     17  C   UNL     1      -8.496  -2.048 123.716  0.00  0.00    +0.000 C 
ATOM     18  C   UNL     1      -8.681  -0.753 124.542  0.00  0.00    +0.000 C 
ATOM     19  C   UNL     1      -7.350  -0.185 125.094  0.00  0.00    +0.000 C 
ATOM     20  C   UNL     1      -6.457  -1.343 125.589  0.00  0.00    +0.000 C 
ATOM     21  N   UNL     1      -7.792  -3.101 124.454  0.00  0.00    +0.000 NA
ATOM     22  C   UNL     1      -8.431  -3.609 125.653  0.00  0.00    +0.000 C 
ENDBRANCH  13  19
ENDBRANCH   1  13
TORSDOF 3
ENDMDL
MODEL 5
REMARK VINA RESULT:      -7.2      7.893     10.897
REMARK  Name = Tropisetron
REMARK  4 active torsions:
REMARK  status: ('A' for Active; 'I' for Inactive)
REMARK    1  A    between atoms: C_8  and  O_11
REMARK    2  A    between atoms: O_11  and  C_12
REMARK    3  A    between atoms: C_12  and  C_14
REMARK    4  A    between atoms: N_23  and  C_24
REMARK                            x       y       z     vdW  Elec       q    Type
REMARK                         _______ _______ _______ _____ _____    ______ ____
ROOT
ATOM      1  C   UNL     1      -7.461   3.104 123.741  0.00  0.00    +0.000 C 
ATOM      2  O   UNL     1      -8.279   3.846 124.284  0.00  0.00    +0.000 OA
ENDROOT
BRANCH   1   3
ATOM      3  C   UNL     1      -6.895   3.431 122.441  0.00  0.00    +0.000 A 
ATOM      4  C   UNL     1      -5.557   3.729 122.233  0.00  0.00    +0.000 A 
ATOM      5  N   UNL     1      -5.397   4.152 120.943  0.00  0.00    +0.000 N 
ATOM      6  C   UNL     1      -6.612   4.162 120.298  0.00  0.00    +0.000 A 
ATOM      7  C   UNL     1      -6.948   4.611 119.014  0.00  0.00    +0.000 A 
ATOM      8  C   UNL     1      -8.292   4.541 118.637  0.00  0.00    +0.000 A 
ATOM      9  C   UNL     1      -9.252   4.013 119.496  0.00  0.00    +0.000 A 
ATOM     10  C   UNL     1      -8.897   3.558 120.770  0.00  0.00    +0.000 A 
ATOM     11  C   UNL     1      -7.557   3.652 121.193  0.00  0.00    +0.000 A 
ATOM     12  H   UNL     1      -4.528   4.481 120.540  0.00  0.00    +0.000 HD
ENDBRANCH   1   3
BRANCH   1  13
ATOM     13  O   UNL     1      -6.982   1.952 124.304  0.00  0.00    +0.000 OA
BRANCH  13  19
ATOM     14  C   UNL     1      -9.400  -0.114 124.928  0.00  0.00    +0.000 C 
ATOM     15  C   UNL     1      -9.002   0.762 126.123  0.00  0.00    +0.000 C 
ATOM     16  C   UNL     1      -7.667   0.172 126.604  0.00  0.00    +0.000 C 
ATOM     17  C   UNL     1      -7.380  -0.971 125.621  0.00  0.00    +0.000 C 
ATOM     18  C   UNL     1      -6.607  -0.465 124.380  0.00  0.00    +0.000 C 
ATOM     19  C   UNL     1      -7.321   0.696 123.646  0.00  0.00    +0.000 C 
ATOM     20  C   UNL     1      -8.841   0.425 123.600  0.00  0.00    +0.000 C 
ATOM     21  N   UNL     1      -8.757  -1.370 125.313  0.00  0.00    +0.000 NA
ATOM     22  C   UNL     1      -8.934  -2.474 124.390  0.00  0.00    +0.000 C 
ENDBRANCH  13  19
ENDBRANCH   1  13
TORSDOF 3
ENDMDL
MODEL 6
REMARK VINA RESULT:      -7.2      7.723      9.147
REMARK  Name = Tropisetron
REMARK  4 active torsions:
REMARK  status: ('A' for Active; 'I' for Inactive)
REMARK    1  A    between atoms: C_8  and  O_11
REMARK    2  A    between atoms: O_11  and  C_12
REMARK    3  A    between atoms: C_12  and  C_14
REMARK    4  A    between atoms: N_23  and  C_24
REMARK                            x       y       z     vdW  Elec       q    Type
REMARK                         _______ _______ _______ _____ _____    ______ ____
ROOT
ATOM      1  C   UNL     1      -7.033  -1.449 123.391  0.00  0.00    +0.000 C 
ATOM      2  O   UNL     1      -5.956  -1.845 122.947  0.00  0.00    +0.000 OA
ENDROOT
BRANCH   1   3
ATOM      3  C   UNL     1      -7.868  -2.308 124.219  0.00  0.00    +0.000 A 
ATOM      4  C   UNL     1      -9.052  -2.884 123.787  0.00  0.00    +0.000 A 
ATOM      5  N   UNL     1      -9.664  -3.482 124.853  0.00  0.00    +0.000 N 
ATOM      6  C   UNL     1      -8.915  -3.292 125.992  0.00  0.00    +0.000 A 
ATOM      7  C   UNL     1      -9.193  -3.633 127.322  0.00  0.00    +0.000 A 
ATOM      8  C   UNL     1      -8.255  -3.268 128.291  0.00  0.00    +0.000 A 
ATOM      9  C   UNL     1      -7.074  -2.618 127.939  0.00  0.00    +0.000 A 
ATOM     10  C   UNL     1      -6.808  -2.296 126.605  0.00  0.00    +0.000 A 
ATOM     11  C   UNL     1      -7.752  -2.616 125.610  0.00  0.00    +0.000 A 
ATOM     12  H   UNL     1     -10.569  -3.935 124.828  0.00  0.00    +0.000 HD
ENDBRANCH   1   3
BRANCH   1  13
ATOM     13  O   UNL     1      -7.524  -0.186 123.196  0.00  0.00    +0.000 OA
BRANCH  13  19
ATOM     14  C   UNL     1      -9.006   2.016 125.056  0.00  0.00    +0.000 C 
ATOM     15  C   UNL     1      -9.891   1.440 123.944  0.00  0.00    +0.000 C 
ATOM     16  C   UNL     1      -9.370   2.101 122.658  0.00  0.00    +0.000 C 
ATOM     17  C   UNL     1      -8.198   2.972 123.126  0.00  0.00    +0.000 C 
ATOM     18  C   UNL     1      -6.874   2.173 123.145  0.00  0.00    +0.000 C 
ATOM     19  C   UNL     1      -6.949   0.885 124.001  0.00  0.00    +0.000 C 
ATOM     20  C   UNL     1      -7.746   1.168 125.295  0.00  0.00    +0.000 C 
ATOM     21  N   UNL     1      -8.679   3.315 124.469  0.00  0.00    +0.000 NA
ATOM     22  C   UNL     1      -7.832   4.172 125.275  0.00  0.00    +0.000 C 
ENDBRANCH  13  19
ENDBRANCH   1  13
TORSDOF 3
ENDMDL
MODEL 7
REMARK VINA RESULT:      -7.1      7.673     10.182
REMARK  Name = Tropisetron
REMARK  4 active torsions:
REMARK  status: ('A' for Active; 'I' for Inactive)
REMARK    1  A    between atoms: C_8  and  O_11
REMARK    2  A    between atoms: O_11  and  C_12
REMARK    3  A    between atoms: C_12  and  C_14
REMARK    4  A    between atoms: N_23  and  C_24
REMARK                            x       y       z     vdW  Elec       q    Type
REMARK                         _______ _______ _______ _____ _____    ______ ____
ROOT
ATOM      1  C   UNL     1     -10.005   0.581 123.216  0.00  0.00    +0.000 C 
ATOM      2  O   UNL     1     -11.033   0.568 122.540  0.00  0.00    +0.000 OA
ENDROOT
BRANCH   1   3
ATOM      3  C   UNL     1      -9.249   1.809 123.414  0.00  0.00    +0.000 A 
ATOM      4  C   UNL     1      -8.849   2.646 122.384  0.00  0.00    +0.000 A 
ATOM      5  N   UNL     1      -8.021   3.607 122.895  0.00  0.00    +0.000 N 
ATOM      6  C   UNL     1      -7.848   3.408 124.245  0.00  0.00    +0.000 A 
ATOM      7  C   UNL     1      -7.018   4.074 125.156  0.00  0.00    +0.000 A 
ATOM      8  C   UNL     1      -7.013   3.618 126.477  0.00  0.00    +0.000 A 
ATOM      9  C   UNL     1      -7.829   2.562 126.875  0.00  0.00    +0.000 A 
ATOM     10  C   UNL     1      -8.661   1.917 125.956  0.00  0.00    +0.000 A 
ATOM     11  C   UNL     1      -8.659   2.328 124.608  0.00  0.00    +0.000 A 
ATOM     12  H   UNL     1      -7.546   4.317 122.352  0.00  0.00    +0.000 HD
ENDBRANCH   1   3
BRANCH   1  13
ATOM     13  O   UNL     1      -9.502  -0.513 123.866  0.00  0.00    +0.000 OA
BRANCH  13  19
ATOM     14  C   UNL     1      -8.315  -3.472 124.451  0.00  0.00    +0.000 C 
ATOM     15  C   UNL     1      -9.093  -2.867 125.627  0.00  0.00    +0.000 C 
ATOM     16  C   UNL     1      -8.151  -1.798 126.201  0.00  0.00    +0.000 C 
ATOM     17  C   UNL     1      -6.922  -1.842 125.285  0.00  0.00    +0.000 C 
ATOM     18  C   UNL     1      -7.095  -0.906 124.065  0.00  0.00    +0.000 C 
ATOM     19  C   UNL     1      -8.375  -1.200 123.246  0.00  0.00    +0.000 C 
ATOM     20  C   UNL     1      -8.581  -2.727 123.133  0.00  0.00    +0.000 C 
ATOM     21  N   UNL     1      -6.947  -3.263 124.923  0.00  0.00    +0.000 NA
ATOM     22  C   UNL     1      -5.899  -3.739 124.040  0.00  0.00    +0.000 C 
ENDBRANCH  13  19
ENDBRANCH   1  13
TORSDOF 3
ENDMDL
MODEL 8
REMARK VINA RESULT:      -7.1      7.855     10.337
REMARK  Name = Tropisetron
REMARK  4 active torsions:
REMARK  status: ('A' for Active; 'I' for Inactive)
REMARK    1  A    between atoms: C_8  and  O_11
REMARK    2  A    between atoms: O_11  and  C_12
REMARK    3  A    between atoms: C_12  and  C_14
REMARK    4  A    between atoms: N_23  and  C_24
REMARK                            x       y       z     vdW  Elec       q    Type
REMARK                         _______ _______ _______ _____ _____    ______ ____
ROOT
ATOM      1  C   UNL     1      -7.875   1.897 125.593  0.00  0.00    +0.000 C 
ATOM      2  O   UNL     1      -8.896   2.378 126.084  0.00  0.00    +0.000 OA
ENDROOT
BRANCH   1   3
ATOM      3  C   UNL     1      -6.800   2.749 125.106  0.00  0.00    +0.000 A 
ATOM      4  C   UNL     1      -6.063   3.603 125.911  0.00  0.00    +0.000 A 
ATOM      5  N   UNL     1      -5.260   4.372 125.116  0.00  0.00    +0.000 N 
ATOM      6  C   UNL     1      -5.469   4.058 123.793  0.00  0.00    +0.000 A 
ATOM      7  C   UNL     1      -4.950   4.649 122.633  0.00  0.00    +0.000 A 
ATOM      8  C   UNL     1      -5.382   4.143 121.404  0.00  0.00    +0.000 A 
ATOM      9  C   UNL     1      -6.268   3.070 121.340  0.00  0.00    +0.000 A 
ATOM     10  C   UNL     1      -6.766   2.485 122.508  0.00  0.00    +0.000 A 
ATOM     11  C   UNL     1      -6.380   2.998 123.762  0.00  0.00    +0.000 A 
ATOM     12  H   UNL     1      -4.655   5.115 125.443  0.00  0.00    +0.000 HD
ENDBRANCH   1   3
BRANCH   1  13
ATOM     13  O   UNL     1      -7.632   0.554 125.497  0.00  0.00    +0.000 OA
BRANCH  13  19
ATOM     14  C   UNL     1      -7.703  -2.631 124.896  0.00  0.00    +0.000 C 
ATOM     15  C   UNL     1      -6.361  -1.964 124.572  0.00  0.00    +0.000 C 
ATOM     16  C   UNL     1      -6.625  -1.177 123.279  0.00  0.00    +0.000 C 
ATOM     17  C   UNL     1      -8.110  -1.418 122.983  0.00  0.00    +0.000 C 
ATOM     18  C   UNL     1      -9.003  -0.374 123.694  0.00  0.00    +0.000 C 
ATOM     19  C   UNL     1      -8.772  -0.313 125.224  0.00  0.00    +0.000 C 
ATOM     20  C   UNL     1      -8.595  -1.744 125.780  0.00  0.00    +0.000 C 
ATOM     21  N   UNL     1      -8.248  -2.766 123.545  0.00  0.00    +0.000 NA
ATOM     22  C   UNL     1      -9.554  -3.390 123.454  0.00  0.00    +0.000 C 
ENDBRANCH  13  19
ENDBRANCH   1  13
TORSDOF 3
ENDMDL
MODEL 9
REMARK VINA RESULT:      -7.0      2.024      2.399
REMARK  Name = Tropisetron
REMARK  4 active torsions:
REMARK  status: ('A' for Active; 'I' for Inactive)
REMARK    1  A    between atoms: C_8  and  O_11
REMARK    2  A    between atoms: O_11  and  C_12
REMARK    3  A    between atoms: C_12  and  C_14
REMARK    4  A    between atoms: N_23  and  C_24
REMARK                            x       y       z     vdW  Elec       q    Type
REMARK                         _______ _______ _______ _____ _____    ______ ____
ROOT
ATOM      1  C   UNL     1     -10.282   4.564 129.914  0.00  0.00    +0.000 C 
ATOM      2  O   UNL     1     -10.844   3.779 130.677  0.00  0.00    +0.000 OA
ENDROOT
BRANCH   1   3
ATOM      3  C   UNL     1      -8.855   4.463 129.646  0.00  0.00    +0.000 A 
ATOM      4  C   UNL     1      -8.273   3.425 128.937  0.00  0.00    +0.000 A 
ATOM      5  N   UNL     1      -6.913   3.547 129.016  0.00  0.00    +0.000 N 
ATOM      6  C   UNL     1      -6.584   4.638 129.786  0.00  0.00    +0.000 A 
ATOM      7  C   UNL     1      -5.331   5.091 130.220  0.00  0.00    +0.000 A 
ATOM      8  C   UNL     1      -5.303   6.219 131.045  0.00  0.00    +0.000 A 
ATOM      9  C   UNL     1      -6.476   6.884 131.391  0.00  0.00    +0.000 A 
ATOM     10  C   UNL     1      -7.717   6.426 130.939  0.00  0.00    +0.000 A 
ATOM     11  C   UNL     1      -7.782   5.269 130.138  0.00  0.00    +0.000 A 
ATOM     12  H   UNL     1      -6.245   2.892 128.629  0.00  0.00    +0.000 HD
ENDBRANCH   1   3
BRANCH   1  13
ATOM     13  O   UNL     1     -10.927   5.556 129.225  0.00  0.00    +0.000 OA
BRANCH  13  19
ATOM     14  C   UNL     1     -13.392   7.601 128.726  0.00  0.00    +0.000 C 
ATOM     15  C   UNL     1     -12.954   6.831 127.473  0.00  0.00    +0.000 C 
ATOM     16  C   UNL     1     -11.630   7.492 127.060  0.00  0.00    +0.000 C 
ATOM     17  C   UNL     1     -11.387   8.561 128.132  0.00  0.00    +0.000 C 
ATOM     18  C   UNL     1     -10.618   7.982 129.342  0.00  0.00    +0.000 C 
ATOM     19  C   UNL     1     -11.309   6.748 129.973  0.00  0.00    +0.000 C 
ATOM     20  C   UNL     1     -12.837   6.975 130.016  0.00  0.00    +0.000 C 
ATOM     21  N   UNL     1     -12.779   8.899 128.449  0.00  0.00    +0.000 NA
ATOM     22  C   UNL     1     -12.999   9.923 129.452  0.00  0.00    +0.000 C 
ENDBRANCH  13  19
ENDBRANCH   1  13
TORSDOF 3
ENDMDL
