MODEL 1
REMARK VINA RESULT:      -6.9      0.000      0.000
REMARK  Name = Tropicamide
REMARK  8 active torsions:
REMARK  status: ('A' for Active; 'I' for Inactive)
REMARK    1  A    between atoms: C_1  and  C_2
REMARK    2  A    between atoms: C_2  and  N_3
REMARK    3  A    between atoms: N_3  and  C_4
REMARK    4  A    between atoms: C_4  and  C_5
REMARK    5  A    between atoms: C_11  and  C_13
REMARK    6  A    between atoms: C_13  and  C_14
REMARK    7  A    between atoms: C_13  and  C_16
REMARK    8  A    between atoms: C_14  and  O_15
REMARK                            x       y       z     vdW  Elec       q    Type
REMARK                         _______ _______ _______ _____ _____    ______ ____
ROOT
ATOM      1  N   UNL     1      -9.569   4.361 130.004  0.00  0.00    +0.000 N 
ATOM      2  C   UNL     1     -10.151   5.658 130.068  0.00  0.00    +0.000 C 
ATOM      3  O   UNL     1      -9.468   6.571 129.626  0.00  0.00    +0.000 OA
ENDROOT
BRANCH   1   5
ATOM      4  C   UNL     1      -7.879   3.647 128.078  0.00  0.00    +0.000 C 
ATOM      5  C   UNL     1      -8.226   4.431 129.317  0.00  0.00    +0.000 C 
ENDBRANCH   1   5
BRANCH   1   6
ATOM      6  C   UNL     1     -10.133   3.237 130.808  0.00  0.00    +0.000 C 
BRANCH   6   7
ATOM      7  C   UNL     1      -9.321   2.325 131.676  0.00  0.00    +0.000 A 
ATOM      8  C   UNL     1      -9.128   0.962 131.550  0.00  0.00    +0.000 A 
ATOM      9  C   UNL     1      -8.160   0.380 132.367  0.00  0.00    +0.000 A 
ATOM     10  N   UNL     1      -7.342   1.089 133.168  0.00  0.00    +0.000 NA
ATOM     11  C   UNL     1      -7.768   2.321 133.427  0.00  0.00    +0.000 A 
ATOM     12  C   UNL     1      -8.950   2.803 132.903  0.00  0.00    +0.000 A 
ENDBRANCH   6   7
ENDBRANCH   1   6
BRANCH   2  13
ATOM     13  C   UNL     1     -11.608   5.931 130.640  0.00  0.00    +0.000 C 
BRANCH  13  14
ATOM     14  C   UNL     1     -12.433   6.985 129.815  0.00  0.00    +0.000 A 
ATOM     15  C   UNL     1     -13.143   6.685 128.642  0.00  0.00    +0.000 A 
ATOM     16  C   UNL     1     -13.608   7.671 127.773  0.00  0.00    +0.000 A 
ATOM     17  C   UNL     1     -13.527   9.003 128.137  0.00  0.00    +0.000 A 
ATOM     18  C   UNL     1     -12.937   9.343 129.347  0.00  0.00    +0.000 A 
ATOM     19  C   UNL     1     -12.401   8.350 130.177  0.00  0.00    +0.000 A 
ENDBRANCH  13  14
BRANCH  13  20
ATOM     20  C   UNL     1     -11.592   6.478 132.100  0.00  0.00    +0.000 C 
BRANCH  20  21
ATOM     21  O   UNL     1     -10.357   6.456 132.798  0.00  0.00    +0.000 OA
ATOM     22  H   UNL     1     -10.469   5.939 133.611  0.00  0.00    +0.000 HD
ENDBRANCH  20  21
ENDBRANCH  13  20
ENDBRANCH   2  13
TORSDOF 7
ENDMDL
MODEL 2
REMARK VINA RESULT:      -6.7      7.849     10.335
REMARK  Name = Tropicamide
REMARK  8 active torsions:
REMARK  status: ('A' for Active; 'I' for Inactive)
REMARK    1  A    between atoms: C_1  and  C_2
REMARK    2  A    between atoms: C_2  and  N_3
REMARK    3  A    between atoms: N_3  and  C_4
REMARK    4  A    between atoms: C_4  and  C_5
REMARK    5  A    between atoms: C_11  and  C_13
REMARK    6  A    between atoms: C_13  and  C_14
REMARK    7  A    between atoms: C_13  and  C_16
REMARK    8  A    between atoms: C_14  and  O_15
REMARK                            x       y       z     vdW  Elec       q    Type
REMARK                         _______ _______ _______ _____ _____    ______ ____
ROOT
ATOM      1  N   UNL     1      -8.728   1.094 124.390  0.00  0.00    +0.000 N 
ATOM      2  C   UNL     1      -9.128  -0.255 124.172  0.00  0.00    +0.000 C 
ATOM      3  O   UNL     1      -9.997  -0.423 123.327  0.00  0.00    +0.000 OA
ENDROOT
BRANCH   1   5
ATOM      4  C   UNL     1      -8.783   2.789 122.340  0.00  0.00    +0.000 C 
ATOM      5  C   UNL     1      -9.460   2.009 123.439  0.00  0.00    +0.000 C 
ENDBRANCH   1   5
BRANCH   1   6
ATOM      6  C   UNL     1      -7.951   1.466 125.608  0.00  0.00    +0.000 C 
BRANCH   6   7
ATOM      7  C   UNL     1      -6.600   2.112 125.587  0.00  0.00    +0.000 A 
ATOM      8  C   UNL     1      -6.227   3.312 125.012  0.00  0.00    +0.000 A 
ATOM      9  C   UNL     1      -4.952   3.791 125.310  0.00  0.00    +0.000 A 
ATOM     10  N   UNL     1      -4.134   3.210 126.207  0.00  0.00    +0.000 NA
ATOM     11  C   UNL     1      -4.449   1.951 126.496  0.00  0.00    +0.000 A 
ATOM     12  C   UNL     1      -5.529   1.324 125.911  0.00  0.00    +0.000 A 
ENDBRANCH   6   7
ENDBRANCH   1   6
BRANCH   2  13
ATOM     13  C   UNL     1      -8.480  -1.489 124.935  0.00  0.00    +0.000 C 
BRANCH  13  14
ATOM     14  C   UNL     1      -7.093  -1.946 124.352  0.00  0.00    +0.000 A 
ATOM     15  C   UNL     1      -6.674  -1.699 123.035  0.00  0.00    +0.000 A 
ATOM     16  C   UNL     1      -5.592  -2.360 122.455  0.00  0.00    +0.000 A 
ATOM     17  C   UNL     1      -4.785  -3.171 123.231  0.00  0.00    +0.000 A 
ATOM     18  C   UNL     1      -5.093  -3.353 124.573  0.00  0.00    +0.000 A 
ATOM     19  C   UNL     1      -6.227  -2.747 125.128  0.00  0.00    +0.000 A 
ENDBRANCH  13  14
BRANCH  13  20
ATOM     20  C   UNL     1      -9.378  -2.762 124.896  0.00  0.00    +0.000 C 
BRANCH  20  21
ATOM     21  O   UNL     1      -9.944  -3.132 123.649  0.00  0.00    +0.000 OA
ATOM     22  H   UNL     1      -9.356  -3.772 123.218  0.00  0.00    +0.000 HD
ENDBRANCH  20  21
ENDBRANCH  13  20
ENDBRANCH   2  13
TORSDOF 7
ENDMDL
MODEL 3
REMARK VINA RESULT:      -6.6      7.236      9.159
REMARK  Name = Tropicamide
REMARK  8 active torsions:
REMARK  status: ('A' for Active; 'I' for Inactive)
REMARK    1  A    between atoms: C_1  and  C_2
REMARK    2  A    between atoms: C_2  and  N_3
REMARK    3  A    between atoms: N_3  and  C_4
REMARK    4  A    between atoms: C_4  and  C_5
REMARK    5  A    between atoms: C_11  and  C_13
REMARK    6  A    between atoms: C_13  and  C_14
REMARK    7  A    between atoms: C_13  and  C_16
REMARK    8  A    between atoms: C_14  and  O_15
REMARK                            x       y       z     vdW  Elec       q    Type
REMARK                         _______ _______ _______ _____ _____    ______ ____
ROOT
ATOM      1  N   UNL     1      -6.268   1.402 125.625  0.00  0.00    +0.000 N 
ATOM      2  C   UNL     1      -5.702   2.676 125.341  0.00  0.00    +0.000 C 
ATOM      3  O   UNL     1      -4.560   2.853 125.742  0.00  0.00    +0.000 OA
ENDROOT
BRANCH   1   5
ATOM      4  C   UNL     1      -5.488  -0.921 126.662  0.00  0.00    +0.000 C 
ATOM      5  C   UNL     1      -5.253   0.529 126.323  0.00  0.00    +0.000 C 
ENDBRANCH   1   5
BRANCH   1   6
ATOM      6  C   UNL     1      -7.739   1.183 125.504  0.00  0.00    +0.000 C 
BRANCH   6   7
ATOM      7  C   UNL     1      -8.406   0.524 124.336  0.00  0.00    +0.000 A 
ATOM      8  C   UNL     1      -8.226  -0.759 123.852  0.00  0.00    +0.000 A 
ATOM      9  C   UNL     1      -9.118  -1.200 122.876  0.00  0.00    +0.000 A 
ATOM     10  N   UNL     1     -10.193  -0.494 122.481  0.00  0.00    +0.000 NA
ATOM     11  C   UNL     1     -10.137   0.800 122.785  0.00  0.00    +0.000 A 
ATOM     12  C   UNL     1      -9.055   1.339 123.450  0.00  0.00    +0.000 A 
ENDBRANCH   6   7
ENDBRANCH   1   6
BRANCH   2  13
ATOM     13  C   UNL     1      -6.465   3.805 124.522  0.00  0.00    +0.000 C 
BRANCH  13  14
ATOM     14  C   UNL     1      -5.992   3.944 123.030  0.00  0.00    +0.000 A 
ATOM     15  C   UNL     1      -4.808   4.589 122.637  0.00  0.00    +0.000 A 
ATOM     16  C   UNL     1      -4.561   4.963 121.316  0.00  0.00    +0.000 A 
ATOM     17  C   UNL     1      -5.416   4.550 120.312  0.00  0.00    +0.000 A 
ATOM     18  C   UNL     1      -6.542   3.806 120.640  0.00  0.00    +0.000 A 
ATOM     19  C   UNL     1      -6.825   3.503 121.978  0.00  0.00    +0.000 A 
ENDBRANCH  13  14
BRANCH  13  20
ATOM     20  C   UNL     1      -6.285   5.224 125.142  0.00  0.00    +0.000 C 
BRANCH  20  21
ATOM     21  O   UNL     1      -5.505   5.336 126.321  0.00  0.00    +0.000 OA
ATOM     22  H   UNL     1      -5.331   4.445 126.664  0.00  0.00    +0.000 HD
ENDBRANCH  20  21
ENDBRANCH  13  20
ENDBRANCH   2  13
TORSDOF 7
ENDMDL
MODEL 4
REMARK VINA RESULT:      -6.5      7.560      9.711
REMARK  Name = Tropicamide
REMARK  8 active torsions:
REMARK  status: ('A' for Active; 'I' for Inactive)
REMARK    1  A    between atoms: C_1  and  C_2
REMARK    2  A    between atoms: C_2  and  N_3
REMARK    3  A    between atoms: N_3  and  C_4
REMARK    4  A    between atoms: C_4  and  C_5
REMARK    5  A    between atoms: C_11  and  C_13
REMARK    6  A    between atoms: C_13  and  C_14
REMARK    7  A    between atoms: C_13  and  C_16
REMARK    8  A    between atoms: C_14  and  O_15
REMARK                            x       y       z     vdW  Elec       q    Type
REMARK                         _______ _______ _______ _____ _____    ______ ____
ROOT
ATOM      1  N   UNL     1      -7.411   1.343 125.185  0.00  0.00    +0.000 N 
ATOM      2  C   UNL     1      -8.036   0.919 123.979  0.00  0.00    +0.000 C 
ATOM      3  O   UNL     1      -7.945   1.689 123.033  0.00  0.00    +0.000 OA
ENDROOT
BRANCH   1   5
ATOM      4  C   UNL     1      -5.331   2.973 125.495  0.00  0.00    +0.000 C 
ATOM      5  C   UNL     1      -6.708   2.661 124.967  0.00  0.00    +0.000 C 
ENDBRANCH   1   5
BRANCH   1   6
ATOM      6  C   UNL     1      -7.738   0.680 126.482  0.00  0.00    +0.000 C 
BRANCH   6   7
ATOM      7  C   UNL     1      -7.046  -0.541 127.007  0.00  0.00    +0.000 A 
ATOM      8  C   UNL     1      -5.750  -0.963 126.780  0.00  0.00    +0.000 A 
ATOM      9  C   UNL     1      -5.283  -2.025 127.552  0.00  0.00    +0.000 A 
ATOM     10  N   UNL     1      -5.981  -2.566 128.567  0.00  0.00    +0.000 NA
ATOM     11  C   UNL     1      -7.283  -2.295 128.538  0.00  0.00    +0.000 A 
ATOM     12  C   UNL     1      -7.838  -1.521 127.540  0.00  0.00    +0.000 A 
ENDBRANCH   6   7
ENDBRANCH   1   6
BRANCH   2  13
ATOM     13  C   UNL     1      -8.780  -0.477 123.829  0.00  0.00    +0.000 C 
BRANCH  13  14
ATOM     14  C   UNL     1      -7.812  -1.713 123.747  0.00  0.00    +0.000 A 
ATOM     15  C   UNL     1      -8.108  -2.981 124.273  0.00  0.00    +0.000 A 
ATOM     16  C   UNL     1      -7.135  -3.962 124.456  0.00  0.00    +0.000 A 
ATOM     17  C   UNL     1      -5.859  -3.769 123.960  0.00  0.00    +0.000 A 
ATOM     18  C   UNL     1      -5.550  -2.574 123.325  0.00  0.00    +0.000 A 
ATOM     19  C   UNL     1      -6.513  -1.561 123.215  0.00  0.00    +0.000 A 
ENDBRANCH  13  14
BRANCH  13  20
ATOM     20  C   UNL     1      -9.656  -0.559 122.542  0.00  0.00    +0.000 C 
BRANCH  20  21
ATOM     21  O   UNL     1     -10.492   0.547 122.242  0.00  0.00    +0.000 OA
ATOM     22  H   UNL     1     -10.344   0.807 121.320  0.00  0.00    +0.000 HD
ENDBRANCH  20  21
ENDBRANCH  13  20
ENDBRANCH   2  13
TORSDOF 7
ENDMDL
MODEL 5
REMARK VINA RESULT:      -6.4      6.611      8.833
REMARK  Name = Tropicamide
REMARK  8 active torsions:
REMARK  status: ('A' for Active; 'I' for Inactive)
REMARK    1  A    between atoms: C_1  and  C_2
REMARK    2  A    between atoms: C_2  and  N_3
REMARK    3  A    between atoms: N_3  and  C_4
REMARK    4  A    between atoms: C_4  and  C_5
REMARK    5  A    between atoms: C_11  and  C_13
REMARK    6  A    between atoms: C_13  and  C_14
REMARK    7  A    between atoms: C_13  and  C_16
REMARK    8  A    between atoms: C_14  and  O_15
REMARK                            x       y       z     vdW  Elec       q    Type
REMARK                         _______ _______ _______ _____ _____    ______ ____
ROOT
ATOM      1  N   UNL     1      -6.509   2.267 125.448  0.00  0.00    +0.000 N 
ATOM      2  C   UNL     1      -7.370   2.919 124.522  0.00  0.00    +0.000 C 
ATOM      3  O   UNL     1      -7.800   4.009 124.872  0.00  0.00    +0.000 OA
ENDROOT
BRANCH   1   5
ATOM      4  C   UNL     1      -6.559   2.721 128.069  0.00  0.00    +0.000 C 
ATOM      5  C   UNL     1      -6.279   3.150 126.651  0.00  0.00    +0.000 C 
ENDBRANCH   1   5
BRANCH   1   6
ATOM      6  C   UNL     1      -6.203   0.813 125.304  0.00  0.00    +0.000 C 
BRANCH   6   7
ATOM      7  C   UNL     1      -7.239  -0.264 125.188  0.00  0.00    +0.000 A 
ATOM      8  C   UNL     1      -8.156  -0.683 126.134  0.00  0.00    +0.000 A 
ATOM      9  C   UNL     1      -9.149  -1.563 125.709  0.00  0.00    +0.000 A 
ATOM     10  N   UNL     1      -9.322  -1.921 124.423  0.00  0.00    +0.000 NA
ATOM     11  C   UNL     1      -8.264  -1.699 123.649  0.00  0.00    +0.000 A 
ATOM     12  C   UNL     1      -7.104  -1.147 124.152  0.00  0.00    +0.000 A 
ENDBRANCH   6   7
ENDBRANCH   1   6
BRANCH   2  13
ATOM     13  C   UNL     1      -7.741   2.311 123.101  0.00  0.00    +0.000 C 
BRANCH  13  14
ATOM     14  C   UNL     1      -7.382   3.249 121.891  0.00  0.00    +0.000 A 
ATOM     15  C   UNL     1      -8.295   3.635 120.897  0.00  0.00    +0.000 A 
ATOM     16  C   UNL     1      -7.894   4.207 119.691  0.00  0.00    +0.000 A 
ATOM     17  C   UNL     1      -6.573   4.571 119.507  0.00  0.00    +0.000 A 
ATOM     18  C   UNL     1      -5.650   4.315 120.513  0.00  0.00    +0.000 A 
ATOM     19  C   UNL     1      -6.049   3.668 121.691  0.00  0.00    +0.000 A 
ENDBRANCH  13  14
BRANCH  13  20
ATOM     20  C   UNL     1      -9.264   2.015 122.950  0.00  0.00    +0.000 C 
BRANCH  20  21
ATOM     21  O   UNL     1     -10.061   2.046 124.123  0.00  0.00    +0.000 OA
ATOM     22  H   UNL     1     -10.542   2.888 124.150  0.00  0.00    +0.000 HD
ENDBRANCH  20  21
ENDBRANCH  13  20
ENDBRANCH   2  13
TORSDOF 7
ENDMDL
MODEL 6
REMARK VINA RESULT:      -6.4      7.240     10.843
REMARK  Name = Tropicamide
REMARK  8 active torsions:
REMARK  status: ('A' for Active; 'I' for Inactive)
REMARK    1  A    between atoms: C_1  and  C_2
REMARK    2  A    between atoms: C_2  and  N_3
REMARK    3  A    between atoms: N_3  and  C_4
REMARK    4  A    between atoms: C_4  and  C_5
REMARK    5  A    between atoms: C_11  and  C_13
REMARK    6  A    between atoms: C_13  and  C_14
REMARK    7  A    between atoms: C_13  and  C_16
REMARK    8  A    between atoms: C_14  and  O_15
REMARK                            x       y       z     vdW  Elec       q    Type
REMARK                         _______ _______ _______ _____ _____    ______ ____
ROOT
ATOM      1  N   UNL     1      -7.747   2.833 124.184  0.00  0.00    +0.000 N 
ATOM      2  C   UNL     1      -8.513   1.818 124.821  0.00  0.00    +0.000 C 
ATOM      3  O   UNL     1      -8.989   2.113 125.909  0.00  0.00    +0.000 OA
ENDROOT
BRANCH   1   5
ATOM      4  C   UNL     1      -6.546   4.930 125.297  0.00  0.00    +0.000 C 
ATOM      5  C   UNL     1      -7.768   4.094 125.013  0.00  0.00    +0.000 C 
ENDBRANCH   1   5
BRANCH   1   6
ATOM      6  C   UNL     1      -6.841   2.497 123.046  0.00  0.00    +0.000 C 
BRANCH   6   7
ATOM      7  C   UNL     1      -6.521   3.424 121.914  0.00  0.00    +0.000 A 
ATOM      8  C   UNL     1      -5.396   4.207 121.732  0.00  0.00    +0.000 A 
ATOM      9  C   UNL     1      -5.246   4.825 120.492  0.00  0.00    +0.000 A 
ATOM     10  N   UNL     1      -6.068   4.603 119.449  0.00  0.00    +0.000 NA
ATOM     11  C   UNL     1      -7.241   4.072 119.783  0.00  0.00    +0.000 A 
ATOM     12  C   UNL     1      -7.556   3.784 121.095  0.00  0.00    +0.000 A 
ENDBRANCH   6   7
ENDBRANCH   1   6
BRANCH   2  13
ATOM     13  C   UNL     1      -8.783   0.393 124.171  0.00  0.00    +0.000 C 
BRANCH  13  14
ATOM     14  C   UNL     1      -7.492  -0.487 123.999  0.00  0.00    +0.000 A 
ATOM     15  C   UNL     1      -7.195  -1.232 122.847  0.00  0.00    +0.000 A 
ATOM     16  C   UNL     1      -6.218  -2.227 122.827  0.00  0.00    +0.000 A 
ATOM     17  C   UNL     1      -5.384  -2.394 123.918  0.00  0.00    +0.000 A 
ATOM     18  C   UNL     1      -5.564  -1.597 125.041  0.00  0.00    +0.000 A 
ATOM     19  C   UNL     1      -6.599  -0.654 125.081  0.00  0.00    +0.000 A 
ENDBRANCH  13  14
BRANCH  13  20
ATOM     20  C   UNL     1      -9.403   0.489 122.744  0.00  0.00    +0.000 C 
BRANCH  20  21
ATOM     21  O   UNL     1     -10.803   0.294 122.619  0.00  0.00    +0.000 OA
ATOM     22  H   UNL     1     -11.162   0.057 123.487  0.00  0.00    +0.000 HD
ENDBRANCH  20  21
ENDBRANCH  13  20
ENDBRANCH   2  13
TORSDOF 7
ENDMDL
MODEL 7
REMARK VINA RESULT:      -6.3      6.404      9.248
REMARK  Name = Tropicamide
REMARK  8 active torsions:
REMARK  status: ('A' for Active; 'I' for Inactive)
REMARK    1  A    between atoms: C_1  and  C_2
REMARK    2  A    between atoms: C_2  and  N_3
REMARK    3  A    between atoms: N_3  and  C_4
REMARK    4  A    between atoms: C_4  and  C_5
REMARK    5  A    between atoms: C_11  and  C_13
REMARK    6  A    between atoms: C_13  and  C_14
REMARK    7  A    between atoms: C_13  and  C_16
REMARK    8  A    between atoms: C_14  and  O_15
REMARK                            x       y       z     vdW  Elec       q    Type
REMARK                         _______ _______ _______ _____ _____    ______ ____
ROOT
ATOM      1  N   UNL     1      -8.089   1.036 125.312  0.00  0.00    +0.000 N 
ATOM      2  C   UNL     1      -8.319   0.952 126.714  0.00  0.00    +0.000 C 
ATOM      3  O   UNL     1      -9.279   1.583 127.135  0.00  0.00    +0.000 OA
ENDROOT
BRANCH   1   5
ATOM      4  C   UNL     1      -9.261   2.098 123.173  0.00  0.00    +0.000 C 
ATOM      5  C   UNL     1      -9.170   1.864 124.660  0.00  0.00    +0.000 C 
ENDBRANCH   1   5
BRANCH   1   6
ATOM      6  C   UNL     1      -6.781   0.612 124.733  0.00  0.00    +0.000 C 
BRANCH   6   7
ATOM      7  C   UNL     1      -6.422  -0.803 124.395  0.00  0.00    +0.000 A 
ATOM      8  C   UNL     1      -5.333  -1.541 124.820  0.00  0.00    +0.000 A 
ATOM      9  C   UNL     1      -5.336  -2.904 124.527  0.00  0.00    +0.000 A 
ATOM     10  N   UNL     1      -6.383  -3.539 123.967  0.00  0.00    +0.000 NA
ATOM     11  C   UNL     1      -7.247  -2.733 123.358  0.00  0.00    +0.000 A 
ATOM     12  C   UNL     1      -7.059  -1.366 123.323  0.00  0.00    +0.000 A 
ENDBRANCH   6   7
ENDBRANCH   1   6
BRANCH   2  13
ATOM     13  C   UNL     1      -7.426   0.073 127.692  0.00  0.00    +0.000 C 
BRANCH  13  14
ATOM     14  C   UNL     1      -7.840  -1.442 127.748  0.00  0.00    +0.000 A 
ATOM     15  C   UNL     1      -8.478  -2.123 126.699  0.00  0.00    +0.000 A 
ATOM     16  C   UNL     1      -9.099  -3.359 126.874  0.00  0.00    +0.000 A 
ATOM     17  C   UNL     1      -8.955  -4.039 128.070  0.00  0.00    +0.000 A 
ATOM     18  C   UNL     1      -8.230  -3.455 129.101  0.00  0.00    +0.000 A 
ATOM     19  C   UNL     1      -7.676  -2.178 128.942  0.00  0.00    +0.000 A 
ENDBRANCH  13  14
BRANCH  13  20
ATOM     20  C   UNL     1      -7.485   0.567 129.169  0.00  0.00    +0.000 C 
BRANCH  20  21
ATOM     21  O   UNL     1      -7.275   1.948 129.412  0.00  0.00    +0.000 OA
ATOM     22  H   UNL     1      -7.512   2.444 128.613  0.00  0.00    +0.000 HD
ENDBRANCH  20  21
ENDBRANCH  13  20
ENDBRANCH   2  13
TORSDOF 7
ENDMDL
MODEL 8
REMARK VINA RESULT:      -6.2      6.769      9.680
REMARK  Name = Tropicamide
REMARK  8 active torsions:
REMARK  status: ('A' for Active; 'I' for Inactive)
REMARK    1  A    between atoms: C_1  and  C_2
REMARK    2  A    between atoms: C_2  and  N_3
REMARK    3  A    between atoms: N_3  and  C_4
REMARK    4  A    between atoms: C_4  and  C_5
REMARK    5  A    between atoms: C_11  and  C_13
REMARK    6  A    between atoms: C_13  and  C_14
REMARK    7  A    between atoms: C_13  and  C_16
REMARK    8  A    between atoms: C_14  and  O_15
REMARK                            x       y       z     vdW  Elec       q    Type
REMARK                         _______ _______ _______ _____ _____    ______ ____
ROOT
ATOM      1  N   UNL     1      -8.556   0.736 124.173  0.00  0.00    +0.000 N 
ATOM      2  C   UNL     1      -8.949   0.427 125.505  0.00  0.00    +0.000 C 
ATOM      3  O   UNL     1     -10.151   0.459 125.727  0.00  0.00    +0.000 OA
ENDROOT
BRANCH   1   5
ATOM      4  C   UNL     1     -10.207   0.055 122.201  0.00  0.00    +0.000 C 
ATOM      5  C   UNL     1      -9.776   0.973 123.316  0.00  0.00    +0.000 C 
ENDBRANCH   1   5
BRANCH   1   6
ATOM      6  C   UNL     1      -7.135   1.069 123.860  0.00  0.00    +0.000 C 
BRANCH   6   7
ATOM      7  C   UNL     1      -6.627   2.453 123.595  0.00  0.00    +0.000 A 
ATOM      8  C   UNL     1      -6.303   3.442 124.505  0.00  0.00    +0.000 A 
ATOM      9  C   UNL     1      -5.656   4.573 124.011  0.00  0.00    +0.000 A 
ATOM     10  N   UNL     1      -5.237   4.690 122.737  0.00  0.00    +0.000 NA
ATOM     11  C   UNL     1      -5.815   3.841 121.893  0.00  0.00    +0.000 A 
ATOM     12  C   UNL     1      -6.760   2.930 122.319  0.00  0.00    +0.000 A 
ENDBRANCH   6   7
ENDBRANCH   1   6
BRANCH   2  13
ATOM     13  C   UNL     1      -7.917   0.024 126.645  0.00  0.00    +0.000 C 
BRANCH  13  14
ATOM     14  C   UNL     1      -8.230  -1.353 127.334  0.00  0.00    +0.000 A 
ATOM     15  C   UNL     1      -7.893  -1.664 128.662  0.00  0.00    +0.000 A 
ATOM     16  C   UNL     1      -7.905  -2.968 129.153  0.00  0.00    +0.000 A 
ATOM     17  C   UNL     1      -8.419  -3.991 128.379  0.00  0.00    +0.000 A 
ATOM     18  C   UNL     1      -8.875  -3.712 127.097  0.00  0.00    +0.000 A 
ATOM     19  C   UNL     1      -8.787  -2.411 126.583  0.00  0.00    +0.000 A 
ENDBRANCH  13  14
BRANCH  13  20
ATOM     20  C   UNL     1      -7.869   1.061 127.809  0.00  0.00    +0.000 C 
BRANCH  20  21
ATOM     21  O   UNL     1      -8.785   2.144 127.765  0.00  0.00    +0.000 OA
ATOM     22  H   UNL     1      -9.006   2.400 128.674  0.00  0.00    +0.000 HD
ENDBRANCH  20  21
ENDBRANCH  13  20
ENDBRANCH   2  13
TORSDOF 7
ENDMDL
MODEL 9
REMARK VINA RESULT:      -6.2      8.190     10.782
REMARK  Name = Tropicamide
REMARK  8 active torsions:
REMARK  status: ('A' for Active; 'I' for Inactive)
REMARK    1  A    between atoms: C_1  and  C_2
REMARK    2  A    between atoms: C_2  and  N_3
REMARK    3  A    between atoms: N_3  and  C_4
REMARK    4  A    between atoms: C_4  and  C_5
REMARK    5  A    between atoms: C_11  and  C_13
REMARK    6  A    between atoms: C_13  and  C_14
REMARK    7  A    between atoms: C_13  and  C_16
REMARK    8  A    between atoms: C_14  and  O_15
REMARK                            x       y       z     vdW  Elec       q    Type
REMARK                         _______ _______ _______ _____ _____    ______ ____
ROOT
ATOM      1  N   UNL     1      -5.617  -1.206 127.504  0.00  0.00    +0.000 N 
ATOM      2  C   UNL     1      -5.000  -1.617 128.719  0.00  0.00    +0.000 C 
ATOM      3  O   UNL     1      -4.596  -0.716 129.442  0.00  0.00    +0.000 OA
ENDROOT
BRANCH   1   5
ATOM      4  C   UNL     1      -5.174   1.110 126.273  0.00  0.00    +0.000 C 
ATOM      5  C   UNL     1      -5.680   0.300 127.440  0.00  0.00    +0.000 C 
ENDBRANCH   1   5
BRANCH   1   6
ATOM      6  C   UNL     1      -5.832  -2.183 126.396  0.00  0.00    +0.000 C 
BRANCH   6   7
ATOM      7  C   UNL     1      -7.176  -2.617 125.897  0.00  0.00    +0.000 A 
ATOM      8  C   UNL     1      -8.354  -2.762 126.607  0.00  0.00    +0.000 A 
ATOM      9  C   UNL     1      -9.517  -2.981 125.871  0.00  0.00    +0.000 A 
ATOM     10  N   UNL     1      -9.561  -2.938 124.527  0.00  0.00    +0.000 NA
ATOM     11  C   UNL     1      -8.376  -3.065 123.938  0.00  0.00    +0.000 A 
ATOM     12  C   UNL     1      -7.218  -3.223 124.671  0.00  0.00    +0.000 A 
ENDBRANCH   6   7
ENDBRANCH   1   6
BRANCH   2  13
ATOM     13  C   UNL     1      -4.861  -3.139 129.154  0.00  0.00    +0.000 C 
BRANCH  13  14
ATOM     14  C   UNL     1      -5.628  -3.498 130.478  0.00  0.00    +0.000 A 
ATOM     15  C   UNL     1      -6.823  -2.884 130.887  0.00  0.00    +0.000 A 
ATOM     16  C   UNL     1      -7.318  -2.997 132.185  0.00  0.00    +0.000 A 
ATOM     17  C   UNL     1      -6.723  -3.871 133.076  0.00  0.00    +0.000 A 
ATOM     18  C   UNL     1      -5.605  -4.591 132.678  0.00  0.00    +0.000 A 
ATOM     19  C   UNL     1      -5.067  -4.413 131.396  0.00  0.00    +0.000 A 
ENDBRANCH  13  14
BRANCH  13  20
ATOM     20  C   UNL     1      -3.383  -3.561 129.412  0.00  0.00    +0.000 C 
BRANCH  20  21
ATOM     21  O   UNL     1      -2.409  -2.533 129.497  0.00  0.00    +0.000 OA
ATOM     22  H   UNL     1      -2.115  -2.460 130.418  0.00  0.00    +0.000 HD
ENDBRANCH  20  21
ENDBRANCH  13  20
ENDBRANCH   2  13
TORSDOF 7
ENDMDL
