MODEL 1
REMARK VINA RESULT:      -9.2      0.000      0.000
REMARK  Name = Trospium
REMARK  6 active torsions:
REMARK  status: ('A' for Active; 'I' for Inactive)
REMARK    1  A    between atoms: C_8  and  O_10
REMARK    2  A    between atoms: O_10  and  C_11
REMARK    3  A    between atoms: C_11  and  C_13
REMARK    4  A    between atoms: C_13  and  O_14
REMARK    5  A    between atoms: C_13  and  C_15
REMARK    6  A    between atoms: C_13  and  C_21
REMARK                            x       y       z     vdW  Elec       q    Type
REMARK                         _______ _______ _______ _____ _____    ______ ____
ROOT
ATOM      1  C   UNL     1      -7.781   3.416 125.113  0.00  0.00    +0.000 C 
ATOM      2  O   UNL     1      -8.952   3.778 125.252  0.00  0.00    +0.000 OA
ENDROOT
BRANCH   1   3
ATOM      3  O   UNL     1      -7.412   2.096 125.198  0.00  0.00    +0.000 OA
BRANCH   3   9
ATOM      4  C   UNL     1      -8.248  -0.953 125.688  0.00  0.00    +0.000 C 
ATOM      5  C   UNL     1      -6.985  -0.539 126.462  0.00  0.00    +0.000 C 
ATOM      6  C   UNL     1      -5.877  -0.425 125.405  0.00  0.00    +0.000 C 
ATOM      7  C   UNL     1      -6.554  -0.760 124.068  0.00  0.00    +0.000 C 
ATOM      8  C   UNL     1      -7.175   0.484 123.413  0.00  0.00    +0.000 C 
ATOM      9  C   UNL     1      -8.167   1.222 124.329  0.00  0.00    +0.000 C 
ATOM     10  C   UNL     1      -9.026   0.253 125.168  0.00  0.00    +0.000 C 
ATOM     11  N   UNL     1      -7.673  -1.723 124.497  0.00  0.00    +0.000 N 
ATOM     12  C   UNL     1      -7.123  -3.097 124.934  0.00  0.00    +0.000 C 
ATOM     13  C   UNL     1      -8.298  -4.053 124.827  0.00  0.00    +0.000 C 
ATOM     14  C   UNL     1      -9.364  -3.344 124.013  0.00  0.00    +0.000 C 
ATOM     15  C   UNL     1      -8.676  -2.134 123.420  0.00  0.00    +0.000 C 
ENDBRANCH   3   9
ENDBRANCH   1   3
BRANCH   1  16
ATOM     16  C   UNL     1      -6.570   4.343 124.836  0.00  0.00    +0.000 C 
BRANCH  16  17
ATOM     17  C   UNL     1      -5.434   4.013 125.822  0.00  0.00    +0.000 A 
ATOM     18  C   UNL     1      -4.894   4.958 126.708  0.00  0.00    +0.000 A 
ATOM     19  C   UNL     1      -3.741   4.657 127.437  0.00  0.00    +0.000 A 
ATOM     20  C   UNL     1      -3.141   3.404 127.332  0.00  0.00    +0.000 A 
ATOM     21  C   UNL     1      -3.677   2.447 126.483  0.00  0.00    +0.000 A 
ATOM     22  C   UNL     1      -4.817   2.746 125.751  0.00  0.00    +0.000 A 
ENDBRANCH  16  17
BRANCH  16  23
ATOM     23  C   UNL     1      -6.069   4.166 123.392  0.00  0.00    +0.000 A 
ATOM     24  C   UNL     1      -4.799   4.663 123.016  0.00  0.00    +0.000 A 
ATOM     25  C   UNL     1      -4.392   4.713 121.692  0.00  0.00    +0.000 A 
ATOM     26  C   UNL     1      -5.203   4.162 120.716  0.00  0.00    +0.000 A 
ATOM     27  C   UNL     1      -6.432   3.601 121.063  0.00  0.00    +0.000 A 
ATOM     28  C   UNL     1      -6.873   3.614 122.389  0.00  0.00    +0.000 A 
ENDBRANCH  16  23
BRANCH  16  29
ATOM     29  O   UNL     1      -7.046   5.693 125.021  0.00  0.00    +0.000 OA
ATOM     30  H   UNL     1      -7.609   5.904 124.259  0.00  0.00    +0.000 HD
ENDBRANCH  16  29
ENDBRANCH   1  16
TORSDOF 6
ENDMDL
MODEL 2
REMARK VINA RESULT:      -8.9      1.131      1.542
REMARK  Name = Trospium
REMARK  6 active torsions:
REMARK  status: ('A' for Active; 'I' for Inactive)
REMARK    1  A    between atoms: C_8  and  O_10
REMARK    2  A    between atoms: O_10  and  C_11
REMARK    3  A    between atoms: C_11  and  C_13
REMARK    4  A    between atoms: C_13  and  O_14
REMARK    5  A    between atoms: C_13  and  C_15
REMARK    6  A    between atoms: C_13  and  C_21
REMARK                            x       y       z     vdW  Elec       q    Type
REMARK                         _______ _______ _______ _____ _____    ______ ____
ROOT
ATOM      1  C   UNL     1      -7.509   3.803 125.367  0.00  0.00    +0.000 C 
ATOM      2  O   UNL     1      -8.672   4.211 125.291  0.00  0.00    +0.000 OA
ENDROOT
BRANCH   1   3
ATOM      3  O   UNL     1      -7.203   2.569 125.884  0.00  0.00    +0.000 OA
BRANCH   3   9
ATOM      4  C   UNL     1      -8.393  -0.129 127.125  0.00  0.00    +0.000 C 
ATOM      5  C   UNL     1      -7.276   0.491 127.982  0.00  0.00    +0.000 C 
ATOM      6  C   UNL     1      -5.975   0.227 127.211  0.00  0.00    +0.000 C 
ATOM      7  C   UNL     1      -6.400  -0.517 125.937  0.00  0.00    +0.000 C 
ATOM      8  C   UNL     1      -6.764   0.454 124.801  0.00  0.00    +0.000 C 
ATOM      9  C   UNL     1      -7.846   1.472 125.197  0.00  0.00    +0.000 C 
ATOM     10  C   UNL     1      -8.939   0.853 126.093  0.00  0.00    +0.000 C 
ATOM     11  N   UNL     1      -7.664  -1.261 126.396  0.00  0.00    +0.000 N 
ATOM     12  C   UNL     1      -7.339  -2.425 127.356  0.00  0.00    +0.000 C 
ATOM     13  C   UNL     1      -8.551  -3.338 127.307  0.00  0.00    +0.000 C 
ATOM     14  C   UNL     1      -9.366  -2.916 126.098  0.00  0.00    +0.000 C 
ATOM     15  C   UNL     1      -8.467  -1.984 125.315  0.00  0.00    +0.000 C 
ENDBRANCH   3   9
ENDBRANCH   1   3
BRANCH   1  16
ATOM     16  C   UNL     1      -6.245   4.579 124.921  0.00  0.00    +0.000 C 
BRANCH  16  17
ATOM     17  C   UNL     1      -5.072   4.234 125.857  0.00  0.00    +0.000 A 
ATOM     18  C   UNL     1      -4.263   3.101 125.680  0.00  0.00    +0.000 A 
ATOM     19  C   UNL     1      -3.343   2.735 126.667  0.00  0.00    +0.000 A 
ATOM     20  C   UNL     1      -3.181   3.514 127.810  0.00  0.00    +0.000 A 
ATOM     21  C   UNL     1      -3.951   4.654 127.989  0.00  0.00    +0.000 A 
ATOM     22  C   UNL     1      -4.872   5.014 127.015  0.00  0.00    +0.000 A 
ENDBRANCH  16  17
BRANCH  16  23
ATOM     23  C   UNL     1      -5.871   4.221 123.471  0.00  0.00    +0.000 A 
ATOM     24  C   UNL     1      -4.742   4.816 122.862  0.00  0.00    +0.000 A 
ATOM     25  C   UNL     1      -4.485   4.688 121.506  0.00  0.00    +0.000 A 
ATOM     26  C   UNL     1      -5.293   3.864 120.742  0.00  0.00    +0.000 A 
ATOM     27  C   UNL     1      -6.376   3.207 121.328  0.00  0.00    +0.000 A 
ATOM     28  C   UNL     1      -6.675   3.393 122.680  0.00  0.00    +0.000 A 
ENDBRANCH  16  23
BRANCH  16  29
ATOM     29  O   UNL     1      -6.581   5.981 125.001  0.00  0.00    +0.000 OA
ATOM     30  H   UNL     1      -7.101   6.103 125.812  0.00  0.00    +0.000 HD
ENDBRANCH  16  29
ENDBRANCH   1  16
TORSDOF 6
ENDMDL
MODEL 3
REMARK VINA RESULT:      -8.8      2.685      7.123
REMARK  Name = Trospium
REMARK  6 active torsions:
REMARK  status: ('A' for Active; 'I' for Inactive)
REMARK    1  A    between atoms: C_8  and  O_10
REMARK    2  A    between atoms: O_10  and  C_11
REMARK    3  A    between atoms: C_11  and  C_13
REMARK    4  A    between atoms: C_13  and  O_14
REMARK    5  A    between atoms: C_13  and  C_15
REMARK    6  A    between atoms: C_13  and  C_21
REMARK                            x       y       z     vdW  Elec       q    Type
REMARK                         _______ _______ _______ _____ _____    ______ ____
ROOT
ATOM      1  C   UNL     1      -8.812  -0.142 125.318  0.00  0.00    +0.000 C 
ATOM      2  O   UNL     1      -9.887   0.447 125.465  0.00  0.00    +0.000 OA
ENDROOT
BRANCH   1   3
ATOM      3  O   UNL     1      -7.621   0.533 125.211  0.00  0.00    +0.000 OA
BRANCH   3   9
ATOM      4  C   UNL     1      -5.158   2.449 125.913  0.00  0.00    +0.000 C 
ATOM      5  C   UNL     1      -4.788   0.956 125.930  0.00  0.00    +0.000 C 
ATOM      6  C   UNL     1      -5.437   0.389 127.201  0.00  0.00    +0.000 C 
ATOM      7  C   UNL     1      -6.166   1.575 127.850  0.00  0.00    +0.000 C 
ATOM      8  C   UNL     1      -7.595   1.736 127.307  0.00  0.00    +0.000 C 
ATOM      9  C   UNL     1      -7.651   1.863 125.775  0.00  0.00    +0.000 C 
ATOM     10  C   UNL     1      -6.488   2.705 125.211  0.00  0.00    +0.000 C 
ATOM     11  N   UNL     1      -5.312   2.772 127.402  0.00  0.00    +0.000 N 
ATOM     12  C   UNL     1      -3.942   2.808 128.110  0.00  0.00    +0.000 C 
ATOM     13  C   UNL     1      -3.457   4.241 127.976  0.00  0.00    +0.000 C 
ATOM     14  C   UNL     1      -4.654   5.067 127.544  0.00  0.00    +0.000 C 
ATOM     15  C   UNL     1      -5.853   4.163 127.731  0.00  0.00    +0.000 C 
ENDBRANCH   3   9
ENDBRANCH   1   3
BRANCH   1  16
ATOM     16  C   UNL     1      -8.623  -1.677 125.225  0.00  0.00    +0.000 C 
BRANCH  16  17
ATOM     17  C   UNL     1      -7.294  -1.990 124.512  0.00  0.00    +0.000 A 
ATOM     18  C   UNL     1      -7.084  -1.743 123.147  0.00  0.00    +0.000 A 
ATOM     19  C   UNL     1      -5.934  -2.224 122.515  0.00  0.00    +0.000 A 
ATOM     20  C   UNL     1      -4.961  -2.909 123.240  0.00  0.00    +0.000 A 
ATOM     21  C   UNL     1      -5.137  -3.137 124.596  0.00  0.00    +0.000 A 
ATOM     22  C   UNL     1      -6.283  -2.669 125.223  0.00  0.00    +0.000 A 
ENDBRANCH  16  17
BRANCH  16  23
ATOM     23  C   UNL     1      -8.617  -2.310 126.627  0.00  0.00    +0.000 A 
ATOM     24  C   UNL     1      -7.985  -1.644 127.703  0.00  0.00    +0.000 A 
ATOM     25  C   UNL     1      -7.772  -2.261 128.926  0.00  0.00    +0.000 A 
ATOM     26  C   UNL     1      -8.288  -3.526 129.142  0.00  0.00    +0.000 A 
ATOM     27  C   UNL     1      -8.978  -4.184 128.123  0.00  0.00    +0.000 A 
ATOM     28  C   UNL     1      -9.131  -3.589 126.868  0.00  0.00    +0.000 A 
ENDBRANCH  16  23
BRANCH  16  29
ATOM     29  O   UNL     1      -9.749  -2.178 124.473  0.00  0.00    +0.000 OA
ATOM     30  H   UNL     1      -9.412  -2.870 123.883  0.00  0.00    +0.000 HD
ENDBRANCH  16  29
ENDBRANCH   1  16
TORSDOF 6
ENDMDL
MODEL 4
REMARK VINA RESULT:      -8.7      6.419      7.848
REMARK  Name = Trospium
REMARK  6 active torsions:
REMARK  status: ('A' for Active; 'I' for Inactive)
REMARK    1  A    between atoms: C_8  and  O_10
REMARK    2  A    between atoms: O_10  and  C_11
REMARK    3  A    between atoms: C_11  and  C_13
REMARK    4  A    between atoms: C_13  and  O_14
REMARK    5  A    between atoms: C_13  and  C_15
REMARK    6  A    between atoms: C_13  and  C_21
REMARK                            x       y       z     vdW  Elec       q    Type
REMARK                         _______ _______ _______ _____ _____    ______ ____
ROOT
ATOM      1  C   UNL     1     -10.471   4.504 130.840  0.00  0.00    +0.000 C 
ATOM      2  O   UNL     1     -11.330   4.164 130.021  0.00  0.00    +0.000 OA
ENDROOT
BRANCH   1   3
ATOM      3  O   UNL     1      -9.510   3.633 131.291  0.00  0.00    +0.000 OA
BRANCH   3   9
ATOM      4  C   UNL     1      -8.150   0.915 132.290  0.00  0.00    +0.000 C 
ATOM      5  C   UNL     1      -7.395   2.175 132.749  0.00  0.00    +0.000 C 
ATOM      6  C   UNL     1      -6.704   2.718 131.490  0.00  0.00    +0.000 C 
ATOM      7  C   UNL     1      -7.104   1.758 130.360  0.00  0.00    +0.000 C 
ATOM      8  C   UNL     1      -8.427   2.175 129.696  0.00  0.00    +0.000 C 
ATOM      9  C   UNL     1      -9.588   2.318 130.695  0.00  0.00    +0.000 C 
ATOM     10  C   UNL     1      -9.557   1.236 131.794  0.00  0.00    +0.000 C 
ATOM     11  N   UNL     1      -7.305   0.432 131.109  0.00  0.00    +0.000 N 
ATOM     12  C   UNL     1      -5.970  -0.174 131.589  0.00  0.00    +0.000 C 
ATOM     13  C   UNL     1      -6.258  -1.646 131.827  0.00  0.00    +0.000 C 
ATOM     14  C   UNL     1      -7.588  -1.943 131.159  0.00  0.00    +0.000 C 
ATOM     15  C   UNL     1      -7.885  -0.731 130.305  0.00  0.00    +0.000 C 
ENDBRANCH   3   9
ENDBRANCH   1   3
BRANCH   1  16
ATOM     16  C   UNL     1     -10.334   5.908 131.482  0.00  0.00    +0.000 C 
BRANCH  16  17
ATOM     17  C   UNL     1      -8.859   6.167 131.840  0.00  0.00    +0.000 A 
ATOM     18  C   UNL     1      -7.914   6.615 130.904  0.00  0.00    +0.000 A 
ATOM     19  C   UNL     1      -6.557   6.647 131.237  0.00  0.00    +0.000 A 
ATOM     20  C   UNL     1      -6.131   6.283 132.513  0.00  0.00    +0.000 A 
ATOM     21  C   UNL     1      -7.053   5.865 133.461  0.00  0.00    +0.000 A 
ATOM     22  C   UNL     1      -8.400   5.824 133.129  0.00  0.00    +0.000 A 
ENDBRANCH  16  17
BRANCH  16  23
ATOM     23  C   UNL     1     -10.830   6.998 130.516  0.00  0.00    +0.000 A 
ATOM     24  C   UNL     1     -12.096   7.596 130.711  0.00  0.00    +0.000 A 
ATOM     25  C   UNL     1     -12.672   8.425 129.761  0.00  0.00    +0.000 A 
ATOM     26  C   UNL     1     -11.945   8.767 128.634  0.00  0.00    +0.000 A 
ATOM     27  C   UNL     1     -10.663   8.247 128.445  0.00  0.00    +0.000 A 
ATOM     28  C   UNL     1     -10.111   7.357 129.369  0.00  0.00    +0.000 A 
ENDBRANCH  16  23
BRANCH  16  29
ATOM     29  O   UNL     1     -11.163   5.894 132.663  0.00  0.00    +0.000 OA
ATOM     30  H   UNL     1     -12.018   5.515 132.406  0.00  0.00    +0.000 HD
ENDBRANCH  16  29
ENDBRANCH   1  16
TORSDOF 6
ENDMDL
MODEL 5
REMARK VINA RESULT:      -8.7      3.151      7.310
REMARK  Name = Trospium
REMARK  6 active torsions:
REMARK  status: ('A' for Active; 'I' for Inactive)
REMARK    1  A    between atoms: C_8  and  O_10
REMARK    2  A    between atoms: O_10  and  C_11
REMARK    3  A    between atoms: C_11  and  C_13
REMARK    4  A    between atoms: C_13  and  O_14
REMARK    5  A    between atoms: C_13  and  C_15
REMARK    6  A    between atoms: C_13  and  C_21
REMARK                            x       y       z     vdW  Elec       q    Type
REMARK                         _______ _______ _______ _____ _____    ______ ____
ROOT
ATOM      1  C   UNL     1      -6.738   0.527 126.861  0.00  0.00    +0.000 C 
ATOM      2  O   UNL     1      -7.915   0.888 126.938  0.00  0.00    +0.000 OA
ENDROOT
BRANCH   1   3
ATOM      3  O   UNL     1      -5.697   1.421 126.910  0.00  0.00    +0.000 OA
BRANCH   3   9
ATOM      4  C   UNL     1      -4.817   4.484 127.183  0.00  0.00    +0.000 C 
ATOM      5  C   UNL     1      -4.133   3.760 126.011  0.00  0.00    +0.000 C 
ATOM      6  C   UNL     1      -3.103   2.821 126.656  0.00  0.00    +0.000 C 
ATOM      7  C   UNL     1      -3.251   3.033 128.171  0.00  0.00    +0.000 C 
ATOM      8  C   UNL     1      -4.326   2.114 128.775  0.00  0.00    +0.000 C 
ATOM      9  C   UNL     1      -5.697   2.252 128.092  0.00  0.00    +0.000 C 
ATOM     10  C   UNL     1      -6.022   3.712 127.714  0.00  0.00    +0.000 C 
ATOM     11  N   UNL     1      -3.723   4.493 128.254  0.00  0.00    +0.000 N 
ATOM     12  C   UNL     1      -2.600   5.489 127.897  0.00  0.00    +0.000 C 
ATOM     13  C   UNL     1      -3.030   6.814 128.501  0.00  0.00    +0.000 C 
ATOM     14  C   UNL     1      -4.154   6.506 129.473  0.00  0.00    +0.000 C 
ATOM     15  C   UNL     1      -4.142   5.001 129.633  0.00  0.00    +0.000 C 
ENDBRANCH   3   9
ENDBRANCH   1   3
BRANCH   1  16
ATOM     16  C   UNL     1      -6.245  -0.934 126.697  0.00  0.00    +0.000 C 
BRANCH  16  17
ATOM     17  C   UNL     1      -7.265  -1.895 127.336  0.00  0.00    +0.000 A 
ATOM     18  C   UNL     1      -7.213  -2.275 128.685  0.00  0.00    +0.000 A 
ATOM     19  C   UNL     1      -8.042  -3.296 129.159  0.00  0.00    +0.000 A 
ATOM     20  C   UNL     1      -8.962  -3.913 128.314  0.00  0.00    +0.000 A 
ATOM     21  C   UNL     1      -9.048  -3.531 126.984  0.00  0.00    +0.000 A 
ATOM     22  C   UNL     1      -8.219  -2.524 126.508  0.00  0.00    +0.000 A 
ENDBRANCH  16  17
BRANCH  16  23
ATOM     23  C   UNL     1      -6.070  -1.283 125.208  0.00  0.00    +0.000 A 
ATOM     24  C   UNL     1      -6.693  -0.492 124.216  0.00  0.00    +0.000 A 
ATOM     25  C   UNL     1      -6.738  -0.882 122.886  0.00  0.00    +0.000 A 
ATOM     26  C   UNL     1      -6.059  -2.022 122.494  0.00  0.00    +0.000 A 
ATOM     27  C   UNL     1      -5.375  -2.788 123.439  0.00  0.00    +0.000 A 
ATOM     28  C   UNL     1      -5.390  -2.433 124.791  0.00  0.00    +0.000 A 
ENDBRANCH  16  23
BRANCH  16  29
ATOM     29  O   UNL     1      -4.968  -1.007 127.365  0.00  0.00    +0.000 OA
ATOM     30  H   UNL     1      -4.774  -0.120 127.706  0.00  0.00    +0.000 HD
ENDBRANCH  16  29
ENDBRANCH   1  16
TORSDOF 6
ENDMDL
MODEL 6
REMARK VINA RESULT:      -8.7      6.626      9.235
REMARK  Name = Trospium
REMARK  6 active torsions:
REMARK  status: ('A' for Active; 'I' for Inactive)
REMARK    1  A    between atoms: C_8  and  O_10
REMARK    2  A    between atoms: O_10  and  C_11
REMARK    3  A    between atoms: C_11  and  C_13
REMARK    4  A    between atoms: C_13  and  O_14
REMARK    5  A    between atoms: C_13  and  C_15
REMARK    6  A    between atoms: C_13  and  C_21
REMARK                            x       y       z     vdW  Elec       q    Type
REMARK                         _______ _______ _______ _____ _____    ______ ____
ROOT
ATOM      1  C   UNL     1      -8.633   4.683 129.446  0.00  0.00    +0.000 C 
ATOM      2  O   UNL     1      -8.579   4.115 128.351  0.00  0.00    +0.000 OA
ENDROOT
BRANCH   1   3
ATOM      3  O   UNL     1      -7.530   5.271 130.015  0.00  0.00    +0.000 OA
BRANCH   3   9
ATOM      4  C   UNL     1      -5.095   5.311 132.089  0.00  0.00    +0.000 C 
ATOM      5  C   UNL     1      -5.799   6.672 131.955  0.00  0.00    +0.000 C 
ATOM      6  C   UNL     1      -5.377   7.218 130.584  0.00  0.00    +0.000 C 
ATOM      7  C   UNL     1      -4.462   6.141 129.981  0.00  0.00    +0.000 C 
ATOM      8  C   UNL     1      -5.261   5.080 129.206  0.00  0.00    +0.000 C 
ATOM      9  C   UNL     1      -6.365   4.417 130.047  0.00  0.00    +0.000 C 
ATOM     10  C   UNL     1      -5.926   4.172 131.506  0.00  0.00    +0.000 C 
ATOM     11  N   UNL     1      -3.841   5.499 131.231  0.00  0.00    +0.000 N 
ATOM     12  C   UNL     1      -2.826   6.433 131.923  0.00  0.00    +0.000 C 
ATOM     13  C   UNL     1      -1.958   5.525 132.775  0.00  0.00    +0.000 C 
ATOM     14  C   UNL     1      -2.219   4.106 132.304  0.00  0.00    +0.000 C 
ATOM     15  C   UNL     1      -2.990   4.249 131.010  0.00  0.00    +0.000 C 
ENDBRANCH   3   9
ENDBRANCH   1   3
BRANCH   1  16
ATOM     16  C   UNL     1      -9.894   4.824 130.335  0.00  0.00    +0.000 C 
BRANCH  16  17
ATOM     17  C   UNL     1      -9.491   4.726 131.818  0.00  0.00    +0.000 A 
ATOM     18  C   UNL     1      -9.151   5.846 132.591  0.00  0.00    +0.000 A 
ATOM     19  C   UNL     1      -8.608   5.679 133.868  0.00  0.00    +0.000 A 
ATOM     20  C   UNL     1      -8.445   4.405 134.409  0.00  0.00    +0.000 A 
ATOM     21  C   UNL     1      -8.803   3.287 133.671  0.00  0.00    +0.000 A 
ATOM     22  C   UNL     1      -9.333   3.450 132.398  0.00  0.00    +0.000 A 
ENDBRANCH  16  17
BRANCH  16  23
ATOM     23  C   UNL     1     -10.593   6.170 130.078  0.00  0.00    +0.000 A 
ATOM     24  C   UNL     1     -11.858   6.434 130.653  0.00  0.00    +0.000 A 
ATOM     25  C   UNL     1     -12.616   7.536 130.288  0.00  0.00    +0.000 A 
ATOM     26  C   UNL     1     -12.078   8.466 129.417  0.00  0.00    +0.000 A 
ATOM     27  C   UNL     1     -10.803   8.270 128.884  0.00  0.00    +0.000 A 
ATOM     28  C   UNL     1     -10.068   7.124 129.198  0.00  0.00    +0.000 A 
ENDBRANCH  16  23
BRANCH  16  29
ATOM     29  O   UNL     1     -10.774   3.742 129.961  0.00  0.00    +0.000 OA
ATOM     30  H   UNL     1     -11.672   4.003 130.220  0.00  0.00    +0.000 HD
ENDBRANCH  16  29
ENDBRANCH   1  16
TORSDOF 6
ENDMDL
MODEL 7
REMARK VINA RESULT:      -8.7      2.410      6.971
REMARK  Name = Trospium
REMARK  6 active torsions:
REMARK  status: ('A' for Active; 'I' for Inactive)
REMARK    1  A    between atoms: C_8  and  O_10
REMARK    2  A    between atoms: O_10  and  C_11
REMARK    3  A    between atoms: C_11  and  C_13
REMARK    4  A    between atoms: C_13  and  O_14
REMARK    5  A    between atoms: C_13  and  C_15
REMARK    6  A    between atoms: C_13  and  C_21
REMARK                            x       y       z     vdW  Elec       q    Type
REMARK                         _______ _______ _______ _____ _____    ______ ____
ROOT
ATOM      1  C   UNL     1      -9.324  -0.393 125.729  0.00  0.00    +0.000 C 
ATOM      2  O   UNL     1     -10.507  -0.043 125.766  0.00  0.00    +0.000 OA
ENDROOT
BRANCH   1   3
ATOM      3  O   UNL     1      -8.317   0.480 125.395  0.00  0.00    +0.000 OA
BRANCH   3   9
ATOM      4  C   UNL     1      -6.113   1.962 123.613  0.00  0.00    +0.000 C 
ATOM      5  C   UNL     1      -5.803   2.004 125.119  0.00  0.00    +0.000 C 
ATOM      6  C   UNL     1      -6.805   3.002 125.715  0.00  0.00    +0.000 C 
ATOM      7  C   UNL     1      -7.660   3.478 124.530  0.00  0.00    +0.000 C 
ATOM      8  C   UNL     1      -8.867   2.557 124.289  0.00  0.00    +0.000 C 
ATOM      9  C   UNL     1      -8.475   1.083 124.092  0.00  0.00    +0.000 C 
ATOM     10  C   UNL     1      -7.177   0.923 123.273  0.00  0.00    +0.000 C 
ATOM     11  N   UNL     1      -6.682   3.359 123.350  0.00  0.00    +0.000 N 
ATOM     12  C   UNL     1      -5.575   4.432 123.400  0.00  0.00    +0.000 C 
ATOM     13  C   UNL     1      -5.035   4.520 121.984  0.00  0.00    +0.000 C 
ATOM     14  C   UNL     1      -6.035   3.808 121.092  0.00  0.00    +0.000 C 
ATOM     15  C   UNL     1      -7.259   3.593 121.955  0.00  0.00    +0.000 C 
ENDBRANCH   3   9
ENDBRANCH   1   3
BRANCH   1  16
ATOM     16  C   UNL     1      -8.787  -1.815 126.030  0.00  0.00    +0.000 C 
BRANCH  16  17
ATOM     17  C   UNL     1      -7.641  -2.150 125.058  0.00  0.00    +0.000 A 
ATOM     18  C   UNL     1      -6.288  -1.992 125.390  0.00  0.00    +0.000 A 
ATOM     19  C   UNL     1      -5.303  -2.125 124.407  0.00  0.00    +0.000 A 
ATOM     20  C   UNL     1      -5.647  -2.464 123.100  0.00  0.00    +0.000 A 
ATOM     21  C   UNL     1      -6.978  -2.653 122.759  0.00  0.00    +0.000 A 
ATOM     22  C   UNL     1      -7.958  -2.512 123.731  0.00  0.00    +0.000 A 
ENDBRANCH  16  17
BRANCH  16  23
ATOM     23  C   UNL     1      -8.277  -1.907 127.479  0.00  0.00    +0.000 A 
ATOM     24  C   UNL     1      -8.340  -3.135 128.177  0.00  0.00    +0.000 A 
ATOM     25  C   UNL     1      -8.089  -3.222 129.538  0.00  0.00    +0.000 A 
ATOM     26  C   UNL     1      -7.658  -2.096 130.217  0.00  0.00    +0.000 A 
ATOM     27  C   UNL     1      -7.519  -0.883 129.542  0.00  0.00    +0.000 A 
ATOM     28  C   UNL     1      -7.839  -0.781 128.186  0.00  0.00    +0.000 A 
ENDBRANCH  16  23
BRANCH  16  29
ATOM     29  O   UNL     1      -9.903  -2.713 125.852  0.00  0.00    +0.000 OA
ATOM     30  H   UNL     1     -10.678  -2.168 125.644  0.00  0.00    +0.000 HD
ENDBRANCH  16  29
ENDBRANCH   1  16
TORSDOF 6
ENDMDL
MODEL 8
REMARK VINA RESULT:      -8.4      2.989      5.920
REMARK  Name = Trospium
REMARK  6 active torsions:
REMARK  status: ('A' for Active; 'I' for Inactive)
REMARK    1  A    between atoms: C_8  and  O_10
REMARK    2  A    between atoms: O_10  and  C_11
REMARK    3  A    between atoms: C_11  and  C_13
REMARK    4  A    between atoms: C_13  and  O_14
REMARK    5  A    between atoms: C_13  and  C_15
REMARK    6  A    between atoms: C_13  and  C_21
REMARK                            x       y       z     vdW  Elec       q    Type
REMARK                         _______ _______ _______ _____ _____    ______ ____
ROOT
ATOM      1  C   UNL     1      -8.681   0.844 126.842  0.00  0.00    +0.000 C 
ATOM      2  O   UNL     1      -8.862   1.969 127.317  0.00  0.00    +0.000 OA
ENDROOT
BRANCH   1   3
ATOM      3  O   UNL     1      -8.188  -0.193 127.594  0.00  0.00    +0.000 OA
BRANCH   3   9
ATOM      4  C   UNL     1      -5.673  -2.031 128.321  0.00  0.00    +0.000 C 
ATOM      5  C   UNL     1      -6.954  -2.838 128.049  0.00  0.00    +0.000 C 
ATOM      6  C   UNL     1      -7.851  -2.606 129.273  0.00  0.00    +0.000 C 
ATOM      7  C   UNL     1      -7.054  -1.662 130.188  0.00  0.00    +0.000 C 
ATOM      8  C   UNL     1      -7.305  -0.185 129.844  0.00  0.00    +0.000 C 
ATOM      9  C   UNL     1      -7.019   0.152 128.370  0.00  0.00    +0.000 C 
ATOM     10  C   UNL     1      -5.782  -0.592 127.825  0.00  0.00    +0.000 C 
ATOM     11  N   UNL     1      -5.600  -2.026 129.849  0.00  0.00    +0.000 N 
ATOM     12  C   UNL     1      -5.204  -3.414 130.395  0.00  0.00    +0.000 C 
ATOM     13  C   UNL     1      -3.687  -3.409 130.445  0.00  0.00    +0.000 C 
ATOM     14  C   UNL     1      -3.250  -1.963 130.294  0.00  0.00    +0.000 C 
ATOM     15  C   UNL     1      -4.512  -1.145 130.463  0.00  0.00    +0.000 C 
ENDBRANCH   3   9
ENDBRANCH   1   3
BRANCH   1  16
ATOM     16  C   UNL     1      -8.958   0.422 125.377  0.00  0.00    +0.000 C 
BRANCH  16  17
ATOM     17  C   UNL     1      -8.218   1.375 124.419  0.00  0.00    +0.000 A 
ATOM     18  C   UNL     1      -6.939   1.884 124.687  0.00  0.00    +0.000 A 
ATOM     19  C   UNL     1      -6.401   2.891 123.880  0.00  0.00    +0.000 A 
ATOM     20  C   UNL     1      -7.104   3.366 122.774  0.00  0.00    +0.000 A 
ATOM     21  C   UNL     1      -8.358   2.853 122.476  0.00  0.00    +0.000 A 
ATOM     22  C   UNL     1      -8.898   1.860 123.281  0.00  0.00    +0.000 A 
ENDBRANCH  16  17
BRANCH  16  23
ATOM     23  C   UNL     1      -8.491  -1.023 125.130  0.00  0.00    +0.000 A 
ATOM     24  C   UNL     1      -7.219  -1.270 124.563  0.00  0.00    +0.000 A 
ATOM     25  C   UNL     1      -6.839  -2.532 124.132  0.00  0.00    +0.000 A 
ATOM     26  C   UNL     1      -7.682  -3.605 124.361  0.00  0.00    +0.000 A 
ATOM     27  C   UNL     1      -8.916  -3.405 124.981  0.00  0.00    +0.000 A 
ATOM     28  C   UNL     1      -9.328  -2.122 125.351  0.00  0.00    +0.000 A 
ENDBRANCH  16  23
BRANCH  16  29
ATOM     29  O   UNL     1     -10.387   0.507 125.195  0.00  0.00    +0.000 OA
ATOM     30  H   UNL     1     -10.567   0.327 124.259  0.00  0.00    +0.000 HD
ENDBRANCH  16  29
ENDBRANCH   1  16
TORSDOF 6
ENDMDL
MODEL 9
REMARK VINA RESULT:      -8.2      3.872      6.261
REMARK  Name = Trospium
REMARK  6 active torsions:
REMARK  status: ('A' for Active; 'I' for Inactive)
REMARK    1  A    between atoms: C_8  and  O_10
REMARK    2  A    between atoms: O_10  and  C_11
REMARK    3  A    between atoms: C_11  and  C_13
REMARK    4  A    between atoms: C_13  and  O_14
REMARK    5  A    between atoms: C_13  and  C_15
REMARK    6  A    between atoms: C_13  and  C_21
REMARK                            x       y       z     vdW  Elec       q    Type
REMARK                         _______ _______ _______ _____ _____    ______ ____
ROOT
ATOM      1  C   UNL     1      -8.654  -2.201 126.447  0.00  0.00    +0.000 C 
ATOM      2  O   UNL     1      -9.404  -3.177 126.358  0.00  0.00    +0.000 OA
ENDROOT
BRANCH   1   3
ATOM      3  O   UNL     1      -8.078  -1.833 127.638  0.00  0.00    +0.000 OA
BRANCH   3   9
ATOM      4  C   UNL     1      -7.648  -2.328 130.769  0.00  0.00    +0.000 C 
ATOM      5  C   UNL     1      -7.911  -0.854 130.420  0.00  0.00    +0.000 C 
ATOM      6  C   UNL     1      -6.622  -0.357 129.749  0.00  0.00    +0.000 C 
ATOM      7  C   UNL     1      -5.681  -1.570 129.725  0.00  0.00    +0.000 C 
ATOM      8  C   UNL     1      -5.890  -2.432 128.469  0.00  0.00    +0.000 C 
ATOM      9  C   UNL     1      -7.345  -2.896 128.286  0.00  0.00    +0.000 C 
ATOM     10  C   UNL     1      -8.018  -3.266 129.624  0.00  0.00    +0.000 C 
ATOM     11  N   UNL     1      -6.130  -2.359 130.965  0.00  0.00    +0.000 N 
ATOM     12  C   UNL     1      -5.723  -1.660 132.279  0.00  0.00    +0.000 C 
ATOM     13  C   UNL     1      -5.758  -2.746 133.340  0.00  0.00    +0.000 C 
ATOM     14  C   UNL     1      -5.816  -4.072 132.605  0.00  0.00    +0.000 C 
ATOM     15  C   UNL     1      -5.510  -3.742 131.161  0.00  0.00    +0.000 C 
ENDBRANCH   3   9
ENDBRANCH   1   3
BRANCH   1  16
ATOM     16  C   UNL     1      -8.251  -1.256 125.287  0.00  0.00    +0.000 C 
BRANCH  16  17
ATOM     17  C   UNL     1      -7.682   0.054 125.864  0.00  0.00    +0.000 A 
ATOM     18  C   UNL     1      -6.309   0.340 125.898  0.00  0.00    +0.000 A 
ATOM     19  C   UNL     1      -5.841   1.450 126.606  0.00  0.00    +0.000 A 
ATOM     20  C   UNL     1      -6.732   2.313 127.243  0.00  0.00    +0.000 A 
ATOM     21  C   UNL     1      -8.095   2.063 127.195  0.00  0.00    +0.000 A 
ATOM     22  C   UNL     1      -8.561   0.955 126.501  0.00  0.00    +0.000 A 
ENDBRANCH  16  17
BRANCH  16  23
ATOM     23  C   UNL     1      -7.197  -1.922 124.385  0.00  0.00    +0.000 A 
ATOM     24  C   UNL     1      -6.322  -2.897 124.917  0.00  0.00    +0.000 A 
ATOM     25  C   UNL     1      -5.230  -3.371 124.206  0.00  0.00    +0.000 A 
ATOM     26  C   UNL     1      -5.049  -2.963 122.897  0.00  0.00    +0.000 A 
ATOM     27  C   UNL     1      -5.935  -2.053 122.319  0.00  0.00    +0.000 A 
ATOM     28  C   UNL     1      -6.995  -1.523 123.059  0.00  0.00    +0.000 A 
ENDBRANCH  16  23
BRANCH  16  29
ATOM     29  O   UNL     1      -9.454  -1.013 124.528  0.00  0.00    +0.000 OA
ATOM     30  H   UNL     1      -9.587  -1.782 123.950  0.00  0.00    +0.000 HD
ENDBRANCH  16  29
ENDBRANCH   1  16
TORSDOF 6
ENDMDL
