MODEL 1
REMARK VINA RESULT:      -8.4      0.000      0.000
REMARK  Name = Trovafloxacin
REMARK  4 active torsions:
REMARK  status: ('A' for Active; 'I' for Inactive)
REMARK    1  A    between atoms: C_8  and  N_9
REMARK    2  A    between atoms: C_19  and  C_30
REMARK    3  A    between atoms: N_21  and  C_22
REMARK    4  A    between atoms: C_30  and  O_31
REMARK                            x       y       z     vdW  Elec       q    Type
REMARK                         _______ _______ _______ _____ _____    ______ ____
ROOT
ATOM      1  C   UNL     1      -5.470  -3.488 130.349  0.00  0.00    +0.000 C 
ATOM      2  C   UNL     1      -5.290  -2.097 129.787  0.00  0.00    +0.000 C 
ATOM      3  N   UNL     1      -6.659  -1.623 129.652  0.00  0.00    +0.000 N 
ATOM      4  C   UNL     1      -7.506  -2.203 130.690  0.00  0.00    +0.000 C 
ATOM      5  C   UNL     1      -6.868  -3.562 130.909  0.00  0.00    +0.000 C 
ATOM      6  C   UNL     1      -5.686  -3.802 131.811  0.00  0.00    +0.000 C 
ATOM      7  C   UNL     1      -7.106  -0.796 128.647  0.00  0.00    +0.000 A 
ATOM      8  N   UNL     1      -6.909  -1.140 127.337  0.00  0.00    +0.000 NA
ATOM      9  C   UNL     1      -7.380  -0.328 126.323  0.00  0.00    +0.000 A 
ATOM     10  C   UNL     1      -8.015   0.879 126.608  0.00  0.00    +0.000 A 
ATOM     11  C   UNL     1      -8.208   1.246 127.937  0.00  0.00    +0.000 A 
ATOM     12  C   UNL     1      -7.772   0.398 128.947  0.00  0.00    +0.000 A 
ATOM     13  F   UNL     1      -7.956   0.780 130.220  0.00  0.00    +0.000 F 
ATOM     14  C   UNL     1      -8.478   1.784 125.534  0.00  0.00    +0.000 A 
ATOM     15  O   UNL     1      -9.016   2.836 125.861  0.00  0.00    +0.000 OA
ATOM     16  C   UNL     1      -8.280   1.390 124.108  0.00  0.00    +0.000 A 
ATOM     17  C   UNL     1      -7.670   0.200 123.939  0.00  0.00    +0.000 A 
ATOM     18  N   UNL     1      -7.216  -0.682 124.935  0.00  0.00    +0.000 N 
ENDROOT
BRANCH  18  19
ATOM     19  C   UNL     1      -6.614  -1.919 124.553  0.00  0.00    +0.000 A 
ATOM     20  C   UNL     1      -7.280  -3.144 124.735  0.00  0.00    +0.000 A 
ATOM     21  F   UNL     1      -8.503  -3.165 125.286  0.00  0.00    +0.000 F 
ATOM     22  C   UNL     1      -6.704  -4.349 124.347  0.00  0.00    +0.000 A 
ATOM     23  C   UNL     1      -5.378  -4.350 123.941  0.00  0.00    +0.000 A 
ATOM     24  F   UNL     1      -4.785  -5.508 123.624  0.00  0.00    +0.000 F 
ATOM     25  C   UNL     1      -4.657  -3.167 123.844  0.00  0.00    +0.000 A 
ATOM     26  C   UNL     1      -5.314  -1.948 124.023  0.00  0.00    +0.000 A 
ENDBRANCH  18  19
BRANCH   6  27
ATOM     27  N   UNL     1      -5.404  -5.168 132.285  0.00  0.00    +0.000 NA
ATOM     28  H   UNL     1      -6.122  -5.839 132.012  0.00  0.00    +0.000 HD
ATOM     29  H   UNL     1      -5.358  -5.208 133.304  0.00  0.00    +0.000 HD
ENDBRANCH   6  27
BRANCH  16  30
ATOM     30  C   UNL     1      -8.757   2.293 123.017  0.00  0.00    +0.000 C 
ATOM     31  O   UNL     1      -9.447   1.911 122.075  0.00  0.00    +0.000 OA
BRANCH  30  32
ATOM     32  O   UNL     1      -8.398   3.591 123.079  0.00  0.00    +0.000 OA
ATOM     33  H   UNL     1      -8.902   4.259 122.590  0.00  0.00    +0.000 HD
ENDBRANCH  30  32
ENDBRANCH  16  30
TORSDOF 4
ENDMDL
MODEL 2
REMARK VINA RESULT:      -8.2      3.484      5.286
REMARK  Name = Trovafloxacin
REMARK  4 active torsions:
REMARK  status: ('A' for Active; 'I' for Inactive)
REMARK    1  A    between atoms: C_8  and  N_9
REMARK    2  A    between atoms: C_19  and  C_30
REMARK    3  A    between atoms: N_21  and  C_22
REMARK    4  A    between atoms: C_30  and  O_31
REMARK                            x       y       z     vdW  Elec       q    Type
REMARK                         _______ _______ _______ _____ _____    ______ ____
ROOT
ATOM      1  C   UNL     1      -4.228  -1.199 130.697  0.00  0.00    +0.000 C 
ATOM      2  C   UNL     1      -5.493  -0.767 129.991  0.00  0.00    +0.000 C 
ATOM      3  N   UNL     1      -5.308  -1.293 128.646  0.00  0.00    +0.000 N 
ATOM      4  C   UNL     1      -4.530  -2.526 128.682  0.00  0.00    +0.000 C 
ATOM      5  C   UNL     1      -3.614  -2.300 129.870  0.00  0.00    +0.000 C 
ATOM      6  C   UNL     1      -4.006  -2.566 131.299  0.00  0.00    +0.000 C 
ATOM      7  C   UNL     1      -5.749  -0.676 127.497  0.00  0.00    +0.000 A 
ATOM      8  N   UNL     1      -5.390   0.617 127.230  0.00  0.00    +0.000 NA
ATOM      9  C   UNL     1      -5.806   1.231 126.065  0.00  0.00    +0.000 A 
ATOM     10  C   UNL     1      -6.640   0.571 125.165  0.00  0.00    +0.000 A 
ATOM     11  C   UNL     1      -7.023  -0.740 125.434  0.00  0.00    +0.000 A 
ATOM     12  C   UNL     1      -6.559  -1.362 126.585  0.00  0.00    +0.000 A 
ATOM     13  F   UNL     1      -6.955  -2.621 126.829  0.00  0.00    +0.000 F 
ATOM     14  C   UNL     1      -7.136   1.234 123.940  0.00  0.00    +0.000 A 
ATOM     15  O   UNL     1      -7.879   0.595 123.202  0.00  0.00    +0.000 OA
ATOM     16  C   UNL     1      -6.721   2.637 123.645  0.00  0.00    +0.000 A 
ATOM     17  C   UNL     1      -5.903   3.180 124.568  0.00  0.00    +0.000 A 
ATOM     18  N   UNL     1      -5.416   2.581 125.743  0.00  0.00    +0.000 N 
ENDROOT
BRANCH  18  19
ATOM     19  C   UNL     1      -4.530   3.318 126.588  0.00  0.00    +0.000 A 
ATOM     20  C   UNL     1      -5.016   4.249 127.523  0.00  0.00    +0.000 A 
ATOM     21  F   UNL     1      -6.336   4.466 127.626  0.00  0.00    +0.000 F 
ATOM     22  C   UNL     1      -4.158   4.955 128.358  0.00  0.00    +0.000 A 
ATOM     23  C   UNL     1      -2.792   4.864 128.136  0.00  0.00    +0.000 A 
ATOM     24  F   UNL     1      -1.951   5.585 128.889  0.00  0.00    +0.000 F 
ATOM     25  C   UNL     1      -2.280   4.027 127.153  0.00  0.00    +0.000 A 
ATOM     26  C   UNL     1      -3.140   3.162 126.474  0.00  0.00    +0.000 A 
ENDBRANCH  18  19
BRANCH   6  27
ATOM     27  N   UNL     1      -2.957  -2.721 132.321  0.00  0.00    +0.000 NA
ATOM     28  H   UNL     1      -2.339  -3.512 132.137  0.00  0.00    +0.000 HD
ATOM     29  H   UNL     1      -3.356  -2.888 133.245  0.00  0.00    +0.000 HD
ENDBRANCH   6  27
BRANCH  16  30
ATOM     30  C   UNL     1      -7.208   3.307 122.402  0.00  0.00    +0.000 C 
ATOM     31  O   UNL     1      -6.465   3.669 121.492  0.00  0.00    +0.000 OA
BRANCH  30  32
ATOM     32  O   UNL     1      -8.533   3.528 122.288  0.00  0.00    +0.000 OA
ATOM     33  H   UNL     1      -8.915   4.363 122.596  0.00  0.00    +0.000 HD
ENDBRANCH  30  32
ENDBRANCH  16  30
TORSDOF 4
ENDMDL
MODEL 3
REMARK VINA RESULT:      -8.1      2.701      3.613
REMARK  Name = Trovafloxacin
REMARK  4 active torsions:
REMARK  status: ('A' for Active; 'I' for Inactive)
REMARK    1  A    between atoms: C_8  and  N_9
REMARK    2  A    between atoms: C_19  and  C_30
REMARK    3  A    between atoms: N_21  and  C_22
REMARK    4  A    between atoms: C_30  and  O_31
REMARK                            x       y       z     vdW  Elec       q    Type
REMARK                         _______ _______ _______ _____ _____    ______ ____
ROOT
ATOM      1  C   UNL     1      -6.905  -1.013 129.307  0.00  0.00    +0.000 C 
ATOM      2  C   UNL     1      -5.865  -0.319 128.458  0.00  0.00    +0.000 C 
ATOM      3  N   UNL     1      -6.448   0.998 128.246  0.00  0.00    +0.000 N 
ATOM      4  C   UNL     1      -7.255   1.392 129.396  0.00  0.00    +0.000 C 
ATOM      5  C   UNL     1      -7.789   0.061 129.890  0.00  0.00    +0.000 C 
ATOM      6  C   UNL     1      -7.029  -0.864 130.805  0.00  0.00    +0.000 C 
ATOM      7  C   UNL     1      -6.310   1.739 127.094  0.00  0.00    +0.000 A 
ATOM      8  N   UNL     1      -6.653   1.198 125.884  0.00  0.00    +0.000 NA
ATOM      9  C   UNL     1      -6.544   1.946 124.728  0.00  0.00    +0.000 A 
ATOM     10  C   UNL     1      -6.034   3.242 124.758  0.00  0.00    +0.000 A 
ATOM     11  C   UNL     1      -5.668   3.797 125.981  0.00  0.00    +0.000 A 
ATOM     12  C   UNL     1      -5.827   3.051 127.142  0.00  0.00    +0.000 A 
ATOM     13  F   UNL     1      -5.454   3.603 128.307  0.00  0.00    +0.000 F 
ATOM     14  C   UNL     1      -5.862   4.036 123.523  0.00  0.00    +0.000 A 
ATOM     15  O   UNL     1      -5.393   5.165 123.626  0.00  0.00    +0.000 OA
ATOM     16  C   UNL     1      -6.261   3.446 122.211  0.00  0.00    +0.000 A 
ATOM     17  C   UNL     1      -6.756   2.195 122.291  0.00  0.00    +0.000 A 
ATOM     18  N   UNL     1      -6.930   1.412 123.445  0.00  0.00    +0.000 N 
ENDROOT
BRANCH  18  19
ATOM     19  C   UNL     1      -7.500   0.108 123.327  0.00  0.00    +0.000 A 
ATOM     20  C   UNL     1      -8.893  -0.084 123.328  0.00  0.00    +0.000 A 
ATOM     21  F   UNL     1      -9.714   0.971 123.452  0.00  0.00    +0.000 F 
ATOM     22  C   UNL     1      -9.452  -1.350 123.196  0.00  0.00    +0.000 A 
ATOM     23  C   UNL     1      -8.613  -2.454 123.243  0.00  0.00    +0.000 A 
ATOM     24  F   UNL     1      -9.137  -3.685 123.180  0.00  0.00    +0.000 F 
ATOM     25  C   UNL     1      -7.236  -2.304 123.341  0.00  0.00    +0.000 A 
ATOM     26  C   UNL     1      -6.678  -1.027 123.250  0.00  0.00    +0.000 A 
ENDBRANCH  18  19
BRANCH   6  27
ATOM     27  N   UNL     1      -7.759  -1.900 131.555  0.00  0.00    +0.000 NA
ATOM     28  H   UNL     1      -7.289  -2.806 131.540  0.00  0.00    +0.000 HD
ATOM     29  H   UNL     1      -8.688  -2.061 131.165  0.00  0.00    +0.000 HD
ENDBRANCH   6  27
BRANCH  16  30
ATOM     30  C   UNL     1      -6.102   4.248 120.960  0.00  0.00    +0.000 C 
ATOM     31  O   UNL     1      -6.852   4.147 119.991  0.00  0.00    +0.000 OA
BRANCH  30  32
ATOM     32  O   UNL     1      -5.074   5.118 120.901  0.00  0.00    +0.000 OA
ATOM     33  H   UNL     1      -5.196   5.989 120.495  0.00  0.00    +0.000 HD
ENDBRANCH  30  32
ENDBRANCH  16  30
TORSDOF 4
ENDMDL
MODEL 4
REMARK VINA RESULT:      -8.1      5.574      7.645
REMARK  Name = Trovafloxacin
REMARK  4 active torsions:
REMARK  status: ('A' for Active; 'I' for Inactive)
REMARK    1  A    between atoms: C_8  and  N_9
REMARK    2  A    between atoms: C_19  and  C_30
REMARK    3  A    between atoms: N_21  and  C_22
REMARK    4  A    between atoms: C_30  and  O_31
REMARK                            x       y       z     vdW  Elec       q    Type
REMARK                         _______ _______ _______ _____ _____    ______ ____
ROOT
ATOM      1  C   UNL     1     -10.698   5.392 130.507  0.00  0.00    +0.000 C 
ATOM      2  C   UNL     1      -9.419   4.653 130.825  0.00  0.00    +0.000 C 
ATOM      3  N   UNL     1      -8.390   5.624 130.483  0.00  0.00    +0.000 N 
ATOM      4  C   UNL     1      -8.869   6.982 130.719  0.00  0.00    +0.000 C 
ATOM      5  C   UNL     1     -10.353   6.859 130.429  0.00  0.00    +0.000 C 
ATOM      6  C   UNL     1     -11.371   6.380 131.431  0.00  0.00    +0.000 C 
ATOM      7  C   UNL     1      -7.162   5.307 129.948  0.00  0.00    +0.000 A 
ATOM      8  N   UNL     1      -7.082   4.557 128.806  0.00  0.00    +0.000 NA
ATOM      9  C   UNL     1      -5.854   4.261 128.250  0.00  0.00    +0.000 A 
ATOM     10  C   UNL     1      -4.671   4.670 128.863  0.00  0.00    +0.000 A 
ATOM     11  C   UNL     1      -4.740   5.420 130.033  0.00  0.00    +0.000 A 
ATOM     12  C   UNL     1      -5.983   5.752 130.557  0.00  0.00    +0.000 A 
ATOM     13  F   UNL     1      -6.023   6.464 131.693  0.00  0.00    +0.000 F 
ATOM     14  C   UNL     1      -3.347   4.314 128.308  0.00  0.00    +0.000 A 
ATOM     15  O   UNL     1      -2.350   4.697 128.911  0.00  0.00    +0.000 OA
ATOM     16  C   UNL     1      -3.270   3.516 127.049  0.00  0.00    +0.000 A 
ATOM     17  C   UNL     1      -4.468   3.183 126.527  0.00  0.00    +0.000 A 
ATOM     18  N   UNL     1      -5.742   3.501 127.029  0.00  0.00    +0.000 N 
ENDROOT
BRANCH  18  19
ATOM     19  C   UNL     1      -6.902   3.077 126.312  0.00  0.00    +0.000 A 
ATOM     20  C   UNL     1      -7.567   1.882 126.637  0.00  0.00    +0.000 A 
ATOM     21  F   UNL     1      -7.107   1.110 127.635  0.00  0.00    +0.000 F 
ATOM     22  C   UNL     1      -8.706   1.475 125.952  0.00  0.00    +0.000 A 
ATOM     23  C   UNL     1      -9.082   2.174 124.815  0.00  0.00    +0.000 A 
ATOM     24  F   UNL     1     -10.139   1.761 124.105  0.00  0.00    +0.000 F 
ATOM     25  C   UNL     1      -8.387   3.305 124.407  0.00  0.00    +0.000 A 
ATOM     26  C   UNL     1      -7.384   3.826 125.227  0.00  0.00    +0.000 A 
ENDBRANCH  18  19
BRANCH   6  27
ATOM     27  N   UNL     1     -12.796   6.684 131.217  0.00  0.00    +0.000 NA
ATOM     28  H   UNL     1     -12.959   7.657 130.957  0.00  0.00    +0.000 HD
ATOM     29  H   UNL     1     -13.344   6.526 132.064  0.00  0.00    +0.000 HD
ENDBRANCH   6  27
BRANCH  16  30
ATOM     30  C   UNL     1      -1.936   3.165 126.475  0.00  0.00    +0.000 C 
ATOM     31  O   UNL     1      -1.504   3.639 125.427  0.00  0.00    +0.000 OA
BRANCH  30  32
ATOM     32  O   UNL     1      -1.179   2.276 127.150  0.00  0.00    +0.000 OA
ATOM     33  H   UNL     1      -0.690   1.591 126.670  0.00  0.00    +0.000 HD
ENDBRANCH  30  32
ENDBRANCH  16  30
TORSDOF 4
ENDMDL
MODEL 5
REMARK VINA RESULT:      -8.1      2.523      2.945
REMARK  Name = Trovafloxacin
REMARK  4 active torsions:
REMARK  status: ('A' for Active; 'I' for Inactive)
REMARK    1  A    between atoms: C_8  and  N_9
REMARK    2  A    between atoms: C_19  and  C_30
REMARK    3  A    between atoms: N_21  and  C_22
REMARK    4  A    between atoms: C_30  and  O_31
REMARK                            x       y       z     vdW  Elec       q    Type
REMARK                         _______ _______ _______ _____ _____    ______ ____
ROOT
ATOM      1  C   UNL     1      -5.201  -3.608 129.741  0.00  0.00    +0.000 C 
ATOM      2  C   UNL     1      -4.341  -2.558 129.079  0.00  0.00    +0.000 C 
ATOM      3  N   UNL     1      -4.926  -1.313 129.555  0.00  0.00    +0.000 N 
ATOM      4  C   UNL     1      -5.474  -1.486 130.896  0.00  0.00    +0.000 C 
ATOM      5  C   UNL     1      -5.924  -2.934 130.880  0.00  0.00    +0.000 C 
ATOM      6  C   UNL     1      -5.015  -4.103 131.157  0.00  0.00    +0.000 C 
ATOM      7  C   UNL     1      -5.009  -0.154 128.817  0.00  0.00    +0.000 A 
ATOM      8  N   UNL     1      -5.603  -0.166 127.584  0.00  0.00    +0.000 NA
ATOM      9  C   UNL     1      -5.715   0.998 126.851  0.00  0.00    +0.000 A 
ATOM     10  C   UNL     1      -5.182   2.196 127.322  0.00  0.00    +0.000 A 
ATOM     11  C   UNL     1      -4.563   2.217 128.569  0.00  0.00    +0.000 A 
ATOM     12  C   UNL     1      -4.499   1.049 129.317  0.00  0.00    +0.000 A 
ATOM     13  F   UNL     1      -3.884   1.091 130.508  0.00  0.00    +0.000 F 
ATOM     14  C   UNL     1      -5.247   3.440 126.525  0.00  0.00    +0.000 A 
ATOM     15  O   UNL     1      -4.743   4.453 126.999  0.00  0.00    +0.000 OA
ATOM     16  C   UNL     1      -5.918   3.423 125.192  0.00  0.00    +0.000 A 
ATOM     17  C   UNL     1      -6.413   2.221 124.834  0.00  0.00    +0.000 A 
ATOM     18  N   UNL     1      -6.365   1.020 125.564  0.00  0.00    +0.000 N 
ENDROOT
BRANCH  18  19
ATOM     19  C   UNL     1      -6.976  -0.151 125.023  0.00  0.00    +0.000 A 
ATOM     20  C   UNL     1      -8.277  -0.536 125.392  0.00  0.00    +0.000 A 
ATOM     21  F   UNL     1      -8.966   0.200 126.278  0.00  0.00    +0.000 F 
ATOM     22  C   UNL     1      -8.881  -1.667 124.854  0.00  0.00    +0.000 A 
ATOM     23  C   UNL     1      -8.115  -2.522 124.077  0.00  0.00    +0.000 A 
ATOM     24  F   UNL     1      -8.660  -3.649 123.601  0.00  0.00    +0.000 F 
ATOM     25  C   UNL     1      -6.793  -2.223 123.772  0.00  0.00    +0.000 A 
ATOM     26  C   UNL     1      -6.271  -0.980 124.135  0.00  0.00    +0.000 A 
ENDBRANCH  18  19
BRANCH   6  27
ATOM     27  N   UNL     1      -5.599  -5.402 131.530  0.00  0.00    +0.000 NA
ATOM     28  H   UNL     1      -5.487  -5.617 132.521  0.00  0.00    +0.000 HD
ATOM     29  H   UNL     1      -5.155  -6.171 131.026  0.00  0.00    +0.000 HD
ENDBRANCH   6  27
BRANCH  16  30
ATOM     30  C   UNL     1      -5.999   4.679 124.388  0.00  0.00    +0.000 C 
ATOM     31  O   UNL     1      -5.611   4.766 123.225  0.00  0.00    +0.000 OA
BRANCH  30  32
ATOM     32  O   UNL     1      -6.520   5.770 124.984  0.00  0.00    +0.000 OA
ATOM     33  H   UNL     1      -7.043   5.679 125.795  0.00  0.00    +0.000 HD
ENDBRANCH  30  32
ENDBRANCH  16  30
TORSDOF 4
ENDMDL
MODEL 6
REMARK VINA RESULT:      -8.0      3.603      7.170
REMARK  Name = Trovafloxacin
REMARK  4 active torsions:
REMARK  status: ('A' for Active; 'I' for Inactive)
REMARK    1  A    between atoms: C_8  and  N_9
REMARK    2  A    between atoms: C_19  and  C_30
REMARK    3  A    between atoms: N_21  and  C_22
REMARK    4  A    between atoms: C_30  and  O_31
REMARK                            x       y       z     vdW  Elec       q    Type
REMARK                         _______ _______ _______ _____ _____    ______ ____
ROOT
ATOM      1  C   UNL     1      -8.797   2.783 122.091  0.00  0.00    +0.000 C 
ATOM      2  C   UNL     1      -8.714   2.926 123.593  0.00  0.00    +0.000 C 
ATOM      3  N   UNL     1      -7.281   2.889 123.842  0.00  0.00    +0.000 N 
ATOM      4  C   UNL     1      -6.551   3.470 122.720  0.00  0.00    +0.000 C 
ATOM      5  C   UNL     1      -7.433   3.115 121.539  0.00  0.00    +0.000 C 
ATOM      6  C   UNL     1      -8.632   3.920 121.110  0.00  0.00    +0.000 C 
ATOM      7  C   UNL     1      -6.693   2.325 124.952  0.00  0.00    +0.000 A 
ATOM      8  N   UNL     1      -6.963   1.026 125.286  0.00  0.00    +0.000 NA
ATOM      9  C   UNL     1      -6.355   0.445 126.382  0.00  0.00    +0.000 A 
ATOM     10  C   UNL     1      -5.499   1.180 127.200  0.00  0.00    +0.000 A 
ATOM     11  C   UNL     1      -5.229   2.507 126.878  0.00  0.00    +0.000 A 
ATOM     12  C   UNL     1      -5.810   3.065 125.746  0.00  0.00    +0.000 A 
ATOM     13  F   UNL     1      -5.546   4.350 125.465  0.00  0.00    +0.000 F 
ATOM     14  C   UNL     1      -4.882   0.588 128.406  0.00  0.00    +0.000 A 
ATOM     15  O   UNL     1      -4.151   1.301 129.086  0.00  0.00    +0.000 OA
ATOM     16  C   UNL     1      -5.164  -0.837 128.750  0.00  0.00    +0.000 A 
ATOM     17  C   UNL     1      -5.990  -1.464 127.889  0.00  0.00    +0.000 A 
ATOM     18  N   UNL     1      -6.596  -0.931 126.737  0.00  0.00    +0.000 N 
ENDROOT
BRANCH  18  19
ATOM     19  C   UNL     1      -7.425  -1.770 125.932  0.00  0.00    +0.000 A 
ATOM     20  C   UNL     1      -6.952  -2.336 124.736  0.00  0.00    +0.000 A 
ATOM     21  F   UNL     1      -5.699  -2.083 124.326  0.00  0.00    +0.000 F 
ATOM     22  C   UNL     1      -7.751  -3.166 123.959  0.00  0.00    +0.000 A 
ATOM     23  C   UNL     1      -9.094  -3.289 124.283  0.00  0.00    +0.000 A 
ATOM     24  F   UNL     1      -9.895  -4.034 123.511  0.00  0.00    +0.000 F 
ATOM     25  C   UNL     1      -9.619  -2.663 125.406  0.00  0.00    +0.000 A 
ATOM     26  C   UNL     1      -8.759  -2.015 126.295  0.00  0.00    +0.000 A 
ENDBRANCH  18  19
BRANCH   6  27
ATOM     27  N   UNL     1      -9.165   3.755 119.747  0.00  0.00    +0.000 NA
ATOM     28  H   UNL     1      -8.432   3.703 119.038  0.00  0.00    +0.000 HD
ATOM     29  H   UNL     1      -9.757   4.542 119.478  0.00  0.00    +0.000 HD
ENDBRANCH   6  27
BRANCH  16  30
ATOM     30  C   UNL     1      -4.533  -1.445 129.960  0.00  0.00    +0.000 C 
ATOM     31  O   UNL     1      -5.175  -1.854 130.925  0.00  0.00    +0.000 OA
BRANCH  30  32
ATOM     32  O   UNL     1      -3.189  -1.536 129.985  0.00  0.00    +0.000 OA
ATOM     33  H   UNL     1      -2.720  -1.589 130.832  0.00  0.00    +0.000 HD
ENDBRANCH  30  32
ENDBRANCH  16  30
TORSDOF 4
ENDMDL
MODEL 7
REMARK VINA RESULT:      -7.8      3.322      4.952
REMARK  Name = Trovafloxacin
REMARK  4 active torsions:
REMARK  status: ('A' for Active; 'I' for Inactive)
REMARK    1  A    between atoms: C_8  and  N_9
REMARK    2  A    between atoms: C_19  and  C_30
REMARK    3  A    between atoms: N_21  and  C_22
REMARK    4  A    between atoms: C_30  and  O_31
REMARK                            x       y       z     vdW  Elec       q    Type
REMARK                         _______ _______ _______ _____ _____    ______ ____
ROOT
ATOM      1  C   UNL     1      -5.922   2.130 132.527  0.00  0.00    +0.000 C 
ATOM      2  C   UNL     1      -5.827   2.204 131.021  0.00  0.00    +0.000 C 
ATOM      3  N   UNL     1      -7.203   1.990 130.598  0.00  0.00    +0.000 N 
ATOM      4  C   UNL     1      -8.131   2.523 131.590  0.00  0.00    +0.000 C 
ATOM      5  C   UNL     1      -7.374   2.320 132.888  0.00  0.00    +0.000 C 
ATOM      6  C   UNL     1      -6.338   3.276 133.418  0.00  0.00    +0.000 C 
ATOM      7  C   UNL     1      -7.576   1.318 129.456  0.00  0.00    +0.000 A 
ATOM      8  N   UNL     1      -7.123   0.048 129.227  0.00  0.00    +0.000 NA
ATOM      9  C   UNL     1      -7.516  -0.642 128.097  0.00  0.00    +0.000 A 
ATOM     10  C   UNL     1      -8.336  -0.044 127.142  0.00  0.00    +0.000 A 
ATOM     11  C   UNL     1      -8.792   1.254 127.358  0.00  0.00    +0.000 A 
ATOM     12  C   UNL     1      -8.427   1.918 128.521  0.00  0.00    +0.000 A 
ATOM     13  F   UNL     1      -8.867   3.174 128.699  0.00  0.00    +0.000 F 
ATOM     14  C   UNL     1      -8.723  -0.750 125.902  0.00  0.00    +0.000 A 
ATOM     15  O   UNL     1      -9.436  -0.155 125.100  0.00  0.00    +0.000 OA
ATOM     16  C   UNL     1      -8.243  -2.145 125.672  0.00  0.00    +0.000 A 
ATOM     17  C   UNL     1      -7.469  -2.637 126.659  0.00  0.00    +0.000 A 
ATOM     18  N   UNL     1      -7.080  -1.993 127.848  0.00  0.00    +0.000 N 
ENDROOT
BRANCH  18  19
ATOM     19  C   UNL     1      -6.272  -2.697 128.792  0.00  0.00    +0.000 A 
ATOM     20  C   UNL     1      -6.848  -3.429 129.845  0.00  0.00    +0.000 A 
ATOM     21  F   UNL     1      -8.183  -3.467 129.982  0.00  0.00    +0.000 F 
ATOM     22  C   UNL     1      -6.065  -4.129 130.756  0.00  0.00    +0.000 A 
ATOM     23  C   UNL     1      -4.690  -3.951 130.724  0.00  0.00    +0.000 A 
ATOM     24  F   UNL     1      -3.923  -4.568 131.632  0.00  0.00    +0.000 F 
ATOM     25  C   UNL     1      -4.093  -3.155 129.755  0.00  0.00    +0.000 A 
ATOM     26  C   UNL     1      -4.872  -2.639 128.718  0.00  0.00    +0.000 A 
ENDBRANCH  18  19
BRANCH   6  27
ATOM     27  N   UNL     1      -5.969   3.227 134.843  0.00  0.00    +0.000 NA
ATOM     28  H   UNL     1      -6.775   3.309 135.465  0.00  0.00    +0.000 HD
ATOM     29  H   UNL     1      -5.345   3.994 135.095  0.00  0.00    +0.000 HD
ENDBRANCH   6  27
BRANCH  16  30
ATOM     30  C   UNL     1      -8.641  -2.868 124.427  0.00  0.00    +0.000 C 
ATOM     31  O   UNL     1      -7.833  -3.310 123.612  0.00  0.00    +0.000 OA
BRANCH  30  32
ATOM     32  O   UNL     1      -9.959  -3.032 124.193  0.00  0.00    +0.000 OA
ATOM     33  H   UNL     1     -10.261  -3.687 123.546  0.00  0.00    +0.000 HD
ENDBRANCH  30  32
ENDBRANCH  16  30
TORSDOF 4
ENDMDL
MODEL 8
REMARK VINA RESULT:      -7.7      2.970      4.656
REMARK  Name = Trovafloxacin
REMARK  4 active torsions:
REMARK  status: ('A' for Active; 'I' for Inactive)
REMARK    1  A    between atoms: C_8  and  N_9
REMARK    2  A    between atoms: C_19  and  C_30
REMARK    3  A    between atoms: N_21  and  C_22
REMARK    4  A    between atoms: C_30  and  O_31
REMARK                            x       y       z     vdW  Elec       q    Type
REMARK                         _______ _______ _______ _____ _____    ______ ____
ROOT
ATOM      1  C   UNL     1      -4.055  -1.208 131.723  0.00  0.00    +0.000 C 
ATOM      2  C   UNL     1      -5.513  -1.135 131.332  0.00  0.00    +0.000 C 
ATOM      3  N   UNL     1      -5.594  -2.060 130.210  0.00  0.00    +0.000 N 
ATOM      4  C   UNL     1      -4.634  -3.147 130.374  0.00  0.00    +0.000 C 
ATOM      5  C   UNL     1      -3.496  -2.469 131.113  0.00  0.00    +0.000 C 
ATOM      6  C   UNL     1      -3.457  -2.277 132.607  0.00  0.00    +0.000 C 
ATOM      7  C   UNL     1      -6.413  -1.895 129.117  0.00  0.00    +0.000 A 
ATOM      8  N   UNL     1      -6.360  -0.738 128.387  0.00  0.00    +0.000 NA
ATOM      9  C   UNL     1      -7.160  -0.579 127.272  0.00  0.00    +0.000 A 
ATOM     10  C   UNL     1      -8.072  -1.562 126.898  0.00  0.00    +0.000 A 
ATOM     11  C   UNL     1      -8.145  -2.737 127.641  0.00  0.00    +0.000 A 
ATOM     12  C   UNL     1      -7.302  -2.905 128.732  0.00  0.00    +0.000 A 
ATOM     13  F   UNL     1      -7.401  -4.039 129.442  0.00  0.00    +0.000 F 
ATOM     14  C   UNL     1      -8.972  -1.384 125.738  0.00  0.00    +0.000 A 
ATOM     15  O   UNL     1      -9.759  -2.287 125.477  0.00  0.00    +0.000 OA
ATOM     16  C   UNL     1      -8.891  -0.129 124.934  0.00  0.00    +0.000 A 
ATOM     17  C   UNL     1      -7.968   0.752 125.368  0.00  0.00    +0.000 A 
ATOM     18  N   UNL     1      -7.101   0.616 126.467  0.00  0.00    +0.000 N 
ENDROOT
BRANCH  18  19
ATOM     19  C   UNL     1      -6.166   1.657 126.753  0.00  0.00    +0.000 A 
ATOM     20  C   UNL     1      -6.528   2.770 127.533  0.00  0.00    +0.000 A 
ATOM     21  F   UNL     1      -7.776   2.872 128.016  0.00  0.00    +0.000 F 
ATOM     22  C   UNL     1      -5.616   3.777 127.828  0.00  0.00    +0.000 A 
ATOM     23  C   UNL     1      -4.384   3.765 127.190  0.00  0.00    +0.000 A 
ATOM     24  F   UNL     1      -3.515   4.759 127.413  0.00  0.00    +0.000 F 
ATOM     25  C   UNL     1      -4.030   2.729 126.335  0.00  0.00    +0.000 A 
ATOM     26  C   UNL     1      -4.868   1.618 126.223  0.00  0.00    +0.000 A 
ENDBRANCH  18  19
BRANCH   6  27
ATOM     27  N   UNL     1      -2.170  -2.003 133.267  0.00  0.00    +0.000 NA
ATOM     28  H   UNL     1      -1.944  -1.008 133.301  0.00  0.00    +0.000 HD
ATOM     29  H   UNL     1      -1.394  -2.448 132.776  0.00  0.00    +0.000 HD
ENDBRANCH   6  27
BRANCH  16  30
ATOM     30  C   UNL     1      -9.788   0.053 123.752  0.00  0.00    +0.000 C 
ATOM     31  O   UNL     1     -10.512   1.034 123.596  0.00  0.00    +0.000 OA
BRANCH  30  32
ATOM     32  O   UNL     1      -9.800  -0.922 122.821  0.00  0.00    +0.000 OA
ATOM     33  H   UNL     1     -10.513  -0.960 122.165  0.00  0.00    +0.000 HD
ENDBRANCH  30  32
ENDBRANCH  16  30
TORSDOF 4
ENDMDL
MODEL 9
REMARK VINA RESULT:      -7.7      5.188      8.428
REMARK  Name = Trovafloxacin
REMARK  4 active torsions:
REMARK  status: ('A' for Active; 'I' for Inactive)
REMARK    1  A    between atoms: C_8  and  N_9
REMARK    2  A    between atoms: C_19  and  C_30
REMARK    3  A    between atoms: N_21  and  C_22
REMARK    4  A    between atoms: C_30  and  O_31
REMARK                            x       y       z     vdW  Elec       q    Type
REMARK                         _______ _______ _______ _____ _____    ______ ____
ROOT
ATOM      1  C   UNL     1      -9.409   1.931 124.371  0.00  0.00    +0.000 C 
ATOM      2  C   UNL     1      -8.674   3.189 124.771  0.00  0.00    +0.000 C 
ATOM      3  N   UNL     1      -7.284   2.758 124.799  0.00  0.00    +0.000 N 
ATOM      4  C   UNL     1      -7.053   1.713 123.806  0.00  0.00    +0.000 C 
ATOM      5  C   UNL     1      -8.389   0.995 123.772  0.00  0.00    +0.000 C 
ATOM      6  C   UNL     1      -9.567   1.445 122.949  0.00  0.00    +0.000 C 
ATOM      7  C   UNL     1      -6.337   3.223 125.683  0.00  0.00    +0.000 A 
ATOM      8  N   UNL     1      -6.567   3.162 127.031  0.00  0.00    +0.000 NA
ATOM      9  C   UNL     1      -5.609   3.601 127.923  0.00  0.00    +0.000 A 
ATOM     10  C   UNL     1      -4.416   4.163 127.475  0.00  0.00    +0.000 A 
ATOM     11  C   UNL     1      -4.178   4.244 126.106  0.00  0.00    +0.000 A 
ATOM     12  C   UNL     1      -5.129   3.755 125.220  0.00  0.00    +0.000 A 
ATOM     13  F   UNL     1      -4.883   3.858 123.904  0.00  0.00    +0.000 F 
ATOM     14  C   UNL     1      -3.403   4.686 128.417  0.00  0.00    +0.000 A 
ATOM     15  O   UNL     1      -2.383   5.180 127.949  0.00  0.00    +0.000 OA
ATOM     16  C   UNL     1      -3.652   4.593 129.886  0.00  0.00    +0.000 A 
ATOM     17  C   UNL     1      -4.826   4.020 130.216  0.00  0.00    +0.000 A 
ATOM     18  N   UNL     1      -5.811   3.517 129.348  0.00  0.00    +0.000 N 
ENDROOT
BRANCH  18  19
ATOM     19  C   UNL     1      -6.986   2.918 129.896  0.00  0.00    +0.000 A 
ATOM     20  C   UNL     1      -8.147   3.672 130.137  0.00  0.00    +0.000 A 
ATOM     21  F   UNL     1      -8.162   4.986 129.860  0.00  0.00    +0.000 F 
ATOM     22  C   UNL     1      -9.298   3.088 130.654  0.00  0.00    +0.000 A 
ATOM     23  C   UNL     1      -9.234   1.778 131.104  0.00  0.00    +0.000 A 
ATOM     24  F   UNL     1     -10.314   1.217 131.662  0.00  0.00    +0.000 F 
ATOM     25  C   UNL     1      -8.070   1.032 130.970  0.00  0.00    +0.000 A 
ATOM     26  C   UNL     1      -6.996   1.560 130.251  0.00  0.00    +0.000 A 
ENDBRANCH  18  19
BRANCH   6  27
ATOM     27  N   UNL     1     -10.648   0.491 122.650  0.00  0.00    +0.000 NA
ATOM     28  H   UNL     1     -10.456  -0.080 121.825  0.00  0.00    +0.000 HD
ATOM     29  H   UNL     1     -11.528   0.970 122.458  0.00  0.00    +0.000 HD
ENDBRANCH   6  27
BRANCH  16  30
ATOM     30  C   UNL     1      -2.627   5.107 130.844  0.00  0.00    +0.000 C 
ATOM     31  O   UNL     1      -2.256   4.485 131.838  0.00  0.00    +0.000 OA
BRANCH  30  32
ATOM     32  O   UNL     1      -2.095   6.321 130.599  0.00  0.00    +0.000 OA
ATOM     33  H   UNL     1      -1.509   6.736 131.249  0.00  0.00    +0.000 HD
ENDBRANCH  30  32
ENDBRANCH  16  30
TORSDOF 4
ENDMDL
