MODEL 1
REMARK VINA RESULT:      -6.8      0.000      0.000
REMARK  Name = Tryptophan
REMARK  5 active torsions:
REMARK  status: ('A' for Active; 'I' for Inactive)
REMARK    1  A    between atoms: N_1  and  CA_2
REMARK    2  A    between atoms: CA_2  and  CB_3
REMARK    3  A    between atoms: CA_2  and  C_13
REMARK    4  A    between atoms: CB_3  and  CG_4
REMARK    5  A    between atoms: C_13  and  O_14
REMARK                            x       y       z     vdW  Elec       q    Type
REMARK                         _______ _______ _______ _____ _____    ______ ____
ROOT
ATOM      1  CG  TRP A   1     -11.520   7.643 129.926  0.00  0.00    +0.000 A 
ATOM      2  CD1 TRP A   1     -12.582   7.195 130.693  0.00  0.00    +0.000 A 
ATOM      3  NE1 TRP A   1     -12.092   6.398 131.694  0.00  0.00    +0.000 N 
ATOM      4  CE2 TRP A   1     -10.717   6.386 131.663  0.00  0.00    +0.000 A 
ATOM      5  CD2 TRP A   1     -10.324   7.130 130.549  0.00  0.00    +0.000 A 
ATOM      6  CE3 TRP A   1      -8.936   7.228 130.297  0.00  0.00    +0.000 A 
ATOM      7  CZ3 TRP A   1      -7.998   6.712 131.182  0.00  0.00    +0.000 A 
ATOM      8  CH2 TRP A   1      -8.422   5.976 132.272  0.00  0.00    +0.000 A 
ATOM      9  CZ2 TRP A   1      -9.787   5.769 132.515  0.00  0.00    +0.000 A 
ATOM     10  HE1 TRP A   1     -12.658   5.906 132.372  0.00  0.00    +0.000 HD
ENDROOT
BRANCH   1  11
ATOM     11  CB  TRP A   1     -11.668   8.501 128.691  0.00  0.00    +0.000 C 
BRANCH  11  12
ATOM     12  CA  TRP A   1     -12.034   7.745 127.409  0.00  0.00    +0.000 C 
BRANCH  12  13
ATOM     13  N   TRP A   1     -12.780   6.468 127.702  0.00  0.00    +0.000 NA
ATOM     14  H1  TRP A   1     -13.750   6.617 127.393  0.00  0.00    +0.000 HD
ATOM     15  H2  TRP A   1     -12.928   6.408 128.712  0.00  0.00    +0.000 HD
ENDBRANCH  12  13
BRANCH  12  16
ATOM     16  C   TRP A   1     -10.790   7.401 126.592  0.00  0.00    +0.000 C 
ATOM     17  OXT TRP A   1      -9.919   6.613 126.944  0.00  0.00    +0.000 OA
BRANCH  16  18
ATOM     18  O   TRP A   1     -10.733   8.092 125.425  0.00  0.00    +0.000 OA
ATOM     19  H   TRP A   1     -11.450   8.775 125.458  0.00  0.00    +0.000 HD
ENDBRANCH  16  18
ENDBRANCH  12  16
ENDBRANCH  11  12
ENDBRANCH   1  11
TORSDOF 5
ENDMDL
MODEL 2
REMARK VINA RESULT:      -6.5      1.702      2.184
REMARK  Name = Tryptophan
REMARK  5 active torsions:
REMARK  status: ('A' for Active; 'I' for Inactive)
REMARK    1  A    between atoms: N_1  and  CA_2
REMARK    2  A    between atoms: CA_2  and  CB_3
REMARK    3  A    between atoms: CA_2  and  C_13
REMARK    4  A    between atoms: CB_3  and  CG_4
REMARK    5  A    between atoms: C_13  and  O_14
REMARK                            x       y       z     vdW  Elec       q    Type
REMARK                         _______ _______ _______ _____ _____    ______ ____
ROOT
ATOM      1  CG  TRP A   1      -9.918   6.789 130.969  0.00  0.00    +0.000 A 
ATOM      2  CD1 TRP A   1     -10.955   6.382 131.793  0.00  0.00    +0.000 A 
ATOM      3  NE1 TRP A   1     -10.422   5.729 132.874  0.00  0.00    +0.000 N 
ATOM      4  CE2 TRP A   1      -9.048   5.780 132.832  0.00  0.00    +0.000 A 
ATOM      5  CD2 TRP A   1      -8.696   6.408 131.636  0.00  0.00    +0.000 A 
ATOM      6  CE3 TRP A   1      -7.315   6.543 131.362  0.00  0.00    +0.000 A 
ATOM      7  CZ3 TRP A   1      -6.351   6.178 132.291  0.00  0.00    +0.000 A 
ATOM      8  CH2 TRP A   1      -6.734   5.552 133.462  0.00  0.00    +0.000 A 
ATOM      9  CZ2 TRP A   1      -8.087   5.310 133.740  0.00  0.00    +0.000 A 
ATOM     10  HE1 TRP A   1     -10.961   5.291 133.609  0.00  0.00    +0.000 HD
ENDROOT
BRANCH   1  11
ATOM     11  CB  TRP A   1     -10.113   7.491 129.646  0.00  0.00    +0.000 C 
BRANCH  11  12
ATOM     12  CA  TRP A   1     -10.411   6.574 128.455  0.00  0.00    +0.000 C 
BRANCH  12  13
ATOM     13  N   TRP A   1      -9.200   5.774 128.044  0.00  0.00    +0.000 NA
ATOM     14  H1  TRP A   1      -9.545   4.852 127.743  0.00  0.00    +0.000 HD
ATOM     15  H2  TRP A   1      -8.694   5.501 128.890  0.00  0.00    +0.000 HD
ENDBRANCH  12  13
BRANCH  12  16
ATOM     16  C   TRP A   1     -10.896   7.370 127.246  0.00  0.00    +0.000 C 
ATOM     17  OXT TRP A   1     -10.879   8.593 127.163  0.00  0.00    +0.000 OA
BRANCH  16  18
ATOM     18  O   TRP A   1     -11.385   6.570 126.265  0.00  0.00    +0.000 OA
ATOM     19  H   TRP A   1     -12.138   7.055 125.843  0.00  0.00    +0.000 HD
ENDBRANCH  16  18
ENDBRANCH  12  16
ENDBRANCH  11  12
ENDBRANCH   1  11
TORSDOF 5
ENDMDL
MODEL 3
REMARK VINA RESULT:      -6.4      2.253      2.558
REMARK  Name = Tryptophan
REMARK  5 active torsions:
REMARK  status: ('A' for Active; 'I' for Inactive)
REMARK    1  A    between atoms: N_1  and  CA_2
REMARK    2  A    between atoms: CA_2  and  CB_3
REMARK    3  A    between atoms: CA_2  and  C_13
REMARK    4  A    between atoms: CB_3  and  CG_4
REMARK    5  A    between atoms: C_13  and  O_14
REMARK                            x       y       z     vdW  Elec       q    Type
REMARK                         _______ _______ _______ _____ _____    ______ ____
ROOT
ATOM      1  CG  TRP A   1     -10.951   7.088 130.637  0.00  0.00    +0.000 A 
ATOM      2  CD1 TRP A   1     -11.830   6.558 131.567  0.00  0.00    +0.000 A 
ATOM      3  NE1 TRP A   1     -11.107   5.881 132.515  0.00  0.00    +0.000 N 
ATOM      4  CE2 TRP A   1      -9.759   6.034 132.284  0.00  0.00    +0.000 A 
ATOM      5  CD2 TRP A   1      -9.624   6.757 131.098  0.00  0.00    +0.000 A 
ATOM      6  CE3 TRP A   1      -8.308   7.007 130.644  0.00  0.00    +0.000 A 
ATOM      7  CZ3 TRP A   1      -7.198   6.657 131.401  0.00  0.00    +0.000 A 
ATOM      8  CH2 TRP A   1      -7.369   5.937 132.567  0.00  0.00    +0.000 A 
ATOM      9  CZ2 TRP A   1      -8.649   5.581 133.014  0.00  0.00    +0.000 A 
ATOM     10  HE1 TRP A   1     -11.506   5.362 133.286  0.00  0.00    +0.000 HD
ENDROOT
BRANCH   1  11
ATOM     11  CB  TRP A   1     -11.378   7.853 129.407  0.00  0.00    +0.000 C 
BRANCH  11  12
ATOM     12  CA  TRP A   1     -12.878   8.152 129.310  0.00  0.00    +0.000 C 
BRANCH  12  13
ATOM     13  N   TRP A   1     -13.427   7.838 127.940  0.00  0.00    +0.000 NA
ATOM     14  H1  TRP A   1     -12.614   7.670 127.330  0.00  0.00    +0.000 HD
ATOM     15  H2  TRP A   1     -13.774   8.707 127.527  0.00  0.00    +0.000 HD
ENDBRANCH  12  13
BRANCH  12  16
ATOM     16  C   TRP A   1     -13.174   9.618 129.623  0.00  0.00    +0.000 C 
ATOM     17  OXT TRP A   1     -13.118  10.118 130.741  0.00  0.00    +0.000 OA
BRANCH  16  18
ATOM     18  O   TRP A   1     -13.543  10.315 128.519  0.00  0.00    +0.000 OA
ATOM     19  H   TRP A   1     -13.023  11.158 128.521  0.00  0.00    +0.000 HD
ENDBRANCH  16  18
ENDBRANCH  12  16
ENDBRANCH  11  12
ENDBRANCH   1  11
TORSDOF 5
ENDMDL
MODEL 4
REMARK VINA RESULT:      -6.3      6.948      9.447
REMARK  Name = Tryptophan
REMARK  5 active torsions:
REMARK  status: ('A' for Active; 'I' for Inactive)
REMARK    1  A    between atoms: N_1  and  CA_2
REMARK    2  A    between atoms: CA_2  and  CB_3
REMARK    3  A    between atoms: CA_2  and  C_13
REMARK    4  A    between atoms: CB_3  and  CG_4
REMARK    5  A    between atoms: C_13  and  O_14
REMARK                            x       y       z     vdW  Elec       q    Type
REMARK                         _______ _______ _______ _____ _____    ______ ____
ROOT
ATOM      1  CG  TRP A   1      -7.541   2.987 123.028  0.00  0.00    +0.000 A 
ATOM      2  CD1 TRP A   1      -8.790   2.693 122.506  0.00  0.00    +0.000 A 
ATOM      3  NE1 TRP A   1      -8.861   3.196 121.233  0.00  0.00    +0.000 N 
ATOM      4  CE2 TRP A   1      -7.648   3.732 120.865  0.00  0.00    +0.000 A 
ATOM      5  CD2 TRP A   1      -6.807   3.647 121.975  0.00  0.00    +0.000 A 
ATOM      6  CE3 TRP A   1      -5.502   4.174 121.836  0.00  0.00    +0.000 A 
ATOM      7  CZ3 TRP A   1      -5.035   4.646 120.616  0.00  0.00    +0.000 A 
ATOM      8  CH2 TRP A   1      -5.897   4.721 119.539  0.00  0.00    +0.000 A 
ATOM      9  CZ2 TRP A   1      -7.229   4.298 119.651  0.00  0.00    +0.000 A 
ATOM     10  HE1 TRP A   1      -9.679   3.159 120.641  0.00  0.00    +0.000 HD
ENDROOT
BRANCH   1  11
ATOM     11  CB  TRP A   1      -7.107   2.645 124.434  0.00  0.00    +0.000 C 
BRANCH  11  12
ATOM     12  CA  TRP A   1      -7.254   3.777 125.457  0.00  0.00    +0.000 C 
BRANCH  12  13
ATOM     13  N   TRP A   1      -8.509   4.583 125.228  0.00  0.00    +0.000 NA
ATOM     14  H1  TRP A   1      -9.042   4.094 124.495  0.00  0.00    +0.000 HD
ATOM     15  H2  TRP A   1      -8.255   5.433 124.718  0.00  0.00    +0.000 HD
ENDBRANCH  12  13
BRANCH  12  16
ATOM     16  C   TRP A   1      -6.058   4.726 125.415  0.00  0.00    +0.000 C 
ATOM     17  OXT TRP A   1      -4.923   4.433 125.773  0.00  0.00    +0.000 OA
BRANCH  16  18
ATOM     18  O   TRP A   1      -6.395   5.958 124.959  0.00  0.00    +0.000 OA
ATOM     19  H   TRP A   1      -6.016   6.045 124.049  0.00  0.00    +0.000 HD
ENDBRANCH  16  18
ENDBRANCH  12  16
ENDBRANCH  11  12
ENDBRANCH   1  11
TORSDOF 5
ENDMDL
MODEL 5
REMARK VINA RESULT:      -6.3      2.263      4.231
REMARK  Name = Tryptophan
REMARK  5 active torsions:
REMARK  status: ('A' for Active; 'I' for Inactive)
REMARK    1  A    between atoms: N_1  and  CA_2
REMARK    2  A    between atoms: CA_2  and  CB_3
REMARK    3  A    between atoms: CA_2  and  C_13
REMARK    4  A    between atoms: CB_3  and  CG_4
REMARK    5  A    between atoms: C_13  and  O_14
REMARK                            x       y       z     vdW  Elec       q    Type
REMARK                         _______ _______ _______ _____ _____    ______ ____
ROOT
ATOM      1  CG  TRP A   1      -9.709   6.601 130.983  0.00  0.00    +0.000 A 
ATOM      2  CD1 TRP A   1     -10.430   5.996 131.999  0.00  0.00    +0.000 A 
ATOM      3  NE1 TRP A   1     -11.752   6.324 131.852  0.00  0.00    +0.000 N 
ATOM      4  CE2 TRP A   1     -11.936   7.056 130.701  0.00  0.00    +0.000 A 
ATOM      5  CD2 TRP A   1     -10.674   7.276 130.148  0.00  0.00    +0.000 A 
ATOM      6  CE3 TRP A   1     -10.616   8.045 128.962  0.00  0.00    +0.000 A 
ATOM      7  CZ3 TRP A   1     -11.768   8.461 128.309  0.00  0.00    +0.000 A 
ATOM      8  CH2 TRP A   1     -13.001   8.231 128.888  0.00  0.00    +0.000 A 
ATOM      9  CZ2 TRP A   1     -13.108   7.556 130.112  0.00  0.00    +0.000 A 
ATOM     10  HE1 TRP A   1     -12.491   6.050 132.485  0.00  0.00    +0.000 HD
ENDROOT
BRANCH   1  11
ATOM     11  CB  TRP A   1      -8.207   6.520 130.844  0.00  0.00    +0.000 C 
BRANCH  11  12
ATOM     12  CA  TRP A   1      -7.674   5.208 130.258  0.00  0.00    +0.000 C 
BRANCH  12  13
ATOM     13  N   TRP A   1      -6.264   5.355 129.742  0.00  0.00    +0.000 NA
ATOM     14  H1  TRP A   1      -5.904   6.243 130.119  0.00  0.00    +0.000 HD
ATOM     15  H2  TRP A   1      -6.309   5.595 128.749  0.00  0.00    +0.000 HD
ENDBRANCH  12  13
BRANCH  12  16
ATOM     16  C   TRP A   1      -8.555   4.709 129.115  0.00  0.00    +0.000 C 
ATOM     17  OXT TRP A   1      -8.620   5.227 128.006  0.00  0.00    +0.000 OA
BRANCH  16  18
ATOM     18  O   TRP A   1      -9.296   3.629 129.471  0.00  0.00    +0.000 OA
ATOM     19  H   TRP A   1      -9.052   2.894 128.854  0.00  0.00    +0.000 HD
ENDBRANCH  16  18
ENDBRANCH  12  16
ENDBRANCH  11  12
ENDBRANCH   1  11
TORSDOF 5
ENDMDL
MODEL 6
REMARK VINA RESULT:      -6.2      8.132     10.084
REMARK  Name = Tryptophan
REMARK  5 active torsions:
REMARK  status: ('A' for Active; 'I' for Inactive)
REMARK    1  A    between atoms: N_1  and  CA_2
REMARK    2  A    between atoms: CA_2  and  CB_3
REMARK    3  A    between atoms: CA_2  and  C_13
REMARK    4  A    between atoms: CB_3  and  CG_4
REMARK    5  A    between atoms: C_13  and  O_14
REMARK                            x       y       z     vdW  Elec       q    Type
REMARK                         _______ _______ _______ _____ _____    ______ ____
ROOT
ATOM      1  CG  TRP A   1      -7.878   3.033 122.880  0.00  0.00    +0.000 A 
ATOM      2  CD1 TRP A   1      -6.537   3.135 123.211  0.00  0.00    +0.000 A 
ATOM      3  NE1 TRP A   1      -5.843   3.540 122.101  0.00  0.00    +0.000 N 
ATOM      4  CE2 TRP A   1      -6.711   3.803 121.066  0.00  0.00    +0.000 A 
ATOM      5  CD2 TRP A   1      -7.991   3.466 121.508  0.00  0.00    +0.000 A 
ATOM      6  CE3 TRP A   1      -9.053   3.626 120.587  0.00  0.00    +0.000 A 
ATOM      7  CZ3 TRP A   1      -8.853   4.205 119.341  0.00  0.00    +0.000 A 
ATOM      8  CH2 TRP A   1      -7.572   4.521 118.934  0.00  0.00    +0.000 A 
ATOM      9  CZ2 TRP A   1      -6.472   4.294 119.773  0.00  0.00    +0.000 A 
ATOM     10  HE1 TRP A   1      -4.839   3.651 122.054  0.00  0.00    +0.000 HD
ENDROOT
BRANCH   1  11
ATOM     11  CB  TRP A   1      -8.951   2.556 123.829  0.00  0.00    +0.000 C 
BRANCH  11  12
ATOM     12  CA  TRP A   1      -9.241   1.052 123.788  0.00  0.00    +0.000 C 
BRANCH  12  13
ATOM     13  N   TRP A   1     -10.475   0.738 122.980  0.00  0.00    +0.000 NA
ATOM     14  H1  TRP A   1     -10.991   0.015 123.501  0.00  0.00    +0.000 HD
ATOM     15  H2  TRP A   1     -10.193   0.193 122.162  0.00  0.00    +0.000 HD
ENDBRANCH  12  13
BRANCH  12  16
ATOM     16  C   TRP A   1      -9.426   0.481 125.193  0.00  0.00    +0.000 C 
ATOM     17  OXT TRP A   1      -9.624  -0.702 125.445  0.00  0.00    +0.000 OA
BRANCH  16  18
ATOM     18  O   TRP A   1      -9.378   1.443 126.149  0.00  0.00    +0.000 OA
ATOM     19  H   TRP A   1      -8.820   2.179 125.791  0.00  0.00    +0.000 HD
ENDBRANCH  16  18
ENDBRANCH  12  16
ENDBRANCH  11  12
ENDBRANCH   1  11
TORSDOF 5
ENDMDL
MODEL 7
REMARK VINA RESULT:      -6.1      8.325     10.334
REMARK  Name = Tryptophan
REMARK  5 active torsions:
REMARK  status: ('A' for Active; 'I' for Inactive)
REMARK    1  A    between atoms: N_1  and  CA_2
REMARK    2  A    between atoms: CA_2  and  CB_3
REMARK    3  A    between atoms: CA_2  and  C_13
REMARK    4  A    between atoms: CB_3  and  CG_4
REMARK    5  A    between atoms: C_13  and  O_14
REMARK                            x       y       z     vdW  Elec       q    Type
REMARK                         _______ _______ _______ _____ _____    ______ ____
ROOT
ATOM      1  CG  TRP A   1      -8.107   3.105 121.683  0.00  0.00    +0.000 A 
ATOM      2  CD1 TRP A   1      -9.216   3.201 120.858  0.00  0.00    +0.000 A 
ATOM      3  NE1 TRP A   1      -8.895   3.992 119.785  0.00  0.00    +0.000 N 
ATOM      4  CE2 TRP A   1      -7.565   4.343 119.834  0.00  0.00    +0.000 A 
ATOM      5  CD2 TRP A   1      -7.048   3.831 121.025  0.00  0.00    +0.000 A 
ATOM      6  CE3 TRP A   1      -5.688   4.101 121.304  0.00  0.00    +0.000 A 
ATOM      7  CZ3 TRP A   1      -4.870   4.741 120.383  0.00  0.00    +0.000 A 
ATOM      8  CH2 TRP A   1      -5.417   5.240 119.217  0.00  0.00    +0.000 A 
ATOM      9  CZ2 TRP A   1      -6.781   5.082 118.935  0.00  0.00    +0.000 A 
ATOM     10  HE1 TRP A   1      -9.536   4.261 119.052  0.00  0.00    +0.000 HD
ENDROOT
BRANCH   1  11
ATOM     11  CB  TRP A   1      -8.091   2.362 122.998  0.00  0.00    +0.000 C 
BRANCH  11  12
ATOM     12  CA  TRP A   1      -9.468   2.100 123.619  0.00  0.00    +0.000 C 
BRANCH  12  13
ATOM     13  N   TRP A   1      -9.512   2.493 125.074  0.00  0.00    +0.000 NA
ATOM     14  H1  TRP A   1      -9.189   1.675 125.609  0.00  0.00    +0.000 HD
ATOM     15  H2  TRP A   1     -10.491   2.516 125.370  0.00  0.00    +0.000 HD
ENDBRANCH  12  13
BRANCH  12  16
ATOM     16  C   TRP A   1      -9.858   0.627 123.505  0.00  0.00    +0.000 C 
ATOM     17  OXT TRP A   1      -9.466  -0.259 124.255  0.00  0.00    +0.000 OA
BRANCH  16  18
ATOM     18  O   TRP A   1     -10.678   0.393 122.449  0.00  0.00    +0.000 OA
ATOM     19  H   TRP A   1     -11.601   0.588 122.750  0.00  0.00    +0.000 HD
ENDBRANCH  16  18
ENDBRANCH  12  16
ENDBRANCH  11  12
ENDBRANCH   1  11
TORSDOF 5
ENDMDL
MODEL 8
REMARK VINA RESULT:      -5.9      2.514      4.836
REMARK  Name = Tryptophan
REMARK  5 active torsions:
REMARK  status: ('A' for Active; 'I' for Inactive)
REMARK    1  A    between atoms: N_1  and  CA_2
REMARK    2  A    between atoms: CA_2  and  CB_3
REMARK    3  A    between atoms: CA_2  and  C_13
REMARK    4  A    between atoms: CB_3  and  CG_4
REMARK    5  A    between atoms: C_13  and  O_14
REMARK                            x       y       z     vdW  Elec       q    Type
REMARK                         _______ _______ _______ _____ _____    ______ ____
ROOT
ATOM      1  CG  TRP A   1     -12.499   6.944 129.543  0.00  0.00    +0.000 A 
ATOM      2  CD1 TRP A   1     -12.773   6.657 128.216  0.00  0.00    +0.000 A 
ATOM      3  NE1 TRP A   1     -13.378   7.748 127.648  0.00  0.00    +0.000 N 
ATOM      4  CE2 TRP A   1     -13.423   8.788 128.548  0.00  0.00    +0.000 A 
ATOM      5  CD2 TRP A   1     -12.910   8.311 129.755  0.00  0.00    +0.000 A 
ATOM      6  CE3 TRP A   1     -12.889   9.211 130.846  0.00  0.00    +0.000 A 
ATOM      7  CZ3 TRP A   1     -13.248  10.544 130.695  0.00  0.00    +0.000 A 
ATOM      8  CH2 TRP A   1     -13.757  10.981 129.488  0.00  0.00    +0.000 A 
ATOM      9  CZ2 TRP A   1     -13.887  10.105 128.401  0.00  0.00    +0.000 A 
ATOM     10  HE1 TRP A   1     -13.723   7.791 126.699  0.00  0.00    +0.000 HD
ENDROOT
BRANCH   1  11
ATOM     11  CB  TRP A   1     -11.886   5.963 130.514  0.00  0.00    +0.000 C 
BRANCH  11  12
ATOM     12  CA  TRP A   1     -10.406   5.645 130.276  0.00  0.00    +0.000 C 
BRANCH  12  13
ATOM     13  N   TRP A   1      -9.994   4.355 130.940  0.00  0.00    +0.000 NA
ATOM     14  H1  TRP A   1     -10.811   3.730 130.898  0.00  0.00    +0.000 HD
ATOM     15  H2  TRP A   1      -9.950   4.514 131.949  0.00  0.00    +0.000 HD
ENDBRANCH  12  13
BRANCH  12  16
ATOM     16  C   TRP A   1      -9.505   6.763 130.796  0.00  0.00    +0.000 C 
ATOM     17  OXT TRP A   1      -9.119   6.867 131.955  0.00  0.00    +0.000 OA
BRANCH  16  18
ATOM     18  O   TRP A   1      -9.193   7.664 129.830  0.00  0.00    +0.000 OA
ATOM     19  H   TRP A   1      -9.380   7.232 128.960  0.00  0.00    +0.000 HD
ENDBRANCH  16  18
ENDBRANCH  12  16
ENDBRANCH  11  12
ENDBRANCH   1  11
TORSDOF 5
ENDMDL
MODEL 9
REMARK VINA RESULT:      -5.9     10.132     10.696
REMARK  Name = Tryptophan
REMARK  5 active torsions:
REMARK  status: ('A' for Active; 'I' for Inactive)
REMARK    1  A    between atoms: N_1  and  CA_2
REMARK    2  A    between atoms: CA_2  and  CB_3
REMARK    3  A    between atoms: CA_2  and  C_13
REMARK    4  A    between atoms: CB_3  and  CG_4
REMARK    5  A    between atoms: C_13  and  O_14
REMARK                            x       y       z     vdW  Elec       q    Type
REMARK                         _______ _______ _______ _____ _____    ______ ____
ROOT
ATOM      1  CG  TRP A   1      -7.020  -2.565 125.607  0.00  0.00    +0.000 A 
ATOM      2  CD1 TRP A   1      -5.793  -1.941 125.760  0.00  0.00    +0.000 A 
ATOM      3  NE1 TRP A   1      -5.557  -1.765 127.099  0.00  0.00    +0.000 N 
ATOM      4  CE2 TRP A   1      -6.559  -2.348 127.839  0.00  0.00    +0.000 A 
ATOM      5  CD2 TRP A   1      -7.509  -2.831 126.939  0.00  0.00    +0.000 A 
ATOM      6  CE3 TRP A   1      -8.658  -3.449 127.484  0.00  0.00    +0.000 A 
ATOM      7  CZ3 TRP A   1      -8.783  -3.675 128.848  0.00  0.00    +0.000 A 
ATOM      8  CH2 TRP A   1      -7.827  -3.178 129.712  0.00  0.00    +0.000 A 
ATOM      9  CZ2 TRP A   1      -6.714  -2.475 129.229  0.00  0.00    +0.000 A 
ATOM     10  HE1 TRP A   1      -4.751  -1.294 127.488  0.00  0.00    +0.000 HD
ENDROOT
BRANCH   1  11
ATOM     11  CB  TRP A   1      -7.653  -2.874 124.271  0.00  0.00    +0.000 C 
BRANCH  11  12
ATOM     12  CA  TRP A   1      -9.056  -2.294 124.061  0.00  0.00    +0.000 C 
BRANCH  12  13
ATOM     13  N   TRP A   1      -9.976  -3.278 123.383  0.00  0.00    +0.000 NA
ATOM     14  H1  TRP A   1     -10.056  -4.088 124.013  0.00  0.00    +0.000 HD
ATOM     15  H2  TRP A   1      -9.467  -3.712 122.609  0.00  0.00    +0.000 HD
ENDBRANCH  12  13
BRANCH  12  16
ATOM     16  C   TRP A   1      -9.012  -1.019 123.221  0.00  0.00    +0.000 C 
ATOM     17  OXT TRP A   1      -8.053  -0.257 123.158  0.00  0.00    +0.000 OA
BRANCH  16  18
ATOM     18  O   TRP A   1     -10.177  -0.796 122.563  0.00  0.00    +0.000 OA
ATOM     19  H   TRP A   1     -10.406   0.158 122.693  0.00  0.00    +0.000 HD
ENDBRANCH  16  18
ENDBRANCH  12  16
ENDBRANCH  11  12
ENDBRANCH   1  11
TORSDOF 5
ENDMDL
