MODEL 1
REMARK VINA RESULT:     -10.1      0.000      0.000
REMARK  Name = Tubocurarine
REMARK  9 active torsions:
REMARK  status: ('A' for Active; 'I' for Inactive)
REMARK    1  A    between atoms: N_14  and  C_15
REMARK    2  A    between atoms: N_14  and  C_16
REMARK    3  A    between atoms: C_25  and  O_26
REMARK    4  A    between atoms: O_26  and  C_27
REMARK    5  A    between atoms: N_32  and  C_33
REMARK    6  A    between atoms: C_36  and  O_37
REMARK    7  A    between atoms: C_41  and  O_42
REMARK    8  A    between atoms: O_42  and  C_43
REMARK    9  A    between atoms: C_44  and  O_45
REMARK                            x       y       z     vdW  Elec       q    Type
REMARK                         _______ _______ _______ _____ _____    ______ ____
ROOT
ATOM      1  C   UNL     1      -9.410   1.596 131.639  0.00  0.00    +0.000 C 
ATOM      2  C   UNL     1      -9.082   3.159 132.116  0.00  0.00    +0.000 C 
ATOM      3  C   UNL     1      -7.626   3.661 132.559  0.00  0.00    +0.000 A 
ATOM      4  C   UNL     1      -6.772   2.986 133.488  0.00  0.00    +0.000 A 
ATOM      5  C   UNL     1      -5.406   2.780 133.280  0.00  0.00    +0.000 A 
ATOM      6  C   UNL     1      -4.772   3.857 132.769  0.00  0.00    +0.000 A 
ATOM      7  O   UNL     1      -3.410   3.700 132.551  0.00  0.00    +0.000 OA
ATOM      8  C   UNL     1      -2.710   4.714 131.929  0.00  0.00    +0.000 A 
ATOM      9  C   UNL     1      -2.752   4.896 130.534  0.00  0.00    +0.000 A 
ATOM     10  C   UNL     1      -2.142   5.985 129.921  0.00  0.00    +0.000 A 
ATOM     11  C   UNL     1      -2.297   6.218 128.436  0.00  0.00    +0.000 C 
ATOM     12  C   UNL     1      -3.487   5.455 127.794  0.00  0.00    +0.000 C 
ATOM     13  N   UNL     1      -3.333   3.931 128.215  0.00  0.00    +0.000 N 
ATOM     14  C   UNL     1      -2.263   3.435 127.323  0.00  0.00    +0.000 C 
ATOM     15  C   UNL     1      -4.113   2.647 127.952  0.00  0.00    +0.000 C 
ATOM     16  C   UNL     1      -3.550   3.978 129.707  0.00  0.00    +0.000 C 
ATOM     17  C   UNL     1      -5.004   4.425 129.870  0.00  0.00    +0.000 C 
ATOM     18  C   UNL     1      -6.087   3.719 129.234  0.00  0.00    +0.000 A 
ATOM     19  C   UNL     1      -6.289   4.071 127.945  0.00  0.00    +0.000 A 
ATOM     20  C   UNL     1      -7.581   3.075 127.127  0.00  0.00    +0.000 A 
ATOM     21  O   UNL     1      -8.389   4.061 127.062  0.00  0.00    +0.000 OA
ATOM     22  C   UNL     1      -7.938   3.056 128.030  0.00  0.00    +0.000 A 
ATOM     23  C   UNL     1      -6.570   1.655 127.559  0.00  0.00    +0.000 A 
ATOM     24  C   UNL     1      -6.311   0.229 128.581  0.00  0.00    +0.000 A 
ATOM     25  C   UNL     1      -7.300   0.284 130.087  0.00  0.00    +0.000 A 
ATOM     26  C   UNL     1      -7.490  -1.028 130.733  0.00  0.00    +0.000 C 
ATOM     27  C   UNL     1      -8.760  -0.862 131.577  0.00  0.00    +0.000 C 
ATOM     28  N   UNL     1      -8.900   0.381 132.339  0.00  0.00    +0.000 NA
ATOM     29  C   UNL     1      -7.534   0.644 132.705  0.00  0.00    +0.000 C 
ATOM     30  C   UNL     1      -8.551   1.652 130.505  0.00  0.00    +0.000 A 
ATOM     31  C   UNL     1      -8.927   3.044 129.409  0.00  0.00    +0.000 A 
ATOM     32  C   UNL     1      -8.614   1.485 127.346  0.00  0.00    +0.000 A 
ATOM     33  C   UNL     1      -8.152   1.283 128.627  0.00  0.00    +0.000 A 
ATOM     34  C   UNL     1      -6.811   2.396 129.589  0.00  0.00    +0.000 A 
ATOM     35  C   UNL     1      -1.349   6.823 130.701  0.00  0.00    +0.000 A 
ATOM     36  C   UNL     1      -1.220   6.615 132.078  0.00  0.00    +0.000 A 
ATOM     37  C   UNL     1      -1.896   5.541 132.682  0.00  0.00    +0.000 A 
ATOM     38  C   UNL     1      -5.611   4.942 132.338  0.00  0.00    +0.000 A 
ATOM     39  C   UNL     1      -6.988   4.716 131.963  0.00  0.00    +0.000 A 
ENDROOT
BRANCH  23  40
ATOM     40  O   UNL     1      -6.241   1.461 125.987  0.00  0.00    +0.000 OA
ATOM     41  C   UNL     1      -5.387   0.291 125.870  0.00  0.00    +0.000 C 
ENDBRANCH  23  40
BRANCH  32  42
ATOM     42  O   UNL     1      -8.616   0.178 126.887  0.00  0.00    +0.000 OA
ATOM     43  H   UNL     1      -7.788  -0.204 127.182  0.00  0.00    +0.000 HD
ENDBRANCH  32  42
BRANCH  36  44
ATOM     44  O   UNL     1      -0.401   7.347 132.892  0.00  0.00    +0.000 OA
ATOM     45  C   UNL     1      -0.796   8.668 133.276  0.00  0.00    +0.000 C 
ENDBRANCH  36  44
BRANCH  37  46
ATOM     46  O   UNL     1      -1.780   5.290 134.020  0.00  0.00    +0.000 OA
ATOM     47  H   UNL     1      -0.991   4.730 134.135  0.00  0.00    +0.000 HD
ENDBRANCH  37  46
TORSDOF 4
ENDMDL
MODEL 2
REMARK VINA RESULT:      -9.9      1.883      6.513
REMARK  Name = Tubocurarine
REMARK  9 active torsions:
REMARK  status: ('A' for Active; 'I' for Inactive)
REMARK    1  A    between atoms: N_14  and  C_15
REMARK    2  A    between atoms: N_14  and  C_16
REMARK    3  A    between atoms: C_25  and  O_26
REMARK    4  A    between atoms: O_26  and  C_27
REMARK    5  A    between atoms: N_32  and  C_33
REMARK    6  A    between atoms: C_36  and  O_37
REMARK    7  A    between atoms: C_41  and  O_42
REMARK    8  A    between atoms: O_42  and  C_43
REMARK    9  A    between atoms: C_44  and  O_45
REMARK                            x       y       z     vdW  Elec       q    Type
REMARK                         _______ _______ _______ _____ _____    ______ ____
ROOT
ATOM      1  C   UNL     1      -8.159   2.663 133.819  0.00  0.00    +0.000 C 
ATOM      2  C   UNL     1      -8.256   1.584 132.553  0.00  0.00    +0.000 C 
ATOM      3  C   UNL     1      -8.449   2.027 131.026  0.00  0.00    +0.000 A 
ATOM      4  C   UNL     1      -9.422   2.968 130.560  0.00  0.00    +0.000 A 
ATOM      5  C   UNL     1      -9.142   3.987 129.646  0.00  0.00    +0.000 A 
ATOM      6  C   UNL     1      -8.357   3.591 128.622  0.00  0.00    +0.000 A 
ATOM      7  O   UNL     1      -8.057   4.572 127.686  0.00  0.00    +0.000 OA
ATOM      8  C   UNL     1      -7.171   4.278 126.670  0.00  0.00    +0.000 A 
ATOM      9  C   UNL     1      -5.780   4.273 126.878  0.00  0.00    +0.000 A 
ATOM     10  C   UNL     1      -4.894   3.865 125.886  0.00  0.00    +0.000 A 
ATOM     11  C   UNL     1      -3.413   3.763 126.172  0.00  0.00    +0.000 C 
ATOM     12  C   UNL     1      -3.060   3.710 127.682  0.00  0.00    +0.000 C 
ATOM     13  N   UNL     1      -3.784   4.948 128.365  0.00  0.00    +0.000 N 
ATOM     14  C   UNL     1      -2.929   6.095 127.992  0.00  0.00    +0.000 C 
ATOM     15  C   UNL     1      -3.874   5.508 129.780  0.00  0.00    +0.000 C 
ATOM     16  C   UNL     1      -5.244   4.603 128.208  0.00  0.00    +0.000 C 
ATOM     17  C   UNL     1      -5.436   3.346 129.058  0.00  0.00    +0.000 C 
ATOM     18  C   UNL     1      -5.067   3.313 130.450  0.00  0.00    +0.000 A 
ATOM     19  C   UNL     1      -3.755   3.065 130.664  0.00  0.00    +0.000 A 
ATOM     20  C   UNL     1      -3.289   3.152 132.426  0.00  0.00    +0.000 A 
ATOM     21  O   UNL     1      -3.086   1.894 132.500  0.00  0.00    +0.000 OA
ATOM     22  C   UNL     1      -4.204   2.843 132.536  0.00  0.00    +0.000 A 
ATOM     23  C   UNL     1      -3.926   4.832 132.371  0.00  0.00    +0.000 A 
ATOM     24  C   UNL     1      -5.204   5.986 132.793  0.00  0.00    +0.000 A 
ATOM     25  C   UNL     1      -6.745   5.162 133.237  0.00  0.00    +0.000 A 
ATOM     26  C   UNL     1      -7.673   5.998 134.021  0.00  0.00    +0.000 C 
ATOM     27  C   UNL     1      -8.570   4.993 134.753  0.00  0.00    +0.000 C 
ATOM     28  N   UNL     1      -9.056   3.844 133.985  0.00  0.00    +0.000 NA
ATOM     29  C   UNL     1      -9.234   4.429 132.683  0.00  0.00    +0.000 C 
ATOM     30  C   UNL     1      -6.968   3.277 133.338  0.00  0.00    +0.000 A 
ATOM     31  C   UNL     1      -5.635   2.087 133.043  0.00  0.00    +0.000 A 
ATOM     32  C   UNL     1      -3.937   3.741 134.122  0.00  0.00    +0.000 A 
ATOM     33  C   UNL     1      -5.185   4.031 133.618  0.00  0.00    +0.000 A 
ATOM     34  C   UNL     1      -5.762   3.865 131.720  0.00  0.00    +0.000 A 
ATOM     35  C   UNL     1      -5.401   3.602 124.616  0.00  0.00    +0.000 A 
ATOM     36  C   UNL     1      -6.773   3.681 124.359  0.00  0.00    +0.000 A 
ATOM     37  C   UNL     1      -7.653   4.039 125.395  0.00  0.00    +0.000 A 
ATOM     38  C   UNL     1      -7.779   2.281 128.737  0.00  0.00    +0.000 A 
ATOM     39  C   UNL     1      -7.586   1.661 130.028  0.00  0.00    +0.000 A 
ENDROOT
BRANCH  23  40
ATOM     40  O   UNL     1      -2.409   5.369 132.543  0.00  0.00    +0.000 OA
ATOM     41  C   UNL     1      -2.465   6.821 132.516  0.00  0.00    +0.000 C 
ENDBRANCH  23  40
BRANCH  32  42
ATOM     42  O   UNL     1      -3.773   4.818 134.979  0.00  0.00    +0.000 OA
ATOM     43  H   UNL     1      -4.459   5.445 134.745  0.00  0.00    +0.000 HD
ENDBRANCH  32  42
BRANCH  36  44
ATOM     44  O   UNL     1      -7.334   3.512 123.122  0.00  0.00    +0.000 OA
ATOM     45  C   UNL     1      -6.490   3.505 121.967  0.00  0.00    +0.000 C 
ENDBRANCH  36  44
BRANCH  37  46
ATOM     46  O   UNL     1      -8.997   4.149 125.180  0.00  0.00    +0.000 OA
ATOM     47  H   UNL     1      -9.295   4.943 125.657  0.00  0.00    +0.000 HD
ENDBRANCH  37  46
TORSDOF 4
ENDMDL
MODEL 3
REMARK VINA RESULT:      -9.9      2.652      8.110
REMARK  Name = Tubocurarine
REMARK  9 active torsions:
REMARK  status: ('A' for Active; 'I' for Inactive)
REMARK    1  A    between atoms: N_14  and  C_15
REMARK    2  A    between atoms: N_14  and  C_16
REMARK    3  A    between atoms: C_25  and  O_26
REMARK    4  A    between atoms: O_26  and  C_27
REMARK    5  A    between atoms: N_32  and  C_33
REMARK    6  A    between atoms: C_36  and  O_37
REMARK    7  A    between atoms: C_41  and  O_42
REMARK    8  A    between atoms: O_42  and  C_43
REMARK    9  A    between atoms: C_44  and  O_45
REMARK                            x       y       z     vdW  Elec       q    Type
REMARK                         _______ _______ _______ _____ _____    ______ ____
ROOT
ATOM      1  C   UNL     1      -6.569   5.198 129.991  0.00  0.00    +0.000 C 
ATOM      2  C   UNL     1      -7.873   4.662 129.102  0.00  0.00    +0.000 C 
ATOM      3  C   UNL     1      -7.766   3.540 127.964  0.00  0.00    +0.000 A 
ATOM      4  C   UNL     1      -6.790   3.522 126.917  0.00  0.00    +0.000 A 
ATOM      5  C   UNL     1      -6.082   2.380 126.534  0.00  0.00    +0.000 A 
ATOM      6  C   UNL     1      -6.846   1.269 126.471  0.00  0.00    +0.000 A 
ATOM      7  O   UNL     1      -6.184   0.110 126.089  0.00  0.00    +0.000 OA
ATOM      8  C   UNL     1      -6.869  -1.088 126.106  0.00  0.00    +0.000 A 
ATOM      9  C   UNL     1      -7.091  -1.797 127.302  0.00  0.00    +0.000 A 
ATOM     10  C   UNL     1      -7.878  -2.943 127.336  0.00  0.00    +0.000 A 
ATOM     11  C   UNL     1      -8.192  -3.621 128.649  0.00  0.00    +0.000 C 
ATOM     12  C   UNL     1      -7.962  -2.728 129.897  0.00  0.00    +0.000 C 
ATOM     13  N   UNL     1      -6.485  -2.155 129.782  0.00  0.00    +0.000 N 
ATOM     14  C   UNL     1      -5.640  -3.299 130.187  0.00  0.00    +0.000 C 
ATOM     15  C   UNL     1      -5.606  -1.239 130.628  0.00  0.00    +0.000 C 
ATOM     16  C   UNL     1      -6.571  -1.262 128.569  0.00  0.00    +0.000 C 
ATOM     17  C   UNL     1      -7.537  -0.149 128.979  0.00  0.00    +0.000 C 
ATOM     18  C   UNL     1      -7.318   0.643 130.163  0.00  0.00    +0.000 A 
ATOM     19  C   UNL     1      -7.755   0.061 131.302  0.00  0.00    +0.000 A 
ATOM     20  C   UNL     1      -7.353   1.026 132.797  0.00  0.00    +0.000 A 
ATOM     21  O   UNL     1      -8.575   1.331 133.006  0.00  0.00    +0.000 OA
ATOM     22  C   UNL     1      -7.449   1.764 132.173  0.00  0.00    +0.000 A 
ATOM     23  C   UNL     1      -5.643   0.877 132.270  0.00  0.00    +0.000 A 
ATOM     24  C   UNL     1      -4.199   1.628 131.564  0.00  0.00    +0.000 A 
ATOM     25  C   UNL     1      -4.589   3.151 130.681  0.00  0.00    +0.000 A 
ATOM     26  C   UNL     1      -3.433   4.044 130.478  0.00  0.00    +0.000 C 
ATOM     27  C   UNL     1      -4.052   5.433 130.273  0.00  0.00    +0.000 C 
ATOM     28  N   UNL     1      -5.232   5.519 129.411  0.00  0.00    +0.000 NA
ATOM     29  C   UNL     1      -4.942   4.509 128.429  0.00  0.00    +0.000 C 
ATOM     30  C   UNL     1      -6.321   3.927 130.585  0.00  0.00    +0.000 A 
ATOM     31  C   UNL     1      -7.780   3.245 131.414  0.00  0.00    +0.000 A 
ATOM     32  C   UNL     1      -6.276   2.482 133.400  0.00  0.00    +0.000 A 
ATOM     33  C   UNL     1      -5.878   2.801 132.121  0.00  0.00    +0.000 A 
ATOM     34  C   UNL     1      -6.365   1.830 130.453  0.00  0.00    +0.000 A 
ATOM     35  C   UNL     1      -8.326  -3.472 126.128  0.00  0.00    +0.000 A 
ATOM     36  C   UNL     1      -8.048  -2.833 124.915  0.00  0.00    +0.000 A 
ATOM     37  C   UNL     1      -7.300  -1.644 124.915  0.00  0.00    +0.000 A 
ATOM     38  C   UNL     1      -8.181   1.387 126.992  0.00  0.00    +0.000 A 
ATOM     39  C   UNL     1      -8.511   2.391 127.977  0.00  0.00    +0.000 A 
ENDROOT
BRANCH  23  40
ATOM     40  O   UNL     1      -5.380  -0.098 133.534  0.00  0.00    +0.000 OA
ATOM     41  C   UNL     1      -3.987  -0.507 133.475  0.00  0.00    +0.000 C 
ENDBRANCH  23  40
BRANCH  32  42
ATOM     42  O   UNL     1      -5.082   2.679 134.075  0.00  0.00    +0.000 OA
ATOM     43  H   UNL     1      -4.522   3.174 133.476  0.00  0.00    +0.000 HD
ENDBRANCH  32  42
BRANCH  36  44
ATOM     44  O   UNL     1      -8.388  -3.333 123.688  0.00  0.00    +0.000 OA
ATOM     45  C   UNL     1      -9.763  -3.333 123.290  0.00  0.00    +0.000 C 
ENDBRANCH  36  44
BRANCH  37  46
ATOM     46  O   UNL     1      -6.988  -1.001 123.751  0.00  0.00    +0.000 OA
ATOM     47  H   UNL     1      -7.706  -1.191 123.122  0.00  0.00    +0.000 HD
ENDBRANCH  37  46
TORSDOF 4
ENDMDL
MODEL 4
REMARK VINA RESULT:      -9.9      3.716      7.056
REMARK  Name = Tubocurarine
REMARK  9 active torsions:
REMARK  status: ('A' for Active; 'I' for Inactive)
REMARK    1  A    between atoms: N_14  and  C_15
REMARK    2  A    between atoms: N_14  and  C_16
REMARK    3  A    between atoms: C_25  and  O_26
REMARK    4  A    between atoms: O_26  and  C_27
REMARK    5  A    between atoms: N_32  and  C_33
REMARK    6  A    between atoms: C_36  and  O_37
REMARK    7  A    between atoms: C_41  and  O_42
REMARK    8  A    between atoms: O_42  and  C_43
REMARK    9  A    between atoms: C_44  and  O_45
REMARK                            x       y       z     vdW  Elec       q    Type
REMARK                         _______ _______ _______ _____ _____    ______ ____
ROOT
ATOM      1  C   UNL     1      -6.974   1.430 132.872  0.00  0.00    +0.000 C 
ATOM      2  C   UNL     1      -8.346   1.800 132.001  0.00  0.00    +0.000 C 
ATOM      3  C   UNL     1      -8.315   2.397 130.515  0.00  0.00    +0.000 A 
ATOM      4  C   UNL     1      -7.505   3.498 130.088  0.00  0.00    +0.000 A 
ATOM      5  C   UNL     1      -6.769   3.507 128.901  0.00  0.00    +0.000 A 
ATOM      6  C   UNL     1      -7.441   2.993 127.848  0.00  0.00    +0.000 A 
ATOM      7  O   UNL     1      -6.749   2.987 126.644  0.00  0.00    +0.000 OA
ATOM      8  C   UNL     1      -7.322   2.380 125.546  0.00  0.00    +0.000 A 
ATOM      9  C   UNL     1      -7.307   0.982 125.381  0.00  0.00    +0.000 A 
ATOM     10  C   UNL     1      -7.984   0.363 124.335  0.00  0.00    +0.000 A 
ATOM     11  C   UNL     1      -8.046  -1.144 124.244  0.00  0.00    +0.000 C 
ATOM     12  C   UNL     1      -7.709  -1.875 125.571  0.00  0.00    +0.000 C 
ATOM     13  N   UNL     1      -6.317  -1.296 126.071  0.00  0.00    +0.000 N 
ATOM     14  C   UNL     1      -5.331  -1.975 125.204  0.00  0.00    +0.000 C 
ATOM     15  C   UNL     1      -5.402  -1.547 127.265  0.00  0.00    +0.000 C 
ATOM     16  C   UNL     1      -6.653   0.139 126.393  0.00  0.00    +0.000 C 
ATOM     17  C   UNL     1      -7.637   0.051 127.561  0.00  0.00    +0.000 C 
ATOM     18  C   UNL     1      -7.312  -0.664 128.769  0.00  0.00    +0.000 A 
ATOM     19  C   UNL     1      -7.529  -1.997 128.693  0.00  0.00    +0.000 A 
ATOM     20  C   UNL     1      -6.993  -2.894 130.188  0.00  0.00    +0.000 A 
ATOM     21  O   UNL     1      -8.192  -3.165 130.533  0.00  0.00    +0.000 OA
ATOM     22  C   UNL     1      -7.239  -2.053 130.608  0.00  0.00    +0.000 A 
ATOM     23  C   UNL     1      -5.372  -2.191 129.865  0.00  0.00    +0.000 A 
ATOM     24  C   UNL     1      -4.114  -1.014 130.288  0.00  0.00    +0.000 A 
ATOM     25  C   UNL     1      -4.753   0.324 131.313  0.00  0.00    +0.000 A 
ATOM     26  C   UNL     1      -3.717   1.056 132.065  0.00  0.00    +0.000 C 
ATOM     27  C   UNL     1      -4.471   1.690 133.241  0.00  0.00    +0.000 C 
ATOM     28  N   UNL     1      -5.768   2.305 132.951  0.00  0.00    +0.000 NA
ATOM     29  C   UNL     1      -5.543   2.837 131.634  0.00  0.00    +0.000 C 
ATOM     30  C   UNL     1      -6.539   0.430 131.957  0.00  0.00    +0.000 A 
ATOM     31  C   UNL     1      -7.799  -0.834 131.647  0.00  0.00    +0.000 A 
ATOM     32  C   UNL     1      -5.962  -2.677 131.780  0.00  0.00    +0.000 A 
ATOM     33  C   UNL     1      -5.783  -1.330 131.559  0.00  0.00    +0.000 A 
ATOM     34  C   UNL     1      -6.429  -0.294 129.987  0.00  0.00    +0.000 A 
ATOM     35  C   UNL     1      -8.560   1.167 123.354  0.00  0.00    +0.000 A 
ATOM     36  C   UNL     1      -8.516   2.561 123.449  0.00  0.00    +0.000 A 
ATOM     37  C   UNL     1      -7.876   3.161 124.547  0.00  0.00    +0.000 A 
ATOM     38  C   UNL     1      -8.689   2.348 128.147  0.00  0.00    +0.000 A 
ATOM     39  C   UNL     1      -8.953   1.803 129.459  0.00  0.00    +0.000 A 
ENDROOT
BRANCH  23  40
ATOM     40  O   UNL     1      -4.847  -3.675 129.492  0.00  0.00    +0.000 OA
ATOM     41  C   UNL     1      -3.435  -3.560 129.167  0.00  0.00    +0.000 C 
ENDBRANCH  23  40
BRANCH  32  42
ATOM     42  O   UNL     1      -4.703  -3.007 132.254  0.00  0.00    +0.000 OA
ATOM     43  H   UNL     1      -4.823  -3.790 132.793  0.00  0.00    +0.000 HD
ENDBRANCH  32  42
BRANCH  36  44
ATOM     44  O   UNL     1      -8.990   3.412 122.488  0.00  0.00    +0.000 OA
ATOM     45  C   UNL     1      -8.343   3.456 121.213  0.00  0.00    +0.000 C 
ENDBRANCH  36  44
BRANCH  37  46
ATOM     46  O   UNL     1      -7.792   4.519 124.667  0.00  0.00    +0.000 OA
ATOM     47  H   UNL     1      -7.094   4.814 124.055  0.00  0.00    +0.000 HD
ENDBRANCH  37  46
TORSDOF 4
ENDMDL
MODEL 5
REMARK VINA RESULT:      -9.8      3.300      6.077
REMARK  Name = Tubocurarine
REMARK  9 active torsions:
REMARK  status: ('A' for Active; 'I' for Inactive)
REMARK    1  A    between atoms: N_14  and  C_15
REMARK    2  A    between atoms: N_14  and  C_16
REMARK    3  A    between atoms: C_25  and  O_26
REMARK    4  A    between atoms: O_26  and  C_27
REMARK    5  A    between atoms: N_32  and  C_33
REMARK    6  A    between atoms: C_36  and  O_37
REMARK    7  A    between atoms: C_41  and  O_42
REMARK    8  A    between atoms: O_42  and  C_43
REMARK    9  A    between atoms: C_44  and  O_45
REMARK                            x       y       z     vdW  Elec       q    Type
REMARK                         _______ _______ _______ _____ _____    ______ ____
ROOT
ATOM      1  C   UNL     1      -6.463  -2.593 126.539  0.00  0.00    +0.000 C 
ATOM      2  C   UNL     1      -5.564  -1.222 126.241  0.00  0.00    +0.000 C 
ATOM      3  C   UNL     1      -5.925   0.220 126.838  0.00  0.00    +0.000 A 
ATOM      4  C   UNL     1      -7.223   0.822 126.803  0.00  0.00    +0.000 A 
ATOM      5  C   UNL     1      -7.811   1.466 127.895  0.00  0.00    +0.000 A 
ATOM      6  C   UNL     1      -6.955   2.255 128.578  0.00  0.00    +0.000 A 
ATOM      7  O   UNL     1      -7.499   2.920 129.669  0.00  0.00    +0.000 OA
ATOM      8  C   UNL     1      -6.666   3.659 130.485  0.00  0.00    +0.000 A 
ATOM      9  C   UNL     1      -5.853   3.051 131.460  0.00  0.00    +0.000 A 
ATOM     10  C   UNL     1      -4.931   3.781 132.201  0.00  0.00    +0.000 A 
ATOM     11  C   UNL     1      -3.993   3.087 133.161  0.00  0.00    +0.000 C 
ATOM     12  C   UNL     1      -3.848   1.561 132.916  0.00  0.00    +0.000 C 
ATOM     13  N   UNL     1      -5.319   0.963 132.876  0.00  0.00    +0.000 N 
ATOM     14  C   UNL     1      -5.707   0.909 134.302  0.00  0.00    +0.000 C 
ATOM     15  C   UNL     1      -5.923  -0.424 132.685  0.00  0.00    +0.000 C 
ATOM     16  C   UNL     1      -5.896   1.591 131.631  0.00  0.00    +0.000 C 
ATOM     17  C   UNL     1      -5.060   1.012 130.487  0.00  0.00    +0.000 C 
ATOM     18  C   UNL     1      -4.914  -0.410 130.303  0.00  0.00    +0.000 A 
ATOM     19  C   UNL     1      -3.954  -0.967 131.075  0.00  0.00    +0.000 A 
ATOM     20  C   UNL     1      -3.874  -2.782 130.916  0.00  0.00    +0.000 A 
ATOM     21  O   UNL     1      -2.749  -2.744 130.314  0.00  0.00    +0.000 OA
ATOM     22  C   UNL     1      -4.175  -2.574 130.016  0.00  0.00    +0.000 A 
ATOM     23  C   UNL     1      -5.595  -2.768 131.432  0.00  0.00    +0.000 A 
ATOM     24  C   UNL     1      -7.309  -2.944 131.010  0.00  0.00    +0.000 A 
ATOM     25  C   UNL     1      -7.591  -2.797 129.236  0.00  0.00    +0.000 A 
ATOM     26  C   UNL     1      -8.867  -3.376 128.777  0.00  0.00    +0.000 C 
ATOM     27  C   UNL     1      -8.643  -3.668 127.288  0.00  0.00    +0.000 C 
ATOM     28  N   UNL     1      -7.954  -2.643 126.500  0.00  0.00    +0.000 NA
ATOM     29  C   UNL     1      -8.436  -1.438 127.119  0.00  0.00    +0.000 C 
ATOM     30  C   UNL     1      -6.216  -2.574 127.942  0.00  0.00    +0.000 A 
ATOM     31  C   UNL     1      -4.451  -2.529 128.342  0.00  0.00    +0.000 A 
ATOM     32  C   UNL     1      -4.851  -4.274 130.235  0.00  0.00    +0.000 A 
ATOM     33  C   UNL     1      -5.787  -3.467 129.627  0.00  0.00    +0.000 A 
ATOM     34  C   UNL     1      -5.859  -1.479 129.700  0.00  0.00    +0.000 A 
ATOM     35  C   UNL     1      -4.929   5.168 132.071  0.00  0.00    +0.000 A 
ATOM     36  C   UNL     1      -5.787   5.807 131.169  0.00  0.00    +0.000 A 
ATOM     37  C   UNL     1      -6.668   5.039 130.389  0.00  0.00    +0.000 A 
ATOM     38  C   UNL     1      -5.569   2.152 128.214  0.00  0.00    +0.000 A 
ATOM     39  C   UNL     1      -5.049   0.957 127.589  0.00  0.00    +0.000 A 
ENDROOT
BRANCH  23  40
ATOM     40  O   UNL     1      -5.141  -3.451 132.826  0.00  0.00    +0.000 OA
ATOM     41  C   UNL     1      -6.344  -3.643 133.619  0.00  0.00    +0.000 C 
ENDBRANCH  23  40
BRANCH  32  42
ATOM     42  O   UNL     1      -5.680  -5.277 130.711  0.00  0.00    +0.000 OA
ATOM     43  H   UNL     1      -5.339  -5.509 131.576  0.00  0.00    +0.000 HD
ENDBRANCH  32  42
BRANCH  36  44
ATOM     44  O   UNL     1      -5.895   7.165 131.043  0.00  0.00    +0.000 OA
ATOM     45  C   UNL     1      -4.850   7.891 130.388  0.00  0.00    +0.000 C 
ENDBRANCH  36  44
BRANCH  37  46
ATOM     46  O   UNL     1      -7.537   5.626 129.513  0.00  0.00    +0.000 OA
ATOM     47  H   UNL     1      -8.430   5.322 129.756  0.00  0.00    +0.000 HD
ENDBRANCH  37  46
TORSDOF 4
ENDMDL
MODEL 6
REMARK VINA RESULT:      -9.4      2.931      6.180
REMARK  Name = Tubocurarine
REMARK  9 active torsions:
REMARK  status: ('A' for Active; 'I' for Inactive)
REMARK    1  A    between atoms: N_14  and  C_15
REMARK    2  A    between atoms: N_14  and  C_16
REMARK    3  A    between atoms: C_25  and  O_26
REMARK    4  A    between atoms: O_26  and  C_27
REMARK    5  A    between atoms: N_32  and  C_33
REMARK    6  A    between atoms: C_36  and  O_37
REMARK    7  A    between atoms: C_41  and  O_42
REMARK    8  A    between atoms: O_42  and  C_43
REMARK    9  A    between atoms: C_44  and  O_45
REMARK                            x       y       z     vdW  Elec       q    Type
REMARK                         _______ _______ _______ _____ _____    ______ ____
ROOT
ATOM      1  C   UNL     1      -7.541   1.851 123.102  0.00  0.00    +0.000 C 
ATOM      2  C   UNL     1      -6.077   2.401 123.679  0.00  0.00    +0.000 C 
ATOM      3  C   UNL     1      -5.856   2.920 125.178  0.00  0.00    +0.000 A 
ATOM      4  C   UNL     1      -6.702   3.855 125.857  0.00  0.00    +0.000 A 
ATOM      5  C   UNL     1      -7.140   3.692 127.173  0.00  0.00    +0.000 A 
ATOM      6  C   UNL     1      -6.177   3.249 128.010  0.00  0.00    +0.000 A 
ATOM      7  O   UNL     1      -6.567   3.079 129.332  0.00  0.00    +0.000 OA
ATOM      8  C   UNL     1      -5.674   2.525 130.226  0.00  0.00    +0.000 A 
ATOM      9  C   UNL     1      -5.443   1.138 130.280  0.00  0.00    +0.000 A 
ATOM     10  C   UNL     1      -4.461   0.592 131.100  0.00  0.00    +0.000 A 
ATOM     11  C   UNL     1      -4.157  -0.887 131.056  0.00  0.00    +0.000 C 
ATOM     12  C   UNL     1      -4.675  -1.605 129.781  0.00  0.00    +0.000 C 
ATOM     13  N   UNL     1      -6.215  -1.239 129.645  0.00  0.00    +0.000 N 
ATOM     14  C   UNL     1      -6.865  -2.106 130.650  0.00  0.00    +0.000 C 
ATOM     15  C   UNL     1      -7.331  -1.583 128.664  0.00  0.00    +0.000 C 
ATOM     16  C   UNL     1      -6.178   0.245 129.372  0.00  0.00    +0.000 C 
ATOM     17  C   UNL     1      -5.485   0.368 128.014  0.00  0.00    +0.000 C 
ATOM     18  C   UNL     1      -5.967  -0.337 126.853  0.00  0.00    +0.000 A 
ATOM     19  C   UNL     1      -5.544  -1.619 126.775  0.00  0.00    +0.000 A 
ATOM     20  C   UNL     1      -6.267  -2.525 125.367  0.00  0.00    +0.000 A 
ATOM     21  O   UNL     1      -5.152  -2.583 124.748  0.00  0.00    +0.000 OA
ATOM     22  C   UNL     1      -6.251  -1.637 124.971  0.00  0.00    +0.000 A 
ATOM     23  C   UNL     1      -7.858  -2.110 126.091  0.00  0.00    +0.000 A 
ATOM     24  C   UNL     1      -9.339  -1.135 126.048  0.00  0.00    +0.000 A 
ATOM     25  C   UNL     1      -9.157   0.332 125.016  0.00  0.00    +0.000 A 
ATOM     26  C   UNL     1     -10.435   0.918 124.570  0.00  0.00    +0.000 C 
ATOM     27  C   UNL     1     -10.072   1.717 123.311  0.00  0.00    +0.000 C 
ATOM     28  N   UNL     1      -8.849   2.521 123.358  0.00  0.00    +0.000 NA
ATOM     29  C   UNL     1      -8.845   2.951 124.730  0.00  0.00    +0.000 C 
ATOM     30  C   UNL     1      -7.602   0.754 124.008  0.00  0.00    +0.000 A 
ATOM     31  C   UNL     1      -6.131  -0.300 123.934  0.00  0.00    +0.000 A 
ATOM     32  C   UNL     1      -7.655  -2.409 124.061  0.00  0.00    +0.000 A 
ATOM     33  C   UNL     1      -7.977  -1.120 124.421  0.00  0.00    +0.000 A 
ATOM     34  C   UNL     1      -7.151  -0.063 125.892  0.00  0.00    +0.000 A 
ATOM     35  C   UNL     1      -3.803   1.435 131.992  0.00  0.00    +0.000 A 
ATOM     36  C   UNL     1      -4.074   2.807 132.019  0.00  0.00    +0.000 A 
ATOM     37  C   UNL     1      -5.029   3.342 131.138  0.00  0.00    +0.000 A 
ATOM     38  C   UNL     1      -4.948   2.829 127.396  0.00  0.00    +0.000 A 
ATOM     39  C   UNL     1      -4.913   2.392 126.019  0.00  0.00    +0.000 A 
ENDROOT
BRANCH  23  40
ATOM     40  O   UNL     1      -8.057  -3.674 126.451  0.00  0.00    +0.000 OA
ATOM     41  C   UNL     1      -9.097  -3.750 127.464  0.00  0.00    +0.000 C 
ENDBRANCH  23  40
BRANCH  32  42
ATOM     42  O   UNL     1      -8.926  -2.919 123.850  0.00  0.00    +0.000 OA
ATOM     43  H   UNL     1      -9.283  -3.101 124.719  0.00  0.00    +0.000 HD
ENDBRANCH  32  42
BRANCH  36  44
ATOM     44  O   UNL     1      -3.525   3.681 132.917  0.00  0.00    +0.000 OA
ATOM     45  C   UNL     1      -2.147   4.043 132.787  0.00  0.00    +0.000 C 
ENDBRANCH  36  44
BRANCH  37  46
ATOM     46  O   UNL     1      -5.339   4.672 131.148  0.00  0.00    +0.000 OA
ATOM     47  H   UNL     1      -5.646   4.897 130.252  0.00  0.00    +0.000 HD
ENDBRANCH  37  46
TORSDOF 4
ENDMDL
MODEL 7
REMARK VINA RESULT:      -9.3      2.979      6.626
REMARK  Name = Tubocurarine
REMARK  9 active torsions:
REMARK  status: ('A' for Active; 'I' for Inactive)
REMARK    1  A    between atoms: N_14  and  C_15
REMARK    2  A    between atoms: N_14  and  C_16
REMARK    3  A    between atoms: C_25  and  O_26
REMARK    4  A    between atoms: O_26  and  C_27
REMARK    5  A    between atoms: N_32  and  C_33
REMARK    6  A    between atoms: C_36  and  O_37
REMARK    7  A    between atoms: C_41  and  O_42
REMARK    8  A    between atoms: O_42  and  C_43
REMARK    9  A    between atoms: C_44  and  O_45
REMARK                            x       y       z     vdW  Elec       q    Type
REMARK                         _______ _______ _______ _____ _____    ______ ____
ROOT
ATOM      1  C   UNL     1      -4.871   5.607 131.902  0.00  0.00    +0.000 C 
ATOM      2  C   UNL     1      -4.013   4.416 132.691  0.00  0.00    +0.000 C 
ATOM      3  C   UNL     1      -4.673   3.058 133.227  0.00  0.00    +0.000 A 
ATOM      4  C   UNL     1      -5.878   2.979 133.997  0.00  0.00    +0.000 A 
ATOM      5  C   UNL     1      -6.898   2.056 133.750  0.00  0.00    +0.000 A 
ATOM      6  C   UNL     1      -6.446   0.815 133.472  0.00  0.00    +0.000 A 
ATOM      7  O   UNL     1      -7.426  -0.136 133.225  0.00  0.00    +0.000 OA
ATOM      8  C   UNL     1      -7.046  -1.401 132.826  0.00  0.00    +0.000 A 
ATOM      9  C   UNL     1      -6.667  -1.676 131.499  0.00  0.00    +0.000 A 
ATOM     10  C   UNL     1      -6.174  -2.921 131.123  0.00  0.00    +0.000 A 
ATOM     11  C   UNL     1      -5.670  -3.157 129.718  0.00  0.00    +0.000 C 
ATOM     12  C   UNL     1      -5.345  -1.858 128.933  0.00  0.00    +0.000 C 
ATOM     13  N   UNL     1      -6.633  -0.932 129.030  0.00  0.00    +0.000 N 
ATOM     14  C   UNL     1      -7.565  -1.536 128.055  0.00  0.00    +0.000 C 
ATOM     15  C   UNL     1      -7.021   0.447 128.508  0.00  0.00    +0.000 C 
ATOM     16  C   UNL     1      -6.687  -0.596 130.500  0.00  0.00    +0.000 C 
ATOM     17  C   UNL     1      -5.424   0.229 130.753  0.00  0.00    +0.000 C 
ATOM     18  C   UNL     1      -5.130   1.413 129.985  0.00  0.00    +0.000 A 
ATOM     19  C   UNL     1      -4.537   1.162 128.796  0.00  0.00    +0.000 A 
ATOM     20  C   UNL     1      -4.289   2.664 127.792  0.00  0.00    +0.000 A 
ATOM     21  O   UNL     1      -3.021   2.626 127.932  0.00  0.00    +0.000 OA
ATOM     22  C   UNL     1      -4.208   3.068 128.672  0.00  0.00    +0.000 A 
ATOM     23  C   UNL     1      -6.068   2.881 127.920  0.00  0.00    +0.000 A 
ATOM     24  C   UNL     1      -7.446   3.746 128.626  0.00  0.00    +0.000 A 
ATOM     25  C   UNL     1      -6.987   4.659 130.111  0.00  0.00    +0.000 A 
ATOM     26  C   UNL     1      -7.927   5.736 130.473  0.00  0.00    +0.000 C 
ATOM     27  C   UNL     1      -7.097   6.698 131.333  0.00  0.00    +0.000 C 
ATOM     28  N   UNL     1      -6.210   6.103 132.336  0.00  0.00    +0.000 NA
ATOM     29  C   UNL     1      -6.974   4.957 132.748  0.00  0.00    +0.000 C 
ATOM     30  C   UNL     1      -5.220   4.771 130.804  0.00  0.00    +0.000 A 
ATOM     31  C   UNL     1      -3.779   4.006 130.019  0.00  0.00    +0.000 A 
ATOM     32  C   UNL     1      -4.810   4.497 127.678  0.00  0.00    +0.000 A 
ATOM     33  C   UNL     1      -5.463   4.455 128.889  0.00  0.00    +0.000 A 
ATOM     34  C   UNL     1      -5.679   2.859 130.060  0.00  0.00    +0.000 A 
ATOM     35  C   UNL     1      -6.203  -3.952 132.058  0.00  0.00    +0.000 A 
ATOM     36  C   UNL     1      -6.655  -3.728 133.363  0.00  0.00    +0.000 A 
ATOM     37  C   UNL     1      -7.092  -2.445 133.733  0.00  0.00    +0.000 A 
ATOM     38  C   UNL     1      -5.028   0.687 133.275  0.00  0.00    +0.000 A 
ATOM     39  C   UNL     1      -4.227   1.816 132.862  0.00  0.00    +0.000 A 
ENDROOT
BRANCH  23  40
ATOM     40  O   UNL     1      -6.182   2.546 126.342  0.00  0.00    +0.000 OA
ATOM     41  C   UNL     1      -7.592   2.606 125.994  0.00  0.00    +0.000 C 
ENDBRANCH  23  40
BRANCH  32  42
ATOM     42  O   UNL     1      -5.699   5.281 126.959  0.00  0.00    +0.000 OA
ATOM     43  H   UNL     1      -6.416   4.698 126.706  0.00  0.00    +0.000 HD
ENDBRANCH  32  42
BRANCH  36  44
ATOM     44  O   UNL     1      -6.784  -4.706 134.310  0.00  0.00    +0.000 OA
ATOM     45  C   UNL     1      -5.700  -5.613 134.530  0.00  0.00    +0.000 C 
ENDBRANCH  36  44
BRANCH  37  46
ATOM     46  O   UNL     1      -7.562  -2.188 134.990  0.00  0.00    +0.000 OA
ATOM     47  H   UNL     1      -6.996  -2.684 135.609  0.00  0.00    +0.000 HD
ENDBRANCH  37  46
TORSDOF 4
ENDMDL
MODEL 8
REMARK VINA RESULT:      -9.2      3.211      7.394
REMARK  Name = Tubocurarine
REMARK  9 active torsions:
REMARK  status: ('A' for Active; 'I' for Inactive)
REMARK    1  A    between atoms: N_14  and  C_15
REMARK    2  A    between atoms: N_14  and  C_16
REMARK    3  A    between atoms: C_25  and  O_26
REMARK    4  A    between atoms: O_26  and  C_27
REMARK    5  A    between atoms: N_32  and  C_33
REMARK    6  A    between atoms: C_36  and  O_37
REMARK    7  A    between atoms: C_41  and  O_42
REMARK    8  A    between atoms: O_42  and  C_43
REMARK    9  A    between atoms: C_44  and  O_45
REMARK                            x       y       z     vdW  Elec       q    Type
REMARK                         _______ _______ _______ _____ _____    ______ ____
ROOT
ATOM      1  C   UNL     1      -5.077  -2.922 131.226  0.00  0.00    +0.000 C 
ATOM      2  C   UNL     1      -4.542  -2.630 129.674  0.00  0.00    +0.000 C 
ATOM      3  C   UNL     1      -5.504  -2.163 128.481  0.00  0.00    +0.000 A 
ATOM      4  C   UNL     1      -6.756  -2.771 128.149  0.00  0.00    +0.000 A 
ATOM      5  C   UNL     1      -7.919  -2.051 127.865  0.00  0.00    +0.000 A 
ATOM      6  C   UNL     1      -7.707  -0.974 127.079  0.00  0.00    +0.000 A 
ATOM      7  O   UNL     1      -8.837  -0.231 126.767  0.00  0.00    +0.000 OA
ATOM      8  C   UNL     1      -8.691   0.945 126.061  0.00  0.00    +0.000 A 
ATOM      9  C   UNL     1      -8.272   2.136 126.683  0.00  0.00    +0.000 A 
ATOM     10  C   UNL     1      -8.013   3.291 125.952  0.00  0.00    +0.000 A 
ATOM     11  C   UNL     1      -7.459   4.522 126.630  0.00  0.00    +0.000 C 
ATOM     12  C   UNL     1      -6.817   4.250 128.017  0.00  0.00    +0.000 C 
ATOM     13  N   UNL     1      -7.895   3.451 128.869  0.00  0.00    +0.000 N 
ATOM     14  C   UNL     1      -8.850   4.499 129.284  0.00  0.00    +0.000 C 
ATOM     15  C   UNL     1      -7.953   2.874 130.279  0.00  0.00    +0.000 C 
ATOM     16  C   UNL     1      -7.995   2.141 128.127  0.00  0.00    +0.000 C 
ATOM     17  C   UNL     1      -6.615   1.500 128.289  0.00  0.00    +0.000 C 
ATOM     18  C   UNL     1      -6.028   1.291 129.589  0.00  0.00    +0.000 A 
ATOM     19  C   UNL     1      -5.406   2.381 130.092  0.00  0.00    +0.000 A 
ATOM     20  C   UNL     1      -4.782   2.127 131.787  0.00  0.00    +0.000 A 
ATOM     21  O   UNL     1      -3.562   2.152 131.410  0.00  0.00    +0.000 OA
ATOM     22  C   UNL     1      -4.690   1.215 131.464  0.00  0.00    +0.000 A 
ATOM     23  C   UNL     1      -6.484   1.743 132.213  0.00  0.00    +0.000 A 
ATOM     24  C   UNL     1      -7.710   0.530 132.630  0.00  0.00    +0.000 A 
ATOM     25  C   UNL     1      -7.194  -1.138 132.185  0.00  0.00    +0.000 A 
ATOM     26  C   UNL     1      -7.921  -2.205 132.896  0.00  0.00    +0.000 C 
ATOM     27  C   UNL     1      -6.985  -3.419 132.833  0.00  0.00    +0.000 C 
ATOM     28  N   UNL     1      -6.317  -3.683 131.556  0.00  0.00    +0.000 NA
ATOM     29  C   UNL     1      -7.328  -3.275 130.618  0.00  0.00    +0.000 C 
ATOM     30  C   UNL     1      -5.501  -1.580 131.442  0.00  0.00    +0.000 A 
ATOM     31  C   UNL     1      -4.187  -0.372 131.136  0.00  0.00    +0.000 A 
ATOM     32  C   UNL     1      -4.911   0.933 133.272  0.00  0.00    +0.000 A 
ATOM     33  C   UNL     1      -5.652   0.020 132.557  0.00  0.00    +0.000 A 
ATOM     34  C   UNL     1      -6.277   0.217 130.677  0.00  0.00    +0.000 A 
ATOM     35  C   UNL     1      -8.324   3.296 124.595  0.00  0.00    +0.000 A 
ATOM     36  C   UNL     1      -8.822   2.150 123.966  0.00  0.00    +0.000 A 
ATOM     37  C   UNL     1      -9.018   0.978 124.717  0.00  0.00    +0.000 A 
ATOM     38  C   UNL     1      -6.333  -0.628 126.835  0.00  0.00    +0.000 A 
ATOM     39  C   UNL     1      -5.290  -1.022 127.755  0.00  0.00    +0.000 A 
ENDROOT
BRANCH  23  40
ATOM     40  O   UNL     1      -6.540   3.119 133.061  0.00  0.00    +0.000 OA
ATOM     41  C   UNL     1      -7.855   3.187 133.678  0.00  0.00    +0.000 C 
ENDBRANCH  23  40
BRANCH  32  42
ATOM     42  O   UNL     1      -5.563   0.862 134.492  0.00  0.00    +0.000 OA
ATOM     43  H   UNL     1      -5.057   1.411 135.092  0.00  0.00    +0.000 HD
ENDBRANCH  32  42
BRANCH  36  44
ATOM     44  O   UNL     1      -9.220   2.102 122.658  0.00  0.00    +0.000 OA
ATOM     45  C   UNL     1      -8.741   3.094 121.745  0.00  0.00    +0.000 C 
ENDBRANCH  36  44
BRANCH  37  46
ATOM     46  O   UNL     1      -9.523  -0.156 124.146  0.00  0.00    +0.000 OA
ATOM     47  H   UNL     1      -9.517  -0.014 123.183  0.00  0.00    +0.000 HD
ENDBRANCH  37  46
TORSDOF 4
ENDMDL
MODEL 9
REMARK VINA RESULT:      -9.2      4.028      7.037
REMARK  Name = Tubocurarine
REMARK  9 active torsions:
REMARK  status: ('A' for Active; 'I' for Inactive)
REMARK    1  A    between atoms: N_14  and  C_15
REMARK    2  A    between atoms: N_14  and  C_16
REMARK    3  A    between atoms: C_25  and  O_26
REMARK    4  A    between atoms: O_26  and  C_27
REMARK    5  A    between atoms: N_32  and  C_33
REMARK    6  A    between atoms: C_36  and  O_37
REMARK    7  A    between atoms: C_41  and  O_42
REMARK    8  A    between atoms: O_42  and  C_43
REMARK    9  A    between atoms: C_44  and  O_45
REMARK                            x       y       z     vdW  Elec       q    Type
REMARK                         _______ _______ _______ _____ _____    ______ ____
ROOT
ATOM      1  C   UNL     1      -5.917   2.955 125.009  0.00  0.00    +0.000 C 
ATOM      2  C   UNL     1      -4.842   2.810 126.274  0.00  0.00    +0.000 C 
ATOM      3  C   UNL     1      -5.289   2.535 127.787  0.00  0.00    +0.000 A 
ATOM      4  C   UNL     1      -6.318   3.247 128.482  0.00  0.00    +0.000 A 
ATOM      5  C   UNL     1      -7.296   2.629 129.266  0.00  0.00    +0.000 A 
ATOM      6  C   UNL     1      -6.815   1.638 130.045  0.00  0.00    +0.000 A 
ATOM      7  O   UNL     1      -7.752   1.000 130.846  0.00  0.00    +0.000 OA
ATOM      8  C   UNL     1      -7.362  -0.096 131.589  0.00  0.00    +0.000 A 
ATOM      9  C   UNL     1      -7.220  -1.371 131.011  0.00  0.00    +0.000 A 
ATOM     10  C   UNL     1      -6.716  -2.448 131.732  0.00  0.00    +0.000 A 
ATOM     11  C   UNL     1      -6.469  -3.778 131.057  0.00  0.00    +0.000 C 
ATOM     12  C   UNL     1      -6.393  -3.700 129.509  0.00  0.00    +0.000 C 
ATOM     13  N   UNL     1      -7.704  -2.943 129.025  0.00  0.00    +0.000 N 
ATOM     14  C   UNL     1      -8.756  -3.976 129.130  0.00  0.00    +0.000 C 
ATOM     15  C   UNL     1      -8.283  -2.527 127.677  0.00  0.00    +0.000 C 
ATOM     16  C   UNL     1      -7.506  -1.554 129.580  0.00  0.00    +0.000 C 
ATOM     17  C   UNL     1      -6.282  -1.015 128.838  0.00  0.00    +0.000 C 
ATOM     18  C   UNL     1      -6.224  -0.986 127.398  0.00  0.00    +0.000 A 
ATOM     19  C   UNL     1      -5.848  -2.159 126.841  0.00  0.00    +0.000 A 
ATOM     20  C   UNL     1      -5.904  -2.134 125.017  0.00  0.00    +0.000 A 
ATOM     21  O   UNL     1      -4.632  -2.184 124.914  0.00  0.00    +0.000 OA
ATOM     22  C   UNL     1      -5.688  -1.198 125.166  0.00  0.00    +0.000 A 
ATOM     23  C   UNL     1      -7.638  -1.705 125.211  0.00  0.00    +0.000 A 
ATOM     24  C   UNL     1      -8.918  -0.481 125.130  0.00  0.00    +0.000 A 
ATOM     25  C   UNL     1      -8.256   1.196 125.138  0.00  0.00    +0.000 A 
ATOM     26  C   UNL     1      -9.188   2.215 124.620  0.00  0.00    +0.000 C 
ATOM     27  C   UNL     1      -8.284   3.373 124.177  0.00  0.00    +0.000 C 
ATOM     28  N   UNL     1      -7.183   3.742 125.070  0.00  0.00    +0.000 NA
ATOM     29  C   UNL     1      -7.771   3.500 126.360  0.00  0.00    +0.000 C 
ATOM     30  C   UNL     1      -6.404   1.623 125.136  0.00  0.00    +0.000 A 
ATOM     31  C   UNL     1      -5.084   0.385 125.081  0.00  0.00    +0.000 A 
ATOM     32  C   UNL     1      -6.570  -1.110 123.550  0.00  0.00    +0.000 A 
ATOM     33  C   UNL     1      -6.978  -0.081 124.368  0.00  0.00    +0.000 A 
ATOM     34  C   UNL     1      -6.854  -0.030 126.354  0.00  0.00    +0.000 A 
ATOM     35  C   UNL     1      -6.494  -2.283 133.097  0.00  0.00    +0.000 A 
ATOM     36  C   UNL     1      -6.708  -1.046 133.716  0.00  0.00    +0.000 A 
ATOM     37  C   UNL     1      -7.161   0.042 132.951  0.00  0.00    +0.000 A 
ATOM     38  C   UNL     1      -5.454   1.246 129.803  0.00  0.00    +0.000 A 
ATOM     39  C   UNL     1      -4.829   1.474 128.520  0.00  0.00    +0.000 A 
ENDROOT
BRANCH  23  40
ATOM     40  O   UNL     1      -8.021  -3.163 124.624  0.00  0.00    +0.000 OA
ATOM     41  C   UNL     1      -9.471  -3.219 124.534  0.00  0.00    +0.000 C 
ENDBRANCH  23  40
BRANCH  32  42
ATOM     42  O   UNL     1      -7.632  -1.140 122.661  0.00  0.00    +0.000 OA
ATOM     43  H   UNL     1      -7.867  -0.225 122.503  0.00  0.00    +0.000 HD
ENDBRANCH  32  42
BRANCH  36  44
ATOM     44  O   UNL     1      -6.585  -0.829 135.061  0.00  0.00    +0.000 OA
ATOM     45  C   UNL     1      -5.282  -0.650 135.624  0.00  0.00    +0.000 C 
ENDBRANCH  36  44
BRANCH  37  46
ATOM     46  O   UNL     1      -7.403   1.260 133.521  0.00  0.00    +0.000 OA
ATOM     47  H   UNL     1      -7.424   1.121 134.485  0.00  0.00    +0.000 HD
ENDBRANCH  37  46
TORSDOF 4
ENDMDL
