MODEL 1
REMARK VINA RESULT:      -9.5      0.000      0.000
REMARK  Name = Tucatinib
REMARK  7 active torsions:
REMARK  status: ('A' for Active; 'I' for Inactive)
REMARK    1  A    between atoms: C_1  and  C_2
REMARK    2  A    between atoms: C_4  and  N_5
REMARK    3  A    between atoms: C_13  and  N_14
REMARK    4  A    between atoms: C_17  and  C_18
REMARK    5  A    between atoms: C_17  and  C_19
REMARK    6  A    between atoms: C_26  and  O_27
REMARK    7  A    between atoms: O_27  and  C_28
REMARK                            x       y       z     vdW  Elec       q    Type
REMARK                         _______ _______ _______ _____ _____    ______ ____
ROOT
ATOM      1  N   UNL     1      -6.545   2.026 132.865  0.00  0.00    +0.000 N 
ATOM      2  C   UNL     1      -6.947   0.829 132.227  0.00  0.00    +0.000 A 
ATOM      3  N   UNL     1      -7.295  -0.214 133.003  0.00  0.00    +0.000 NA
ATOM      4  C   UNL     1      -7.806  -1.274 132.359  0.00  0.00    +0.000 A 
ATOM      5  N   UNL     1      -7.959  -1.399 131.033  0.00  0.00    +0.000 NA
ATOM      6  C   UNL     1      -7.555  -0.369 130.283  0.00  0.00    +0.000 A 
ATOM      7  C   UNL     1      -7.669  -0.438 128.906  0.00  0.00    +0.000 A 
ATOM      8  C   UNL     1      -7.282   0.623 128.076  0.00  0.00    +0.000 A 
ATOM      9  C   UNL     1      -6.753   1.804 128.596  0.00  0.00    +0.000 A 
ATOM     10  C   UNL     1      -6.616   1.868 129.978  0.00  0.00    +0.000 A 
ATOM     11  C   UNL     1      -7.026   0.800 130.826  0.00  0.00    +0.000 A 
ATOM     12  H   UNL     1      -6.139   1.823 133.774  0.00  0.00    +0.000 HD
ENDROOT
BRANCH   9  13
ATOM     13  N   UNL     1      -6.479   2.945 127.804  0.00  0.00    +0.000 N 
ATOM     14  C   UNL     1      -5.367   3.706 128.048  0.00  0.00    +0.000 C 
ATOM     15  N   UNL     1      -5.335   4.874 128.585  0.00  0.00    +0.000 NA
ATOM     16  C   UNL     1      -3.895   5.192 128.687  0.00  0.00    +0.000 C 
ATOM     17  C   UNL     1      -3.650   6.551 128.039  0.00  0.00    +0.000 C 
ATOM     18  C   UNL     1      -3.478   5.232 130.160  0.00  0.00    +0.000 C 
ATOM     19  C   UNL     1      -3.186   4.068 127.944  0.00  0.00    +0.000 C 
ATOM     20  O   UNL     1      -4.206   3.127 127.648  0.00  0.00    +0.000 OA
ATOM     21  H   UNL     1      -7.312   3.511 127.688  0.00  0.00    +0.000 HD
ENDBRANCH   9  13
BRANCH   1  25
ATOM     22  C   UNL     1      -6.711   6.671 131.468  0.00  0.00    +0.000 C 
ATOM     23  C   UNL     1      -7.484   5.554 132.090  0.00  0.00    +0.000 A 
ATOM     24  C   UNL     1      -6.748   4.360 132.266  0.00  0.00    +0.000 A 
ATOM     25  C   UNL     1      -7.296   3.231 132.861  0.00  0.00    +0.000 A 
ATOM     26  C   UNL     1      -8.631   3.319 133.277  0.00  0.00    +0.000 A 
ATOM     27  C   UNL     1      -9.401   4.472 133.056  0.00  0.00    +0.000 A 
ATOM     28  C   UNL     1      -8.847   5.605 132.442  0.00  0.00    +0.000 A 
BRANCH  28  29
ATOM     29  O   UNL     1      -9.756   6.644 132.266  0.00  0.00    +0.000 OA
BRANCH  29  30
ATOM     30  C   UNL     1     -10.451   6.829 131.078  0.00  0.00    +0.000 A 
ATOM     31  C   UNL     1      -9.847   7.301 129.965  0.00  0.00    +0.000 A 
ATOM     32  C   UNL     1     -10.546   7.285 128.720  0.00  0.00    +0.000 A 
ATOM     33  N   UNL     1     -10.207   7.659 127.506  0.00  0.00    +0.000 NA
ATOM     34  C   UNL     1     -11.298   7.316 126.764  0.00  0.00    +0.000 A 
ATOM     35  N   UNL     1     -12.285   6.711 127.425  0.00  0.00    +0.000 NA
ATOM     36  N   UNL     1     -11.829   6.728 128.700  0.00  0.00    +0.000 N 
ATOM     37  C   UNL     1     -12.476   6.309 129.859  0.00  0.00    +0.000 A 
ATOM     38  C   UNL     1     -11.864   6.444 131.052  0.00  0.00    +0.000 A 
ENDBRANCH  29  30
ENDBRANCH  28  29
ENDBRANCH   1  25
TORSDOF 4
ENDMDL
MODEL 2
REMARK VINA RESULT:      -9.5      3.041      4.574
REMARK  Name = Tucatinib
REMARK  7 active torsions:
REMARK  status: ('A' for Active; 'I' for Inactive)
REMARK    1  A    between atoms: C_1  and  C_2
REMARK    2  A    between atoms: C_4  and  N_5
REMARK    3  A    between atoms: C_13  and  N_14
REMARK    4  A    between atoms: C_17  and  C_18
REMARK    5  A    between atoms: C_17  and  C_19
REMARK    6  A    between atoms: C_26  and  O_27
REMARK    7  A    between atoms: O_27  and  C_28
REMARK                            x       y       z     vdW  Elec       q    Type
REMARK                         _______ _______ _______ _____ _____    ______ ____
ROOT
ATOM      1  N   UNL     1      -7.090   1.173 132.135  0.00  0.00    +0.000 N 
ATOM      2  C   UNL     1      -7.179  -0.237 132.209  0.00  0.00    +0.000 A 
ATOM      3  N   UNL     1      -7.184  -0.806 133.429  0.00  0.00    +0.000 NA
ATOM      4  C   UNL     1      -7.415  -2.127 133.454  0.00  0.00    +0.000 A 
ATOM      5  N   UNL     1      -7.595  -2.922 132.389  0.00  0.00    +0.000 NA
ATOM      6  C   UNL     1      -7.532  -2.339 131.188  0.00  0.00    +0.000 A 
ATOM      7  C   UNL     1      -7.692  -3.102 130.045  0.00  0.00    +0.000 A 
ATOM      8  C   UNL     1      -7.657  -2.537 128.764  0.00  0.00    +0.000 A 
ATOM      9  C   UNL     1      -7.449  -1.171 128.572  0.00  0.00    +0.000 A 
ATOM     10  C   UNL     1      -7.263  -0.403 129.716  0.00  0.00    +0.000 A 
ATOM     11  C   UNL     1      -7.318  -0.972 131.021  0.00  0.00    +0.000 A 
ATOM     12  H   UNL     1      -6.598   1.539 132.945  0.00  0.00    +0.000 HD
ENDROOT
BRANCH   9  13
ATOM     13  N   UNL     1      -7.542  -0.543 127.307  0.00  0.00    +0.000 N 
ATOM     14  C   UNL     1      -7.802  -1.282 126.184  0.00  0.00    +0.000 C 
ATOM     15  N   UNL     1      -6.972  -1.583 125.250  0.00  0.00    +0.000 NA
ATOM     16  C   UNL     1      -7.744  -2.454 124.338  0.00  0.00    +0.000 C 
ATOM     17  C   UNL     1      -7.633  -1.897 122.923  0.00  0.00    +0.000 C 
ATOM     18  C   UNL     1      -7.181  -3.878 124.386  0.00  0.00    +0.000 C 
ATOM     19  C   UNL     1      -9.173  -2.409 124.861  0.00  0.00    +0.000 C 
ATOM     20  O   UNL     1      -9.089  -1.704 126.090  0.00  0.00    +0.000 OA
ATOM     21  H   UNL     1      -6.774   0.105 127.169  0.00  0.00    +0.000 HD
ENDBRANCH   9  13
BRANCH   1  25
ATOM     22  C   UNL     1      -8.398   4.820 129.213  0.00  0.00    +0.000 C 
ATOM     23  C   UNL     1      -8.890   3.792 130.178  0.00  0.00    +0.000 A 
ATOM     24  C   UNL     1      -7.873   3.004 130.762  0.00  0.00    +0.000 A 
ATOM     25  C   UNL     1      -8.145   2.024 131.708  0.00  0.00    +0.000 A 
ATOM     26  C   UNL     1      -9.488   1.836 132.059  0.00  0.00    +0.000 A 
ATOM     27  C   UNL     1     -10.521   2.564 131.446  0.00  0.00    +0.000 A 
ATOM     28  C   UNL     1     -10.243   3.543 130.481  0.00  0.00    +0.000 A 
BRANCH  28  29
ATOM     29  O   UNL     1     -11.381   4.141 129.949  0.00  0.00    +0.000 OA
BRANCH  29  30
ATOM     30  C   UNL     1     -11.629   5.502 130.070  0.00  0.00    +0.000 A 
ATOM     31  C   UNL     1     -11.845   6.285 128.990  0.00  0.00    +0.000 A 
ATOM     32  C   UNL     1     -12.293   7.630 129.169  0.00  0.00    +0.000 A 
ATOM     33  N   UNL     1     -12.589   8.588 128.318  0.00  0.00    +0.000 NA
ATOM     34  C   UNL     1     -13.014   9.597 129.131  0.00  0.00    +0.000 A 
ATOM     35  N   UNL     1     -13.045   9.321 130.435  0.00  0.00    +0.000 NA
ATOM     36  N   UNL     1     -12.536   8.067 130.475  0.00  0.00    +0.000 N 
ATOM     37  C   UNL     1     -12.245   7.283 131.588  0.00  0.00    +0.000 A 
ATOM     38  C   UNL     1     -11.701   6.062 131.422  0.00  0.00    +0.000 A 
ENDBRANCH  29  30
ENDBRANCH  28  29
ENDBRANCH   1  25
TORSDOF 4
ENDMDL
MODEL 3
REMARK VINA RESULT:      -9.2      2.348      3.477
REMARK  Name = Tucatinib
REMARK  7 active torsions:
REMARK  status: ('A' for Active; 'I' for Inactive)
REMARK    1  A    between atoms: C_1  and  C_2
REMARK    2  A    between atoms: C_4  and  N_5
REMARK    3  A    between atoms: C_13  and  N_14
REMARK    4  A    between atoms: C_17  and  C_18
REMARK    5  A    between atoms: C_17  and  C_19
REMARK    6  A    between atoms: C_26  and  O_27
REMARK    7  A    between atoms: O_27  and  C_28
REMARK                            x       y       z     vdW  Elec       q    Type
REMARK                         _______ _______ _______ _____ _____    ______ ____
ROOT
ATOM      1  N   UNL     1      -7.032   0.829 128.761  0.00  0.00    +0.000 N 
ATOM      2  C   UNL     1      -7.375   0.330 127.483  0.00  0.00    +0.000 A 
ATOM      3  N   UNL     1      -8.127  -0.785 127.421  0.00  0.00    +0.000 NA
ATOM      4  C   UNL     1      -8.548  -1.136 126.197  0.00  0.00    +0.000 A 
ATOM      5  N   UNL     1      -8.258  -0.510 125.048  0.00  0.00    +0.000 NA
ATOM      6  C   UNL     1      -7.466   0.564 125.133  0.00  0.00    +0.000 A 
ATOM      7  C   UNL     1      -7.113   1.248 123.984  0.00  0.00    +0.000 A 
ATOM      8  C   UNL     1      -6.305   2.392 124.020  0.00  0.00    +0.000 A 
ATOM      9  C   UNL     1      -5.805   2.897 125.220  0.00  0.00    +0.000 A 
ATOM     10  C   UNL     1      -6.138   2.199 126.376  0.00  0.00    +0.000 A 
ATOM     11  C   UNL     1      -6.976   1.047 126.344  0.00  0.00    +0.000 A 
ATOM     12  H   UNL     1      -6.997   0.072 129.438  0.00  0.00    +0.000 HD
ENDROOT
BRANCH   9  13
ATOM     13  N   UNL     1      -5.102   4.122 125.313  0.00  0.00    +0.000 N 
ATOM     14  C   UNL     1      -4.164   4.310 126.293  0.00  0.00    +0.000 C 
ATOM     15  N   UNL     1      -4.280   5.045 127.340  0.00  0.00    +0.000 NA
ATOM     16  C   UNL     1      -3.024   4.821 128.088  0.00  0.00    +0.000 C 
ATOM     17  C   UNL     1      -2.394   6.175 128.398  0.00  0.00    +0.000 C 
ATOM     18  C   UNL     1      -3.326   4.073 129.391  0.00  0.00    +0.000 C 
ATOM     19  C   UNL     1      -2.154   3.982 127.162  0.00  0.00    +0.000 C 
ATOM     20  O   UNL     1      -3.003   3.638 126.078  0.00  0.00    +0.000 OA
ATOM     21  H   UNL     1      -5.737   4.909 125.236  0.00  0.00    +0.000 HD
ENDBRANCH   9  13
BRANCH   1  25
ATOM     22  C   UNL     1     -10.937   3.167 130.443  0.00  0.00    +0.000 C 
ATOM     23  C   UNL     1      -9.454   3.229 130.278  0.00  0.00    +0.000 A 
ATOM     24  C   UNL     1      -8.895   2.126 129.592  0.00  0.00    +0.000 A 
ATOM     25  C   UNL     1      -7.537   2.034 129.317  0.00  0.00    +0.000 A 
ATOM     26  C   UNL     1      -6.727   3.087 129.761  0.00  0.00    +0.000 A 
ATOM     27  C   UNL     1      -7.250   4.161 130.500  0.00  0.00    +0.000 A 
ATOM     28  C   UNL     1      -8.620   4.244 130.787  0.00  0.00    +0.000 A 
BRANCH  28  29
ATOM     29  O   UNL     1      -8.963   5.351 131.557  0.00  0.00    +0.000 OA
BRANCH  29  30
ATOM     30  C   UNL     1      -9.916   6.274 131.146  0.00  0.00    +0.000 A 
ATOM     31  C   UNL     1      -9.760   7.004 130.019  0.00  0.00    +0.000 A 
ATOM     32  C   UNL     1     -10.848   7.789 129.529  0.00  0.00    +0.000 A 
ATOM     33  N   UNL     1     -10.979   8.566 128.476  0.00  0.00    +0.000 NA
ATOM     34  C   UNL     1     -12.281   8.963 128.550  0.00  0.00    +0.000 A 
ATOM     35  N   UNL     1     -12.990   8.453 129.557  0.00  0.00    +0.000 NA
ATOM     36  N   UNL     1     -12.060   7.729 130.225  0.00  0.00    +0.000 N 
ATOM     37  C   UNL     1     -12.196   7.034 131.423  0.00  0.00    +0.000 A 
ATOM     38  C   UNL     1     -11.132   6.399 131.952  0.00  0.00    +0.000 A 
ENDBRANCH  29  30
ENDBRANCH  28  29
ENDBRANCH   1  25
TORSDOF 4
ENDMDL
MODEL 4
REMARK VINA RESULT:      -9.1      2.340      2.933
REMARK  Name = Tucatinib
REMARK  7 active torsions:
REMARK  status: ('A' for Active; 'I' for Inactive)
REMARK    1  A    between atoms: C_1  and  C_2
REMARK    2  A    between atoms: C_4  and  N_5
REMARK    3  A    between atoms: C_13  and  N_14
REMARK    4  A    between atoms: C_17  and  C_18
REMARK    5  A    between atoms: C_17  and  C_19
REMARK    6  A    between atoms: C_26  and  O_27
REMARK    7  A    between atoms: O_27  and  C_28
REMARK                            x       y       z     vdW  Elec       q    Type
REMARK                         _______ _______ _______ _____ _____    ______ ____
ROOT
ATOM      1  N   UNL     1      -7.053   1.174 132.090  0.00  0.00    +0.000 N 
ATOM      2  C   UNL     1      -7.144  -0.234 132.198  0.00  0.00    +0.000 A 
ATOM      3  N   UNL     1      -7.109  -0.776 133.430  0.00  0.00    +0.000 NA
ATOM      4  C   UNL     1      -7.344  -2.095 133.492  0.00  0.00    +0.000 A 
ATOM      5  N   UNL     1      -7.564  -2.912 132.453  0.00  0.00    +0.000 NA
ATOM      6  C   UNL     1      -7.540  -2.356 131.237  0.00  0.00    +0.000 A 
ATOM      7  C   UNL     1      -7.743  -3.144 130.118  0.00  0.00    +0.000 A 
ATOM      8  C   UNL     1      -7.751  -2.607 128.824  0.00  0.00    +0.000 A 
ATOM      9  C   UNL     1      -7.544  -1.247 128.595  0.00  0.00    +0.000 A 
ATOM     10  C   UNL     1      -7.316  -0.455 129.715  0.00  0.00    +0.000 A 
ATOM     11  C   UNL     1      -7.328  -0.994 131.033  0.00  0.00    +0.000 A 
ATOM     12  H   UNL     1      -6.531   1.556 132.874  0.00  0.00    +0.000 HD
ENDROOT
BRANCH   9  13
ATOM     13  N   UNL     1      -7.679  -0.646 127.320  0.00  0.00    +0.000 N 
ATOM     14  C   UNL     1      -6.856   0.384 126.949  0.00  0.00    +0.000 C 
ATOM     15  N   UNL     1      -7.173   1.625 126.849  0.00  0.00    +0.000 NA
ATOM     16  C   UNL     1      -5.904   2.302 126.502  0.00  0.00    +0.000 C 
ATOM     17  C   UNL     1      -6.130   3.147 125.253  0.00  0.00    +0.000 C 
ATOM     18  C   UNL     1      -5.460   3.193 127.665  0.00  0.00    +0.000 C 
ATOM     19  C   UNL     1      -4.908   1.176 126.259  0.00  0.00    +0.000 C 
ATOM     20  O   UNL     1      -5.589  -0.005 126.653  0.00  0.00    +0.000 OA
ATOM     21  H   UNL     1      -8.653  -0.451 127.115  0.00  0.00    +0.000 HD
ENDBRANCH   9  13
BRANCH   1  25
ATOM     22  C   UNL     1      -8.446   4.767 129.141  0.00  0.00    +0.000 C 
ATOM     23  C   UNL     1      -8.910   3.760 130.142  0.00  0.00    +0.000 A 
ATOM     24  C   UNL     1      -7.876   2.980 130.708  0.00  0.00    +0.000 A 
ATOM     25  C   UNL     1      -8.119   2.019 131.682  0.00  0.00    +0.000 A 
ATOM     26  C   UNL     1      -9.450   1.843 132.081  0.00  0.00    +0.000 A 
ATOM     27  C   UNL     1     -10.500   2.562 131.487  0.00  0.00    +0.000 A 
ATOM     28  C   UNL     1     -10.252   3.521 130.494  0.00  0.00    +0.000 A 
BRANCH  28  29
ATOM     29  O   UNL     1     -11.406   4.112 129.989  0.00  0.00    +0.000 OA
BRANCH  29  30
ATOM     30  C   UNL     1     -11.643   5.478 130.087  0.00  0.00    +0.000 A 
ATOM     31  C   UNL     1     -11.852   6.244 128.994  0.00  0.00    +0.000 A 
ATOM     32  C   UNL     1     -12.290   7.595 129.150  0.00  0.00    +0.000 A 
ATOM     33  N   UNL     1     -12.577   8.541 128.283  0.00  0.00    +0.000 NA
ATOM     34  C   UNL     1     -12.996   9.566 129.078  0.00  0.00    +0.000 A 
ATOM     35  N   UNL     1     -13.031   9.313 130.386  0.00  0.00    +0.000 NA
ATOM     36  N   UNL     1     -12.532   8.055 130.448  0.00  0.00    +0.000 N 
ATOM     37  C   UNL     1     -12.248   7.288 131.574  0.00  0.00    +0.000 A 
ATOM     38  C   UNL     1     -11.713   6.060 131.429  0.00  0.00    +0.000 A 
ENDBRANCH  29  30
ENDBRANCH  28  29
ENDBRANCH   1  25
TORSDOF 4
ENDMDL
MODEL 5
REMARK VINA RESULT:      -9.0      4.650      7.788
REMARK  Name = Tucatinib
REMARK  7 active torsions:
REMARK  status: ('A' for Active; 'I' for Inactive)
REMARK    1  A    between atoms: C_1  and  C_2
REMARK    2  A    between atoms: C_4  and  N_5
REMARK    3  A    between atoms: C_13  and  N_14
REMARK    4  A    between atoms: C_17  and  C_18
REMARK    5  A    between atoms: C_17  and  C_19
REMARK    6  A    between atoms: C_26  and  O_27
REMARK    7  A    between atoms: O_27  and  C_28
REMARK                            x       y       z     vdW  Elec       q    Type
REMARK                         _______ _______ _______ _____ _____    ______ ____
ROOT
ATOM      1  N   UNL     1      -8.802   1.870 125.447  0.00  0.00    +0.000 N 
ATOM      2  C   UNL     1      -9.272   0.966 124.465  0.00  0.00    +0.000 A 
ATOM      3  N   UNL     1     -10.070   1.447 123.494  0.00  0.00    +0.000 NA
ATOM      4  C   UNL     1     -10.369   0.588 122.508  0.00  0.00    +0.000 A 
ATOM      5  N   UNL     1      -9.986  -0.694 122.429  0.00  0.00    +0.000 NA
ATOM      6  C   UNL     1      -9.239  -1.160 123.434  0.00  0.00    +0.000 A 
ATOM      7  C   UNL     1      -8.822  -2.480 123.425  0.00  0.00    +0.000 A 
ATOM      8  C   UNL     1      -8.018  -3.011 124.442  0.00  0.00    +0.000 A 
ATOM      9  C   UNL     1      -7.603  -2.238 125.526  0.00  0.00    +0.000 A 
ATOM     10  C   UNL     1      -8.038  -0.918 125.552  0.00  0.00    +0.000 A 
ATOM     11  C   UNL     1      -8.839  -0.369 124.509  0.00  0.00    +0.000 A 
ATOM     12  H   UNL     1      -9.461   2.634 125.567  0.00  0.00    +0.000 HD
ENDROOT
BRANCH   9  13
ATOM     13  N   UNL     1      -6.683  -2.697 126.499  0.00  0.00    +0.000 N 
ATOM     14  C   UNL     1      -6.927  -2.498 127.832  0.00  0.00    +0.000 C 
ATOM     15  N   UNL     1      -6.334  -1.663 128.607  0.00  0.00    +0.000 NA
ATOM     16  C   UNL     1      -7.036  -1.801 129.902  0.00  0.00    +0.000 C 
ATOM     17  C   UNL     1      -6.000  -2.056 130.992  0.00  0.00    +0.000 C 
ATOM     18  C   UNL     1      -7.812  -0.516 130.207  0.00  0.00    +0.000 C 
ATOM     19  C   UNL     1      -7.978  -2.983 129.719  0.00  0.00    +0.000 C 
ATOM     20  O   UNL     1      -7.896  -3.304 128.339  0.00  0.00    +0.000 OA
ATOM     21  H   UNL     1      -5.734  -2.449 126.243  0.00  0.00    +0.000 HD
ENDBRANCH   9  13
BRANCH   1  25
ATOM     22  C   UNL     1      -5.182   4.450 123.500  0.00  0.00    +0.000 C 
ATOM     23  C   UNL     1      -5.618   3.664 124.694  0.00  0.00    +0.000 A 
ATOM     24  C   UNL     1      -6.901   3.084 124.575  0.00  0.00    +0.000 A 
ATOM     25  C   UNL     1      -7.452   2.290 125.574  0.00  0.00    +0.000 A 
ATOM     26  C   UNL     1      -6.679   2.092 126.725  0.00  0.00    +0.000 A 
ATOM     27  C   UNL     1      -5.428   2.710 126.891  0.00  0.00    +0.000 A 
ATOM     28  C   UNL     1      -4.882   3.522 125.887  0.00  0.00    +0.000 A 
BRANCH  28  29
ATOM     29  O   UNL     1      -3.656   4.084 126.228  0.00  0.00    +0.000 OA
BRANCH  29  30
ATOM     30  C   UNL     1      -3.466   4.786 127.411  0.00  0.00    +0.000 A 
ATOM     31  C   UNL     1      -3.849   6.075 127.544  0.00  0.00    +0.000 A 
ATOM     32  C   UNL     1      -3.820   6.694 128.831  0.00  0.00    +0.000 A 
ATOM     33  N   UNL     1      -4.142   7.899 129.245  0.00  0.00    +0.000 NA
ATOM     34  C   UNL     1      -3.946   7.823 130.592  0.00  0.00    +0.000 A 
ATOM     35  N   UNL     1      -3.563   6.634 131.058  0.00  0.00    +0.000 NA
ATOM     36  N   UNL     1      -3.432   5.909 129.922  0.00  0.00    +0.000 N 
ATOM     37  C   UNL     1      -2.970   4.604 129.773  0.00  0.00    +0.000 A 
ATOM     38  C   UNL     1      -2.876   4.065 128.542  0.00  0.00    +0.000 A 
ENDBRANCH  29  30
ENDBRANCH  28  29
ENDBRANCH   1  25
TORSDOF 4
ENDMDL
MODEL 6
REMARK VINA RESULT:      -9.0      2.766      7.340
REMARK  Name = Tucatinib
REMARK  7 active torsions:
REMARK  status: ('A' for Active; 'I' for Inactive)
REMARK    1  A    between atoms: C_1  and  C_2
REMARK    2  A    between atoms: C_4  and  N_5
REMARK    3  A    between atoms: C_13  and  N_14
REMARK    4  A    between atoms: C_17  and  C_18
REMARK    5  A    between atoms: C_17  and  C_19
REMARK    6  A    between atoms: C_26  and  O_27
REMARK    7  A    between atoms: O_27  and  C_28
REMARK                            x       y       z     vdW  Elec       q    Type
REMARK                         _______ _______ _______ _____ _____    ______ ____
ROOT
ATOM      1  N   UNL     1      -7.800   2.107 133.365  0.00  0.00    +0.000 N 
ATOM      2  C   UNL     1      -7.064   3.297 133.573  0.00  0.00    +0.000 A 
ATOM      3  N   UNL     1      -6.209   3.338 134.612  0.00  0.00    +0.000 NA
ATOM      4  C   UNL     1      -5.431   4.428 134.683  0.00  0.00    +0.000 A 
ATOM      5  N   UNL     1      -5.458   5.478 133.851  0.00  0.00    +0.000 NA
ATOM      6  C   UNL     1      -6.354   5.435 132.860  0.00  0.00    +0.000 A 
ATOM      7  C   UNL     1      -6.448   6.493 131.973  0.00  0.00    +0.000 A 
ATOM      8  C   UNL     1      -7.354   6.488 130.904  0.00  0.00    +0.000 A 
ATOM      9  C   UNL     1      -8.217   5.415 130.682  0.00  0.00    +0.000 A 
ATOM     10  C   UNL     1      -8.142   4.359 131.583  0.00  0.00    +0.000 A 
ATOM     11  C   UNL     1      -7.209   4.353 132.660  0.00  0.00    +0.000 A 
ATOM     12  H   UNL     1      -7.938   1.618 134.245  0.00  0.00    +0.000 HD
ENDROOT
BRANCH   9  13
ATOM     13  N   UNL     1      -9.046   5.311 129.540  0.00  0.00    +0.000 N 
ATOM     14  C   UNL     1     -10.144   6.119 129.406  0.00  0.00    +0.000 C 
ATOM     15  N   UNL     1     -11.376   5.772 129.530  0.00  0.00    +0.000 NA
ATOM     16  C   UNL     1     -12.131   7.034 129.371  0.00  0.00    +0.000 C 
ATOM     17  C   UNL     1     -13.195   6.831 128.297  0.00  0.00    +0.000 C 
ATOM     18  C   UNL     1     -12.793   7.409 130.700  0.00  0.00    +0.000 C 
ATOM     19  C   UNL     1     -11.093   8.069 128.961  0.00  0.00    +0.000 C 
ATOM     20  O   UNL     1      -9.845   7.406 129.095  0.00  0.00    +0.000 OA
ATOM     21  H   UNL     1      -9.258   4.341 129.335  0.00  0.00    +0.000 HD
ENDBRANCH   9  13
BRANCH   1  25
ATOM     22  C   UNL     1      -4.606   0.194 130.252  0.00  0.00    +0.000 C 
ATOM     23  C   UNL     1      -6.015   0.138 130.745  0.00  0.00    +0.000 A 
ATOM     24  C   UNL     1      -6.329   1.102 131.730  0.00  0.00    +0.000 A 
ATOM     25  C   UNL     1      -7.601   1.219 132.275  0.00  0.00    +0.000 A 
ATOM     26  C   UNL     1      -8.574   0.323 131.812  0.00  0.00    +0.000 A 
ATOM     27  C   UNL     1      -8.269  -0.683 130.881  0.00  0.00    +0.000 A 
ATOM     28  C   UNL     1      -6.980  -0.806 130.343  0.00  0.00    +0.000 A 
BRANCH  28  29
ATOM     29  O   UNL     1      -6.841  -1.877 129.465  0.00  0.00    +0.000 OA
BRANCH  29  30
ATOM     30  C   UNL     1      -7.627  -2.010 128.328  0.00  0.00    +0.000 A 
ATOM     31  C   UNL     1      -7.616  -1.086 127.342  0.00  0.00    +0.000 A 
ATOM     32  C   UNL     1      -8.281  -1.360 126.108  0.00  0.00    +0.000 A 
ATOM     33  N   UNL     1      -8.416  -0.666 124.999  0.00  0.00    +0.000 NA
ATOM     34  C   UNL     1      -9.103  -1.519 124.187  0.00  0.00    +0.000 A 
ATOM     35  N   UNL     1      -9.371  -2.721 124.697  0.00  0.00    +0.000 NA
ATOM     36  N   UNL     1      -8.885  -2.612 125.957  0.00  0.00    +0.000 N 
ATOM     37  C   UNL     1      -8.957  -3.533 126.998  0.00  0.00    +0.000 A 
ATOM     38  C   UNL     1      -8.441  -3.221 128.203  0.00  0.00    +0.000 A 
ENDBRANCH  29  30
ENDBRANCH  28  29
ENDBRANCH   1  25
TORSDOF 4
ENDMDL
MODEL 7
REMARK VINA RESULT:      -8.9      3.774      6.991
REMARK  Name = Tucatinib
REMARK  7 active torsions:
REMARK  status: ('A' for Active; 'I' for Inactive)
REMARK    1  A    between atoms: C_1  and  C_2
REMARK    2  A    between atoms: C_4  and  N_5
REMARK    3  A    between atoms: C_13  and  N_14
REMARK    4  A    between atoms: C_17  and  C_18
REMARK    5  A    between atoms: C_17  and  C_19
REMARK    6  A    between atoms: C_26  and  O_27
REMARK    7  A    between atoms: O_27  and  C_28
REMARK                            x       y       z     vdW  Elec       q    Type
REMARK                         _______ _______ _______ _____ _____    ______ ____
ROOT
ATOM      1  N   UNL     1      -6.446  -1.608 125.350  0.00  0.00    +0.000 N 
ATOM      2  C   UNL     1      -7.494  -1.583 124.400  0.00  0.00    +0.000 A 
ATOM      3  N   UNL     1      -7.847  -2.745 123.818  0.00  0.00    +0.000 NA
ATOM      4  C   UNL     1      -8.936  -2.697 123.037  0.00  0.00    +0.000 A 
ATOM      5  N   UNL     1      -9.665  -1.608 122.757  0.00  0.00    +0.000 NA
ATOM      6  C   UNL     1      -9.260  -0.458 123.305  0.00  0.00    +0.000 A 
ATOM      7  C   UNL     1      -9.956   0.709 123.044  0.00  0.00    +0.000 A 
ATOM      8  C   UNL     1      -9.587   1.936 123.611  0.00  0.00    +0.000 A 
ATOM      9  C   UNL     1      -8.489   2.047 124.465  0.00  0.00    +0.000 A 
ATOM     10  C   UNL     1      -7.773   0.881 124.711  0.00  0.00    +0.000 A 
ATOM     11  C   UNL     1      -8.157  -0.371 124.152  0.00  0.00    +0.000 A 
ATOM     12  H   UNL     1      -5.805  -2.371 125.150  0.00  0.00    +0.000 HD
ENDROOT
BRANCH   9  13
ATOM     13  N   UNL     1      -8.167   3.236 125.162  0.00  0.00    +0.000 N 
ATOM     14  C   UNL     1      -6.862   3.544 125.439  0.00  0.00    +0.000 C 
ATOM     15  N   UNL     1      -6.282   3.485 126.585  0.00  0.00    +0.000 NA
ATOM     16  C   UNL     1      -4.874   3.839 126.303  0.00  0.00    +0.000 C 
ATOM     17  C   UNL     1      -4.460   4.969 127.240  0.00  0.00    +0.000 C 
ATOM     18  C   UNL     1      -3.980   2.616 126.530  0.00  0.00    +0.000 C 
ATOM     19  C   UNL     1      -4.857   4.270 124.843  0.00  0.00    +0.000 C 
ATOM     20  O   UNL     1      -6.155   3.965 124.358  0.00  0.00    +0.000 OA
ATOM     21  H   UNL     1      -8.767   3.353 125.971  0.00  0.00    +0.000 HD
ENDBRANCH   9  13
BRANCH   1  25
ATOM     22  C   UNL     1      -8.374  -3.275 129.480  0.00  0.00    +0.000 C 
ATOM     23  C   UNL     1      -7.478  -2.241 128.880  0.00  0.00    +0.000 A 
ATOM     24  C   UNL     1      -7.378  -2.299 127.471  0.00  0.00    +0.000 A 
ATOM     25  C   UNL     1      -6.618  -1.393 126.743  0.00  0.00    +0.000 A 
ATOM     26  C   UNL     1      -5.934  -0.411 127.470  0.00  0.00    +0.000 A 
ATOM     27  C   UNL     1      -5.968  -0.372 128.874  0.00  0.00    +0.000 A 
ATOM     28  C   UNL     1      -6.725  -1.297 129.606  0.00  0.00    +0.000 A 
BRANCH  28  29
ATOM     29  O   UNL     1      -6.618  -1.140 130.984  0.00  0.00    +0.000 OA
BRANCH  29  30
ATOM     30  C   UNL     1      -7.332  -0.173 131.679  0.00  0.00    +0.000 A 
ATOM     31  C   UNL     1      -6.728   0.686 132.529  0.00  0.00    +0.000 A 
ATOM     32  C   UNL     1      -7.463   1.788 133.064  0.00  0.00    +0.000 A 
ATOM     33  N   UNL     1      -7.132   2.763 133.882  0.00  0.00    +0.000 NA
ATOM     34  C   UNL     1      -8.268   3.514 133.936  0.00  0.00    +0.000 A 
ATOM     35  N   UNL     1      -9.279   3.100 133.172  0.00  0.00    +0.000 NA
ATOM     36  N   UNL     1      -8.785   1.956 132.639  0.00  0.00    +0.000 N 
ATOM     37  C   UNL     1      -9.426   1.031 131.820  0.00  0.00    +0.000 A 
ATOM     38  C   UNL     1      -8.771  -0.076 131.421  0.00  0.00    +0.000 A 
ENDBRANCH  29  30
ENDBRANCH  28  29
ENDBRANCH   1  25
TORSDOF 4
ENDMDL
MODEL 8
REMARK VINA RESULT:      -8.8      1.763      2.751
REMARK  Name = Tucatinib
REMARK  7 active torsions:
REMARK  status: ('A' for Active; 'I' for Inactive)
REMARK    1  A    between atoms: C_1  and  C_2
REMARK    2  A    between atoms: C_4  and  N_5
REMARK    3  A    between atoms: C_13  and  N_14
REMARK    4  A    between atoms: C_17  and  C_18
REMARK    5  A    between atoms: C_17  and  C_19
REMARK    6  A    between atoms: C_26  and  O_27
REMARK    7  A    between atoms: O_27  and  C_28
REMARK                            x       y       z     vdW  Elec       q    Type
REMARK                         _______ _______ _______ _____ _____    ______ ____
ROOT
ATOM      1  N   UNL     1      -6.784  -0.675 130.536  0.00  0.00    +0.000 N 
ATOM      2  C   UNL     1      -7.327  -1.486 129.513  0.00  0.00    +0.000 A 
ATOM      3  N   UNL     1      -7.690  -2.744 129.829  0.00  0.00    +0.000 NA
ATOM      4  C   UNL     1      -8.331  -3.424 128.867  0.00  0.00    +0.000 A 
ATOM      5  N   UNL     1      -8.601  -2.986 127.629  0.00  0.00    +0.000 NA
ATOM      6  C   UNL     1      -8.182  -1.753 127.326  0.00  0.00    +0.000 A 
ATOM      7  C   UNL     1      -8.412  -1.242 126.060  0.00  0.00    +0.000 A 
ATOM      8  C   UNL     1      -8.015   0.051 125.698  0.00  0.00    +0.000 A 
ATOM      9  C   UNL     1      -7.357   0.892 126.595  0.00  0.00    +0.000 A 
ATOM     10  C   UNL     1      -7.102   0.376 127.860  0.00  0.00    +0.000 A 
ATOM     11  C   UNL     1      -7.522  -0.932 128.238  0.00  0.00    +0.000 A 
ATOM     12  H   UNL     1      -6.322  -1.250 131.235  0.00  0.00    +0.000 HD
ENDROOT
BRANCH   9  13
ATOM     13  N   UNL     1      -7.062   2.248 126.313  0.00  0.00    +0.000 N 
ATOM     14  C   UNL     1      -5.894   2.809 126.757  0.00  0.00    +0.000 C 
ATOM     15  N   UNL     1      -5.761   3.656 127.714  0.00  0.00    +0.000 NA
ATOM     16  C   UNL     1      -4.301   3.861 127.824  0.00  0.00    +0.000 C 
ATOM     17  C   UNL     1      -4.014   5.358 127.763  0.00  0.00    +0.000 C 
ATOM     18  C   UNL     1      -3.798   3.285 129.151  0.00  0.00    +0.000 C 
ATOM     19  C   UNL     1      -3.705   3.115 126.639  0.00  0.00    +0.000 C 
ATOM     20  O   UNL     1      -4.794   2.407 126.068  0.00  0.00    +0.000 OA
ATOM     21  H   UNL     1      -7.865   2.837 126.499  0.00  0.00    +0.000 HD
ENDBRANCH   9  13
BRANCH   1  25
ATOM     22  C   UNL     1      -6.373   3.961 131.912  0.00  0.00    +0.000 C 
ATOM     23  C   UNL     1      -7.322   2.824 131.718  0.00  0.00    +0.000 A 
ATOM     24  C   UNL     1      -6.714   1.619 131.298  0.00  0.00    +0.000 A 
ATOM     25  C   UNL     1      -7.439   0.450 131.103  0.00  0.00    +0.000 A 
ATOM     26  C   UNL     1      -8.820   0.515 131.332  0.00  0.00    +0.000 A 
ATOM     27  C   UNL     1      -9.455   1.716 131.689  0.00  0.00    +0.000 A 
ATOM     28  C   UNL     1      -8.721   2.897 131.871  0.00  0.00    +0.000 A 
BRANCH  28  29
ATOM     29  O   UNL     1      -9.508   4.000 132.186  0.00  0.00    +0.000 OA
BRANCH  29  30
ATOM     30  C   UNL     1      -9.881   4.941 131.234  0.00  0.00    +0.000 A 
ATOM     31  C   UNL     1     -11.033   4.829 130.535  0.00  0.00    +0.000 A 
ATOM     32  C   UNL     1     -11.473   5.915 129.719  0.00  0.00    +0.000 A 
ATOM     33  N   UNL     1     -12.534   6.083 128.961  0.00  0.00    +0.000 NA
ATOM     34  C   UNL     1     -12.389   7.361 128.511  0.00  0.00    +0.000 A 
ATOM     35  N   UNL     1     -11.327   8.024 128.970  0.00  0.00    +0.000 NA
ATOM     36  N   UNL     1     -10.702   7.082 129.716  0.00  0.00    +0.000 N 
ATOM     37  C   UNL     1      -9.481   7.169 130.379  0.00  0.00    +0.000 A 
ATOM     38  C   UNL     1      -9.004   6.099 131.044  0.00  0.00    +0.000 A 
ENDBRANCH  29  30
ENDBRANCH  28  29
ENDBRANCH   1  25
TORSDOF 4
ENDMDL
MODEL 9
REMARK VINA RESULT:      -8.6      3.120      6.674
REMARK  Name = Tucatinib
REMARK  7 active torsions:
REMARK  status: ('A' for Active; 'I' for Inactive)
REMARK    1  A    between atoms: C_1  and  C_2
REMARK    2  A    between atoms: C_4  and  N_5
REMARK    3  A    between atoms: C_13  and  N_14
REMARK    4  A    between atoms: C_17  and  C_18
REMARK    5  A    between atoms: C_17  and  C_19
REMARK    6  A    between atoms: C_26  and  O_27
REMARK    7  A    between atoms: O_27  and  C_28
REMARK                            x       y       z     vdW  Elec       q    Type
REMARK                         _______ _______ _______ _____ _____    ______ ____
ROOT
ATOM      1  N   UNL     1      -6.678   0.799 131.707  0.00  0.00    +0.000 N 
ATOM      2  C   UNL     1      -5.921   1.423 132.725  0.00  0.00    +0.000 A 
ATOM      3  N   UNL     1      -4.645   1.028 132.895  0.00  0.00    +0.000 NA
ATOM      4  C   UNL     1      -3.925   1.746 133.770  0.00  0.00    +0.000 A 
ATOM      5  N   UNL     1      -4.367   2.775 134.506  0.00  0.00    +0.000 NA
ATOM      6  C   UNL     1      -5.652   3.112 134.356  0.00  0.00    +0.000 A 
ATOM      7  C   UNL     1      -6.180   4.155 135.097  0.00  0.00    +0.000 A 
ATOM      8  C   UNL     1      -7.513   4.562 134.961  0.00  0.00    +0.000 A 
ATOM      9  C   UNL     1      -8.384   3.929 134.074  0.00  0.00    +0.000 A 
ATOM     10  C   UNL     1      -7.866   2.866 133.344  0.00  0.00    +0.000 A 
ATOM     11  C   UNL     1      -6.505   2.462 133.466  0.00  0.00    +0.000 A 
ATOM     12  H   UNL     1      -6.340  -0.145 131.543  0.00  0.00    +0.000 HD
ENDROOT
BRANCH   9  13
ATOM     13  N   UNL     1      -9.694   4.396 133.809  0.00  0.00    +0.000 N 
ATOM     14  C   UNL     1      -9.981   5.019 132.624  0.00  0.00    +0.000 C 
ATOM     15  N   UNL     1     -10.198   6.274 132.446  0.00  0.00    +0.000 NA
ATOM     16  C   UNL     1     -10.370   6.413 130.983  0.00  0.00    +0.000 C 
ATOM     17  C   UNL     1     -11.682   7.142 130.716  0.00  0.00    +0.000 C 
ATOM     18  C   UNL     1      -9.199   7.210 130.400  0.00  0.00    +0.000 C 
ATOM     19  C   UNL     1     -10.387   4.988 130.448  0.00  0.00    +0.000 C 
ATOM     20  O   UNL     1     -10.046   4.176 131.561  0.00  0.00    +0.000 OA
ATOM     21  H   UNL     1     -10.065   4.901 134.606  0.00  0.00    +0.000 HD
ENDBRANCH   9  13
BRANCH   1  25
ATOM     22  C   UNL     1      -5.314   2.856 127.528  0.00  0.00    +0.000 C 
ATOM     23  C   UNL     1      -6.481   2.394 128.338  0.00  0.00    +0.000 A 
ATOM     24  C   UNL     1      -6.143   1.881 129.611  0.00  0.00    +0.000 A 
ATOM     25  C   UNL     1      -7.103   1.439 130.513  0.00  0.00    +0.000 A 
ATOM     26  C   UNL     1      -8.440   1.513 130.101  0.00  0.00    +0.000 A 
ATOM     27  C   UNL     1      -8.796   1.959 128.818  0.00  0.00    +0.000 A 
ATOM     28  C   UNL     1      -7.822   2.391 127.906  0.00  0.00    +0.000 A 
BRANCH  28  29
ATOM     29  O   UNL     1      -8.341   2.765 126.670  0.00  0.00    +0.000 OA
BRANCH  29  30
ATOM     30  C   UNL     1      -8.513   1.858 125.633  0.00  0.00    +0.000 A 
ATOM     31  C   UNL     1      -8.156   0.560 125.754  0.00  0.00    +0.000 A 
ATOM     32  C   UNL     1      -8.534  -0.375 124.743  0.00  0.00    +0.000 A 
ATOM     33  N   UNL     1      -8.339  -1.669 124.613  0.00  0.00    +0.000 NA
ATOM     34  C   UNL     1      -9.009  -1.965 123.463  0.00  0.00    +0.000 A 
ATOM     35  N   UNL     1      -9.649  -0.949 122.884  0.00  0.00    +0.000 NA
ATOM     36  N   UNL     1      -9.310   0.094 123.678  0.00  0.00    +0.000 N 
ATOM     37  C   UNL     1      -9.615   1.443 123.519  0.00  0.00    +0.000 A 
ATOM     38  C   UNL     1      -9.148   2.344 124.405  0.00  0.00    +0.000 A 
ENDBRANCH  29  30
ENDBRANCH  28  29
ENDBRANCH   1  25
TORSDOF 4
ENDMDL
