MODEL 1
REMARK VINA RESULT:      -6.0      0.000      0.000
REMARK  Name = Tyropanoic acid
REMARK  10 active torsions:
REMARK  status: ('A' for Active; 'I' for Inactive)
REMARK    1  A    between atoms: C_1  and  C_2
REMARK    2  A    between atoms: C_2  and  C_3
REMARK    3  A    between atoms: C_3  and  C_4
REMARK    4  A    between atoms: N_6  and  C_7
REMARK    5  A    between atoms: C_13  and  C_14
REMARK    6  A    between atoms: C_14  and  C_15
REMARK    7  A    between atoms: C_15  and  C_16
REMARK    8  A    between atoms: C_15  and  C_18
REMARK    9  A    between atoms: C_16  and  C_17
REMARK   10  A    between atoms: C_18  and  O_19
REMARK                            x       y       z     vdW  Elec       q    Type
REMARK                         _______ _______ _______ _____ _____    ______ ____
ROOT
ATOM      1  C   UNL     1      -7.965  -0.435 125.381  0.00  0.00    +0.000 A 
ATOM      2  C   UNL     1      -8.441  -1.747 125.502  0.00  0.00    +0.000 A 
ATOM      3  I   UNL     1      -8.895  -2.964 123.818  0.00  0.00    +0.000 I 
ATOM      4  C   UNL     1      -8.360  -2.440 126.715  0.00  0.00    +0.000 A 
ATOM      5  C   UNL     1      -7.820  -1.833 127.848  0.00  0.00    +0.000 A 
ATOM      6  I   UNL     1      -7.692  -3.087 129.566  0.00  0.00    +0.000 I 
ATOM      7  C   UNL     1      -7.307  -0.516 127.801  0.00  0.00    +0.000 A 
ATOM      8  C   UNL     1      -7.233   0.088 126.489  0.00  0.00    +0.000 A 
ATOM      9  I   UNL     1      -6.009   1.955 125.946  0.00  0.00    +0.000 I 
ENDROOT
BRANCH   1  12
ATOM     10  C   UNL     1      -9.519   0.951 124.015  0.00  0.00    +0.000 C 
ATOM     11  O   UNL     1     -10.443   0.905 124.826  0.00  0.00    +0.000 OA
ATOM     12  N   UNL     1      -8.256   0.393 124.237  0.00  0.00    +0.000 N 
ATOM     13  H   UNL     1      -7.474   0.911 123.845  0.00  0.00    +0.000 HD
BRANCH  10  14
ATOM     14  C   UNL     1      -9.680   1.688 122.687  0.00  0.00    +0.000 C 
BRANCH  14  16
ATOM     15  C   UNL     1      -8.684   3.507 121.202  0.00  0.00    +0.000 C 
ATOM     16  C   UNL     1      -8.633   2.809 122.551  0.00  0.00    +0.000 C 
ENDBRANCH  14  16
ENDBRANCH  10  14
ENDBRANCH   1  12
BRANCH   7  17
ATOM     17  C   UNL     1      -7.116   0.163 129.164  0.00  0.00    +0.000 C 
BRANCH  17  18
ATOM     18  C   UNL     1      -8.274   0.980 129.703  0.00  0.00    +0.000 C 
BRANCH  18  19
ATOM     19  C   UNL     1      -8.540   0.787 131.233  0.00  0.00    +0.000 C 
ATOM     20  C   UNL     1      -9.739   1.433 131.943  0.00  0.00    +0.000 C 
ENDBRANCH  18  19
BRANCH  18  21
ATOM     21  C   UNL     1      -8.282   2.480 129.389  0.00  0.00    +0.000 C 
ATOM     22  O   UNL     1      -9.227   3.006 128.838  0.00  0.00    +0.000 OA
BRANCH  21  23
ATOM     23  O   UNL     1      -7.187   3.197 129.712  0.00  0.00    +0.000 OA
ATOM     24  H   UNL     1      -6.437   2.748 130.132  0.00  0.00    +0.000 HD
ENDBRANCH  21  23
ENDBRANCH  18  21
ENDBRANCH  17  18
ENDBRANCH   7  17
TORSDOF 8
ENDMDL
MODEL 2
REMARK VINA RESULT:      -5.8      3.600      5.256
REMARK  Name = Tyropanoic acid
REMARK  10 active torsions:
REMARK  status: ('A' for Active; 'I' for Inactive)
REMARK    1  A    between atoms: C_1  and  C_2
REMARK    2  A    between atoms: C_2  and  C_3
REMARK    3  A    between atoms: C_3  and  C_4
REMARK    4  A    between atoms: N_6  and  C_7
REMARK    5  A    between atoms: C_13  and  C_14
REMARK    6  A    between atoms: C_14  and  C_15
REMARK    7  A    between atoms: C_15  and  C_16
REMARK    8  A    between atoms: C_15  and  C_18
REMARK    9  A    between atoms: C_16  and  C_17
REMARK   10  A    between atoms: C_18  and  O_19
REMARK                            x       y       z     vdW  Elec       q    Type
REMARK                         _______ _______ _______ _____ _____    ______ ____
ROOT
ATOM      1  C   UNL     1      -7.768  -1.100 126.934  0.00  0.00    +0.000 A 
ATOM      2  C   UNL     1      -7.661   0.294 127.017  0.00  0.00    +0.000 A 
ATOM      3  I   UNL     1      -8.030   1.576 125.361  0.00  0.00    +0.000 I 
ATOM      4  C   UNL     1      -7.604   0.946 128.254  0.00  0.00    +0.000 A 
ATOM      5  C   UNL     1      -7.631   0.219 129.444  0.00  0.00    +0.000 A 
ATOM      6  I   UNL     1      -7.639   1.399 131.219  0.00  0.00    +0.000 I 
ATOM      7  C   UNL     1      -7.751  -1.190 129.441  0.00  0.00    +0.000 A 
ATOM      8  C   UNL     1      -8.002  -1.801 128.155  0.00  0.00    +0.000 A 
ATOM      9  I   UNL     1      -8.758  -3.945 127.820  0.00  0.00    +0.000 I 
ENDROOT
BRANCH   1  12
ATOM     10  C   UNL     1      -6.316  -2.250 125.268  0.00  0.00    +0.000 C 
ATOM     11  O   UNL     1      -5.295  -2.180 125.951  0.00  0.00    +0.000 OA
ATOM     12  N   UNL     1      -7.575  -1.820 125.700  0.00  0.00    +0.000 N 
ATOM     13  H   UNL     1      -8.362  -2.376 125.375  0.00  0.00    +0.000 HD
BRANCH  10  14
ATOM     14  C   UNL     1      -6.284  -2.879 123.877  0.00  0.00    +0.000 C 
BRANCH  14  16
ATOM     15  C   UNL     1      -4.490  -4.674 123.623  0.00  0.00    +0.000 C 
ATOM     16  C   UNL     1      -4.839  -3.204 123.454  0.00  0.00    +0.000 C 
ENDBRANCH  14  16
ENDBRANCH  10  14
ENDBRANCH   1  12
BRANCH   7  17
ATOM     17  C   UNL     1      -7.374  -1.884 130.757  0.00  0.00    +0.000 C 
BRANCH  17  18
ATOM     18  C   UNL     1      -6.013  -2.548 130.829  0.00  0.00    +0.000 C 
BRANCH  18  19
ATOM     19  C   UNL     1      -6.041  -4.099 130.619  0.00  0.00    +0.000 C 
ATOM     20  C   UNL     1      -5.408  -5.072 131.623  0.00  0.00    +0.000 C 
ENDBRANCH  18  19
BRANCH  18  21
ATOM     21  C   UNL     1      -4.896  -1.956 129.961  0.00  0.00    +0.000 C 
ATOM     22  O   UNL     1      -4.331  -0.929 130.273  0.00  0.00    +0.000 OA
BRANCH  21  23
ATOM     23  O   UNL     1      -4.584  -2.594 128.815  0.00  0.00    +0.000 OA
ATOM     24  H   UNL     1      -3.904  -2.216 128.237  0.00  0.00    +0.000 HD
ENDBRANCH  21  23
ENDBRANCH  18  21
ENDBRANCH  17  18
ENDBRANCH   7  17
TORSDOF 8
ENDMDL
MODEL 3
REMARK VINA RESULT:      -5.8      6.317      7.836
REMARK  Name = Tyropanoic acid
REMARK  10 active torsions:
REMARK  status: ('A' for Active; 'I' for Inactive)
REMARK    1  A    between atoms: C_1  and  C_2
REMARK    2  A    between atoms: C_2  and  C_3
REMARK    3  A    between atoms: C_3  and  C_4
REMARK    4  A    between atoms: N_6  and  C_7
REMARK    5  A    between atoms: C_13  and  C_14
REMARK    6  A    between atoms: C_14  and  C_15
REMARK    7  A    between atoms: C_15  and  C_16
REMARK    8  A    between atoms: C_15  and  C_18
REMARK    9  A    between atoms: C_16  and  C_17
REMARK   10  A    between atoms: C_18  and  O_19
REMARK                            x       y       z     vdW  Elec       q    Type
REMARK                         _______ _______ _______ _____ _____    ______ ____
ROOT
ATOM      1  C   UNL     1      -7.427   4.380 130.798  0.00  0.00    +0.000 A 
ATOM      2  C   UNL     1      -7.293   4.176 132.178  0.00  0.00    +0.000 A 
ATOM      3  I   UNL     1      -8.943   3.703 133.434  0.00  0.00    +0.000 I 
ATOM      4  C   UNL     1      -6.040   3.972 132.764  0.00  0.00    +0.000 A 
ATOM      5  C   UNL     1      -4.880   3.987 131.990  0.00  0.00    +0.000 A 
ATOM      6  I   UNL     1      -3.083   3.555 133.052  0.00  0.00    +0.000 I 
ATOM      7  C   UNL     1      -4.935   4.173 130.589  0.00  0.00    +0.000 A 
ATOM      8  C   UNL     1      -6.257   4.183 130.004  0.00  0.00    +0.000 A 
ATOM      9  I   UNL     1      -6.729   3.941 127.768  0.00  0.00    +0.000 I 
ENDROOT
BRANCH   1  12
ATOM     10  C   UNL     1      -9.005   6.193 130.150  0.00  0.00    +0.000 C 
ATOM     11  O   UNL     1      -8.256   7.110 130.483  0.00  0.00    +0.000 OA
ATOM     12  N   UNL     1      -8.653   4.840 130.197  0.00  0.00    +0.000 N 
ATOM     13  H   UNL     1      -9.035   4.263 129.452  0.00  0.00    +0.000 HD
BRANCH  10  14
ATOM     14  C   UNL     1     -10.399   6.484 129.595  0.00  0.00    +0.000 C 
BRANCH  14  16
ATOM     15  C   UNL     1     -10.751   8.092 127.647  0.00  0.00    +0.000 C 
ATOM     16  C   UNL     1     -10.513   7.952 129.142  0.00  0.00    +0.000 C 
ENDBRANCH  14  16
ENDBRANCH  10  14
ENDBRANCH   1  12
BRANCH   7  17
ATOM     17  C   UNL     1      -3.606   4.560 129.925  0.00  0.00    +0.000 C 
BRANCH  17  18
ATOM     18  C   UNL     1      -3.247   6.033 129.894  0.00  0.00    +0.000 C 
BRANCH  18  19
ATOM     19  C   UNL     1      -1.718   6.326 130.051  0.00  0.00    +0.000 C 
ATOM     20  C   UNL     1      -1.065   6.550 131.423  0.00  0.00    +0.000 C 
ENDBRANCH  18  19
BRANCH  18  21
ATOM     21  C   UNL     1      -3.788   6.863 128.725  0.00  0.00    +0.000 C 
ATOM     22  O   UNL     1      -3.938   6.378 127.622  0.00  0.00    +0.000 OA
BRANCH  21  23
ATOM     23  O   UNL     1      -4.058   8.165 128.948  0.00  0.00    +0.000 OA
ATOM     24  H   UNL     1      -3.767   8.570 129.779  0.00  0.00    +0.000 HD
ENDBRANCH  21  23
ENDBRANCH  18  21
ENDBRANCH  17  18
ENDBRANCH   7  17
TORSDOF 8
ENDMDL
MODEL 4
REMARK VINA RESULT:      -5.8      3.050      4.495
REMARK  Name = Tyropanoic acid
REMARK  10 active torsions:
REMARK  status: ('A' for Active; 'I' for Inactive)
REMARK    1  A    between atoms: C_1  and  C_2
REMARK    2  A    between atoms: C_2  and  C_3
REMARK    3  A    between atoms: C_3  and  C_4
REMARK    4  A    between atoms: N_6  and  C_7
REMARK    5  A    between atoms: C_13  and  C_14
REMARK    6  A    between atoms: C_14  and  C_15
REMARK    7  A    between atoms: C_15  and  C_16
REMARK    8  A    between atoms: C_15  and  C_18
REMARK    9  A    between atoms: C_16  and  C_17
REMARK   10  A    between atoms: C_18  and  O_19
REMARK                            x       y       z     vdW  Elec       q    Type
REMARK                         _______ _______ _______ _____ _____    ______ ____
ROOT
ATOM      1  C   UNL     1      -7.973  -0.580 126.229  0.00  0.00    +0.000 A 
ATOM      2  C   UNL     1      -8.283   0.726 125.828  0.00  0.00    +0.000 A 
ATOM      3  I   UNL     1      -9.139   1.173 123.933  0.00  0.00    +0.000 I 
ATOM      4  C   UNL     1      -8.333   1.776 126.751  0.00  0.00    +0.000 A 
ATOM      5  C   UNL     1      -8.053   1.555 128.099  0.00  0.00    +0.000 A 
ATOM      6  I   UNL     1      -8.284   3.259 129.357  0.00  0.00    +0.000 I 
ATOM      7  C   UNL     1      -7.746   0.262 128.582  0.00  0.00    +0.000 A 
ATOM      8  C   UNL     1      -7.897  -0.820 127.635  0.00  0.00    +0.000 A 
ATOM      9  I   UNL     1      -7.999  -3.054 128.164  0.00  0.00    +0.000 I 
ENDROOT
BRANCH   1  12
ATOM     10  C   UNL     1      -6.371  -1.848 124.805  0.00  0.00    +0.000 C 
ATOM     11  O   UNL     1      -5.371  -1.272 125.231  0.00  0.00    +0.000 OA
ATOM     12  N   UNL     1      -7.665  -1.628 125.288  0.00  0.00    +0.000 N 
ATOM     13  H   UNL     1      -8.268  -2.446 125.312  0.00  0.00    +0.000 HD
BRANCH  10  14
ATOM     14  C   UNL     1      -6.255  -2.914 123.717  0.00  0.00    +0.000 C 
BRANCH  14  16
ATOM     15  C   UNL     1      -4.378  -4.639 123.640  0.00  0.00    +0.000 C 
ATOM     16  C   UNL     1      -4.779  -3.196 123.380  0.00  0.00    +0.000 C 
ENDBRANCH  14  16
ENDBRANCH  10  14
ENDBRANCH   1  12
BRANCH   7  17
ATOM     17  C   UNL     1      -7.084   0.218 129.966  0.00  0.00    +0.000 C 
BRANCH  17  18
ATOM     18  C   UNL     1      -7.824  -0.513 131.069  0.00  0.00    +0.000 C 
BRANCH  18  19
ATOM     19  C   UNL     1      -6.940  -1.519 131.879  0.00  0.00    +0.000 C 
ATOM     20  C   UNL     1      -7.515  -2.806 132.487  0.00  0.00    +0.000 C 
ENDBRANCH  18  19
BRANCH  18  21
ATOM     21  C   UNL     1      -8.630   0.338 132.057  0.00  0.00    +0.000 C 
ATOM     22  O   UNL     1      -9.832   0.462 131.950  0.00  0.00    +0.000 OA
BRANCH  21  23
ATOM     23  O   UNL     1      -7.955   0.977 133.034  0.00  0.00    +0.000 OA
ATOM     24  H   UNL     1      -7.061   1.307 132.851  0.00  0.00    +0.000 HD
ENDBRANCH  21  23
ENDBRANCH  18  21
ENDBRANCH  17  18
ENDBRANCH   7  17
TORSDOF 8
ENDMDL
MODEL 5
REMARK VINA RESULT:      -5.7      4.567      8.008
REMARK  Name = Tyropanoic acid
REMARK  10 active torsions:
REMARK  status: ('A' for Active; 'I' for Inactive)
REMARK    1  A    between atoms: C_1  and  C_2
REMARK    2  A    between atoms: C_2  and  C_3
REMARK    3  A    between atoms: C_3  and  C_4
REMARK    4  A    between atoms: N_6  and  C_7
REMARK    5  A    between atoms: C_13  and  C_14
REMARK    6  A    between atoms: C_14  and  C_15
REMARK    7  A    between atoms: C_15  and  C_16
REMARK    8  A    between atoms: C_15  and  C_18
REMARK    9  A    between atoms: C_16  and  C_17
REMARK   10  A    between atoms: C_18  and  O_19
REMARK                            x       y       z     vdW  Elec       q    Type
REMARK                         _______ _______ _______ _____ _____    ______ ____
ROOT
ATOM      1  C   UNL     1      -5.693   3.936 130.389  0.00  0.00    +0.000 A 
ATOM      2  C   UNL     1      -4.334   4.265 130.483  0.00  0.00    +0.000 A 
ATOM      3  I   UNL     1      -3.362   4.612 132.342  0.00  0.00    +0.000 I 
ATOM      4  C   UNL     1      -3.468   4.090 129.398  0.00  0.00    +0.000 A 
ATOM      5  C   UNL     1      -3.940   3.601 128.180  0.00  0.00    +0.000 A 
ATOM      6  I   UNL     1      -2.447   3.310 126.688  0.00  0.00    +0.000 I 
ATOM      7  C   UNL     1      -5.296   3.233 128.013  0.00  0.00    +0.000 A 
ATOM      8  C   UNL     1      -6.107   3.246 129.210  0.00  0.00    +0.000 A 
ATOM      9  I   UNL     1      -8.160   2.240 129.442  0.00  0.00    +0.000 I 
ENDROOT
BRANCH   1  12
ATOM     10  C   UNL     1      -7.259   5.595 131.387  0.00  0.00    +0.000 C 
ATOM     11  O   UNL     1      -7.133   6.418 130.481  0.00  0.00    +0.000 OA
ATOM     12  N   UNL     1      -6.657   4.332 131.385  0.00  0.00    +0.000 N 
ATOM     13  H   UNL     1      -7.205   3.585 131.804  0.00  0.00    +0.000 HD
BRANCH  10  14
ATOM     14  C   UNL     1      -8.154   5.887 132.589  0.00  0.00    +0.000 C 
BRANCH  14  16
ATOM     15  C   UNL     1      -9.122   3.935 133.915  0.00  0.00    +0.000 C 
ATOM     16  C   UNL     1      -9.278   4.841 132.704  0.00  0.00    +0.000 C 
ENDBRANCH  14  16
ENDBRANCH  10  14
ENDBRANCH   1  12
BRANCH   7  17
ATOM     17  C   UNL     1      -5.763   3.095 126.558  0.00  0.00    +0.000 C 
BRANCH  17  18
ATOM     18  C   UNL     1      -6.330   4.332 125.888  0.00  0.00    +0.000 C 
BRANCH  18  19
ATOM     19  C   UNL     1      -5.683   4.666 124.503  0.00  0.00    +0.000 C 
ATOM     20  C   UNL     1      -6.001   3.859 123.236  0.00  0.00    +0.000 C 
ENDBRANCH  18  19
BRANCH  18  21
ATOM     21  C   UNL     1      -7.854   4.421 125.752  0.00  0.00    +0.000 C 
ATOM     22  O   UNL     1      -8.551   3.428 125.789  0.00  0.00    +0.000 OA
BRANCH  21  23
ATOM     23  O   UNL     1      -8.398   5.638 125.552  0.00  0.00    +0.000 OA
ATOM     24  H   UNL     1      -8.607   5.917 124.647  0.00  0.00    +0.000 HD
ENDBRANCH  21  23
ENDBRANCH  18  21
ENDBRANCH  17  18
ENDBRANCH   7  17
TORSDOF 8
ENDMDL
MODEL 6
REMARK VINA RESULT:      -5.5      3.192      6.467
REMARK  Name = Tyropanoic acid
REMARK  10 active torsions:
REMARK  status: ('A' for Active; 'I' for Inactive)
REMARK    1  A    between atoms: C_1  and  C_2
REMARK    2  A    between atoms: C_2  and  C_3
REMARK    3  A    between atoms: C_3  and  C_4
REMARK    4  A    between atoms: N_6  and  C_7
REMARK    5  A    between atoms: C_13  and  C_14
REMARK    6  A    between atoms: C_14  and  C_15
REMARK    7  A    between atoms: C_15  and  C_16
REMARK    8  A    between atoms: C_15  and  C_18
REMARK    9  A    between atoms: C_16  and  C_17
REMARK   10  A    between atoms: C_18  and  O_19
REMARK                            x       y       z     vdW  Elec       q    Type
REMARK                         _______ _______ _______ _____ _____    ______ ____
ROOT
ATOM      1  C   UNL     1      -5.643  -0.649 127.669  0.00  0.00    +0.000 A 
ATOM      2  C   UNL     1      -5.238   0.402 128.503  0.00  0.00    +0.000 A 
ATOM      3  I   UNL     1      -4.360   0.078 130.413  0.00  0.00    +0.000 I 
ATOM      4  C   UNL     1      -5.103   1.706 128.015  0.00  0.00    +0.000 A 
ATOM      5  C   UNL     1      -5.392   2.002 126.683  0.00  0.00    +0.000 A 
ATOM      6  I   UNL     1      -5.027   4.022 126.112  0.00  0.00    +0.000 I 
ATOM      7  C   UNL     1      -5.793   0.993 125.778  0.00  0.00    +0.000 A 
ATOM      8  C   UNL     1      -5.729  -0.364 126.273  0.00  0.00    +0.000 A 
ATOM      9  I   UNL     1      -5.794  -2.262 124.979  0.00  0.00    +0.000 I 
ENDROOT
BRANCH   1  12
ATOM     10  C   UNL     1      -7.236  -2.142 128.866  0.00  0.00    +0.000 C 
ATOM     11  O   UNL     1      -8.119  -1.292 128.973  0.00  0.00    +0.000 OA
ATOM     12  N   UNL     1      -6.034  -1.939 128.181  0.00  0.00    +0.000 N 
ATOM     13  H   UNL     1      -5.669  -2.749 127.687  0.00  0.00    +0.000 HD
BRANCH  10  14
ATOM     14  C   UNL     1      -7.423  -3.541 129.450  0.00  0.00    +0.000 C 
BRANCH  14  16
ATOM     15  C   UNL     1      -5.592  -4.892 130.601  0.00  0.00    +0.000 C 
ATOM     16  C   UNL     1      -6.563  -3.728 130.714  0.00  0.00    +0.000 C 
ENDBRANCH  14  16
ENDBRANCH  10  14
ENDBRANCH   1  12
BRANCH   7  17
ATOM     17  C   UNL     1      -6.450   1.495 124.485  0.00  0.00    +0.000 C 
BRANCH  17  18
ATOM     18  C   UNL     1      -7.946   1.742 124.514  0.00  0.00    +0.000 C 
BRANCH  18  19
ATOM     19  C   UNL     1      -8.667   1.170 125.780  0.00  0.00    +0.000 C 
ATOM     20  C   UNL     1      -9.330  -0.215 125.787  0.00  0.00    +0.000 C 
ENDBRANCH  18  19
BRANCH  18  21
ATOM     21  C   UNL     1      -8.425   3.179 124.285  0.00  0.00    +0.000 C 
ATOM     22  O   UNL     1      -8.861   3.853 125.196  0.00  0.00    +0.000 OA
BRANCH  21  23
ATOM     23  O   UNL     1      -8.384   3.664 123.027  0.00  0.00    +0.000 OA
ATOM     24  H   UNL     1      -7.525   3.881 122.635  0.00  0.00    +0.000 HD
ENDBRANCH  21  23
ENDBRANCH  18  21
ENDBRANCH  17  18
ENDBRANCH   7  17
TORSDOF 8
ENDMDL
MODEL 7
REMARK VINA RESULT:      -5.5      3.374      6.225
REMARK  Name = Tyropanoic acid
REMARK  10 active torsions:
REMARK  status: ('A' for Active; 'I' for Inactive)
REMARK    1  A    between atoms: C_1  and  C_2
REMARK    2  A    between atoms: C_2  and  C_3
REMARK    3  A    between atoms: C_3  and  C_4
REMARK    4  A    between atoms: N_6  and  C_7
REMARK    5  A    between atoms: C_13  and  C_14
REMARK    6  A    between atoms: C_14  and  C_15
REMARK    7  A    between atoms: C_15  and  C_16
REMARK    8  A    between atoms: C_15  and  C_18
REMARK    9  A    between atoms: C_16  and  C_17
REMARK   10  A    between atoms: C_18  and  O_19
REMARK                            x       y       z     vdW  Elec       q    Type
REMARK                         _______ _______ _______ _____ _____    ______ ____
ROOT
ATOM      1  C   UNL     1      -5.598   0.019 128.037  0.00  0.00    +0.000 A 
ATOM      2  C   UNL     1      -5.419  -1.142 128.800  0.00  0.00    +0.000 A 
ATOM      3  I   UNL     1      -4.064  -1.243 130.437  0.00  0.00    +0.000 I 
ATOM      4  C   UNL     1      -6.327  -2.204 128.732  0.00  0.00    +0.000 A 
ATOM      5  C   UNL     1      -7.431  -2.144 127.881  0.00  0.00    +0.000 A 
ATOM      6  I   UNL     1      -8.748  -3.815 127.999  0.00  0.00    +0.000 I 
ATOM      7  C   UNL     1      -7.686  -1.000 127.090  0.00  0.00    +0.000 A 
ATOM      8  C   UNL     1      -6.836   0.143 127.338  0.00  0.00    +0.000 A 
ATOM      9  I   UNL     1      -7.259   2.295 126.650  0.00  0.00    +0.000 I 
ENDROOT
BRANCH   1  12
ATOM     10  C   UNL     1      -4.448   2.110 128.750  0.00  0.00    +0.000 C 
ATOM     11  O   UNL     1      -5.109   2.248 129.779  0.00  0.00    +0.000 OA
ATOM     12  N   UNL     1      -4.567   1.016 127.887  0.00  0.00    +0.000 N 
ATOM     13  H   UNL     1      -3.703   0.707 127.449  0.00  0.00    +0.000 HD
BRANCH  10  14
ATOM     14  C   UNL     1      -3.382   3.132 128.362  0.00  0.00    +0.000 C 
BRANCH  14  16
ATOM     15  C   UNL     1      -1.574   2.982 126.569  0.00  0.00    +0.000 C 
ATOM     16  C   UNL     1      -3.065   3.050 126.857  0.00  0.00    +0.000 C 
ENDBRANCH  14  16
ENDBRANCH  10  14
ENDBRANCH   1  12
BRANCH   7  17
ATOM     17  C   UNL     1      -8.673  -1.210 125.934  0.00  0.00    +0.000 C 
BRANCH  17  18
ATOM     18  C   UNL     1      -8.093  -1.348 124.540  0.00  0.00    +0.000 C 
BRANCH  18  19
ATOM     19  C   UNL     1      -6.631  -1.907 124.505  0.00  0.00    +0.000 C 
ATOM     20  C   UNL     1      -6.330  -3.398 124.297  0.00  0.00    +0.000 C 
ENDBRANCH  18  19
BRANCH  18  21
ATOM     21  C   UNL     1      -8.930  -2.103 123.502  0.00  0.00    +0.000 C 
ATOM     22  O   UNL     1      -8.789  -1.906 122.312  0.00  0.00    +0.000 OA
BRANCH  21  23
ATOM     23  O   UNL     1      -9.860  -2.970 123.951  0.00  0.00    +0.000 OA
ATOM     24  H   UNL     1      -9.852  -3.224 124.887  0.00  0.00    +0.000 HD
ENDBRANCH  21  23
ENDBRANCH  18  21
ENDBRANCH  17  18
ENDBRANCH   7  17
TORSDOF 8
ENDMDL
MODEL 8
REMARK VINA RESULT:      -5.5      2.042      2.871
REMARK  Name = Tyropanoic acid
REMARK  10 active torsions:
REMARK  status: ('A' for Active; 'I' for Inactive)
REMARK    1  A    between atoms: C_1  and  C_2
REMARK    2  A    between atoms: C_2  and  C_3
REMARK    3  A    between atoms: C_3  and  C_4
REMARK    4  A    between atoms: N_6  and  C_7
REMARK    5  A    between atoms: C_13  and  C_14
REMARK    6  A    between atoms: C_14  and  C_15
REMARK    7  A    between atoms: C_15  and  C_16
REMARK    8  A    between atoms: C_15  and  C_18
REMARK    9  A    between atoms: C_16  and  C_17
REMARK   10  A    between atoms: C_18  and  O_19
REMARK                            x       y       z     vdW  Elec       q    Type
REMARK                         _______ _______ _______ _____ _____    ______ ____
ROOT
ATOM      1  C   UNL     1      -7.629  -0.184 125.143  0.00  0.00    +0.000 A 
ATOM      2  C   UNL     1      -8.399  -1.325 124.883  0.00  0.00    +0.000 A 
ATOM      3  I   UNL     1      -8.877  -1.962 122.911  0.00  0.00    +0.000 I 
ATOM      4  C   UNL     1      -8.642  -2.280 125.876  0.00  0.00    +0.000 A 
ATOM      5  C   UNL     1      -8.142  -2.109 127.167  0.00  0.00    +0.000 A 
ATOM      6  I   UNL     1      -8.535  -3.720 128.505  0.00  0.00    +0.000 I 
ATOM      7  C   UNL     1      -7.345  -0.990 127.503  0.00  0.00    +0.000 A 
ATOM      8  C   UNL     1      -6.957  -0.136 126.402  0.00  0.00    +0.000 A 
ATOM      9  I   UNL     1      -5.283   1.438 126.458  0.00  0.00    +0.000 I 
ENDROOT
BRANCH   1  12
ATOM     10  C   UNL     1      -8.548   1.929 124.199  0.00  0.00    +0.000 C 
ATOM     11  O   UNL     1      -9.464   2.021 125.015  0.00  0.00    +0.000 OA
ATOM     12  N   UNL     1      -7.566   0.933 124.235  0.00  0.00    +0.000 N 
ATOM     13  H   UNL     1      -6.637   1.224 123.941  0.00  0.00    +0.000 HD
BRANCH  10  14
ATOM     14  C   UNL     1      -8.387   2.962 123.085  0.00  0.00    +0.000 C 
BRANCH  14  16
ATOM     15  C   UNL     1      -6.468   3.458 121.480  0.00  0.00    +0.000 C 
ATOM     16  C   UNL     1      -6.912   3.378 122.932  0.00  0.00    +0.000 C 
ENDBRANCH  14  16
ENDBRANCH  10  14
ENDBRANCH   1  12
BRANCH   7  17
ATOM     17  C   UNL     1      -7.196  -0.718 129.006  0.00  0.00    +0.000 C 
BRANCH  17  18
ATOM     18  C   UNL     1      -5.868  -1.069 129.648  0.00  0.00    +0.000 C 
BRANCH  18  19
ATOM     19  C   UNL     1      -4.923  -1.928 128.743  0.00  0.00    +0.000 C 
ATOM     20  C   UNL     1      -4.326  -3.261 129.217  0.00  0.00    +0.000 C 
ENDBRANCH  18  19
BRANCH  18  21
ATOM     21  C   UNL     1      -5.055   0.080 130.254  0.00  0.00    +0.000 C 
ATOM     22  O   UNL     1      -5.521   0.799 131.114  0.00  0.00    +0.000 OA
BRANCH  21  23
ATOM     23  O   UNL     1      -3.813   0.295 129.775  0.00  0.00    +0.000 OA
ATOM     24  H   UNL     1      -3.485  -0.262 129.052  0.00  0.00    +0.000 HD
ENDBRANCH  21  23
ENDBRANCH  18  21
ENDBRANCH  17  18
ENDBRANCH   7  17
TORSDOF 8
ENDMDL
MODEL 9
REMARK VINA RESULT:      -5.4      6.905      8.674
REMARK  Name = Tyropanoic acid
REMARK  10 active torsions:
REMARK  status: ('A' for Active; 'I' for Inactive)
REMARK    1  A    between atoms: C_1  and  C_2
REMARK    2  A    between atoms: C_2  and  C_3
REMARK    3  A    between atoms: C_3  and  C_4
REMARK    4  A    between atoms: N_6  and  C_7
REMARK    5  A    between atoms: C_13  and  C_14
REMARK    6  A    between atoms: C_14  and  C_15
REMARK    7  A    between atoms: C_15  and  C_16
REMARK    8  A    between atoms: C_15  and  C_18
REMARK    9  A    between atoms: C_16  and  C_17
REMARK   10  A    between atoms: C_18  and  O_19
REMARK                            x       y       z     vdW  Elec       q    Type
REMARK                         _______ _______ _______ _____ _____    ______ ____
ROOT
ATOM      1  C   UNL     1      -5.458   6.259 131.950  0.00  0.00    +0.000 A 
ATOM      2  C   UNL     1      -4.425   6.403 132.886  0.00  0.00    +0.000 A 
ATOM      3  I   UNL     1      -2.620   7.441 132.453  0.00  0.00    +0.000 I 
ATOM      4  C   UNL     1      -4.635   6.144 134.244  0.00  0.00    +0.000 A 
ATOM      5  C   UNL     1      -5.878   5.711 134.704  0.00  0.00    +0.000 A 
ATOM      6  I   UNL     1      -6.023   5.470 136.816  0.00  0.00    +0.000 I 
ATOM      7  C   UNL     1      -6.973   5.555 133.822  0.00  0.00    +0.000 A 
ATOM      8  C   UNL     1      -6.766   6.019 132.469  0.00  0.00    +0.000 A 
ATOM      9  I   UNL     1      -8.421   6.411 130.924  0.00  0.00    +0.000 I 
ENDROOT
BRANCH   1  12
ATOM     10  C   UNL     1      -4.745   5.150 129.837  0.00  0.00    +0.000 C 
ATOM     11  O   UNL     1      -4.617   4.035 130.340  0.00  0.00    +0.000 OA
ATOM     12  N   UNL     1      -5.222   6.269 130.528  0.00  0.00    +0.000 N 
ATOM     13  H   UNL     1      -5.791   6.911 129.982  0.00  0.00    +0.000 HD
BRANCH  10  14
ATOM     14  C   UNL     1      -4.430   5.383 128.360  0.00  0.00    +0.000 C 
BRANCH  14  16
ATOM     15  C   UNL     1      -2.180   6.576 128.491  0.00  0.00    +0.000 C 
ATOM     16  C   UNL     1      -2.914   5.302 128.103  0.00  0.00    +0.000 C 
ENDBRANCH  14  16
ENDBRANCH  10  14
ENDBRANCH   1  12
BRANCH   7  17
ATOM     17  C   UNL     1      -8.137   4.714 134.363  0.00  0.00    +0.000 C 
BRANCH  17  18
ATOM     18  C   UNL     1      -8.255   3.287 133.865  0.00  0.00    +0.000 C 
BRANCH  18  19
ATOM     19  C   UNL     1      -9.244   3.104 132.666  0.00  0.00    +0.000 C 
ATOM     20  C   UNL     1      -9.790   1.728 132.258  0.00  0.00    +0.000 C 
ENDBRANCH  18  19
BRANCH  18  21
ATOM     21  C   UNL     1      -6.953   2.545 133.543  0.00  0.00    +0.000 C 
ATOM     22  O   UNL     1      -6.325   1.967 134.406  0.00  0.00    +0.000 OA
BRANCH  21  23
ATOM     23  O   UNL     1      -6.502   2.585 132.273  0.00  0.00    +0.000 OA
ATOM     24  H   UNL     1      -5.806   1.966 132.001  0.00  0.00    +0.000 HD
ENDBRANCH  21  23
ENDBRANCH  18  21
ENDBRANCH  17  18
ENDBRANCH   7  17
TORSDOF 8
ENDMDL
