MODEL 1
REMARK VINA RESULT:     -10.3      0.000      0.000
REMARK  Name = Ubrogepant
REMARK  6 active torsions:
REMARK  status: ('A' for Active; 'I' for Inactive)
REMARK    1  A    between atoms: C_1  and  C_2
REMARK    2  A    between atoms: C_3  and  C_35
REMARK    3  A    between atoms: C_5  and  N_6
REMARK    4  A    between atoms: C_7  and  C_9
REMARK    5  A    between atoms: N_29  and  C_30
REMARK    6  A    between atoms: C_30  and  C_31
REMARK                            x       y       z     vdW  Elec       q    Type
REMARK                         _______ _______ _______ _____ _____    ______ ____
ROOT
ATOM      1  N   UNL     1      -6.977   2.936 126.986  0.00  0.00    +0.000 N 
ATOM      2  C   UNL     1      -5.774   3.542 127.276  0.00  0.00    +0.000 C 
ATOM      3  O   UNL     1      -4.850   3.618 126.472  0.00  0.00    +0.000 OA
ATOM      4  H   UNL     1      -7.789   3.147 127.554  0.00  0.00    +0.000 HD
ENDROOT
BRANCH   2   5
ATOM      5  C   UNL     1      -5.616   4.138 128.614  0.00  0.00    +0.000 A 
ATOM      6  C   UNL     1      -6.707   4.509 129.400  0.00  0.00    +0.000 A 
ATOM      7  N   UNL     1      -6.606   4.998 130.667  0.00  0.00    +0.000 NA
ATOM      8  C   UNL     1      -5.354   5.087 131.151  0.00  0.00    +0.000 A 
ATOM      9  C   UNL     1      -5.021   5.588 132.528  0.00  0.00    +0.000 C 
ATOM     10  C   UNL     1      -3.480   5.553 132.536  0.00  0.00    +0.000 C 
ATOM     11  C   UNL     1      -2.964   4.946 131.217  0.00  0.00    +0.000 C 
ATOM     12  C   UNL     1      -4.217   4.737 130.441  0.00  0.00    +0.000 A 
ATOM     13  C   UNL     1      -4.336   4.246 129.155  0.00  0.00    +0.000 A 
ATOM     14  C   UNL     1      -2.959   4.734 133.727  0.00  0.00    +0.000 C 
ATOM     15  O   UNL     1      -3.183   3.547 133.951  0.00  0.00    +0.000 OA
ATOM     16  N   UNL     1      -2.178   5.566 134.502  0.00  0.00    +0.000 N 
ATOM     17  C   UNL     1      -2.122   6.843 133.976  0.00  0.00    +0.000 A 
ATOM     18  N   UNL     1      -1.450   7.868 134.501  0.00  0.00    +0.000 NA
ATOM     19  C   UNL     1      -1.548   9.026 133.798  0.00  0.00    +0.000 A 
ATOM     20  C   UNL     1      -2.276   9.180 132.615  0.00  0.00    +0.000 A 
ATOM     21  C   UNL     1      -2.957   8.082 132.103  0.00  0.00    +0.000 A 
ATOM     22  C   UNL     1      -2.871   6.899 132.812  0.00  0.00    +0.000 A 
ATOM     23  H   UNL     1      -1.706   5.284 135.347  0.00  0.00    +0.000 HD
ENDBRANCH   2   5
BRANCH   1  28
ATOM     24  C   UNL     1     -10.294   1.312 124.075  0.00  0.00    +0.000 C 
ATOM     25  C   UNL     1      -8.869   1.330 123.504  0.00  0.00    +0.000 C 
ATOM     26  C   UNL     1      -7.918   0.401 124.284  0.00  0.00    +0.000 C 
ATOM     27  C   UNL     1      -7.670   0.992 125.690  0.00  0.00    +0.000 C 
ATOM     28  C   UNL     1      -7.183   2.425 125.638  0.00  0.00    +0.000 C 
ATOM     29  C   UNL     1      -8.144   3.277 124.783  0.00  0.00    +0.000 C 
ATOM     30  O   UNL     1      -8.642   4.343 125.125  0.00  0.00    +0.000 OA
ATOM     31  N   UNL     1      -8.341   2.703 123.530  0.00  0.00    +0.000 N 
BRANCH  26  32
ATOM     32  C   UNL     1      -8.409  -1.037 124.333  0.00  0.00    +0.000 A 
ATOM     33  C   UNL     1      -8.647  -1.681 125.555  0.00  0.00    +0.000 A 
ATOM     34  C   UNL     1      -9.300  -2.913 125.571  0.00  0.00    +0.000 A 
ATOM     35  C   UNL     1      -9.488  -3.621 124.386  0.00  0.00    +0.000 A 
ATOM     36  C   UNL     1      -9.118  -3.055 123.176  0.00  0.00    +0.000 A 
ATOM     37  C   UNL     1      -8.661  -1.748 123.150  0.00  0.00    +0.000 A 
ENDBRANCH  26  32
BRANCH  31  38
ATOM     38  C   UNL     1      -8.081   3.489 122.307  0.00  0.00    +0.000 C 
BRANCH  38  39
ATOM     39  C   UNL     1      -6.626   3.588 121.849  0.00  0.00    +0.000 C 
ATOM     40  F   UNL     1      -6.081   2.355 121.706  0.00  0.00    +0.000 F 
ATOM     41  F   UNL     1      -6.537   4.219 120.655  0.00  0.00    +0.000 F 
ATOM     42  F   UNL     1      -5.859   4.265 122.728  0.00  0.00    +0.000 F 
ENDBRANCH  38  39
ENDBRANCH  31  38
ENDBRANCH   1  28
TORSDOF 5
ENDMDL
MODEL 2
REMARK VINA RESULT:      -9.9      1.598      2.263
REMARK  Name = Ubrogepant
REMARK  6 active torsions:
REMARK  status: ('A' for Active; 'I' for Inactive)
REMARK    1  A    between atoms: C_1  and  C_2
REMARK    2  A    between atoms: C_3  and  C_35
REMARK    3  A    between atoms: C_5  and  N_6
REMARK    4  A    between atoms: C_7  and  C_9
REMARK    5  A    between atoms: N_29  and  C_30
REMARK    6  A    between atoms: C_30  and  C_31
REMARK                            x       y       z     vdW  Elec       q    Type
REMARK                         _______ _______ _______ _____ _____    ______ ____
ROOT
ATOM      1  N   UNL     1      -5.373   4.106 127.048  0.00  0.00    +0.000 N 
ATOM      2  C   UNL     1      -4.150   4.505 127.543  0.00  0.00    +0.000 C 
ATOM      3  O   UNL     1      -3.094   4.331 126.943  0.00  0.00    +0.000 OA
ATOM      4  H   UNL     1      -6.219   4.516 127.424  0.00  0.00    +0.000 HD
ENDROOT
BRANCH   2   5
ATOM      5  C   UNL     1      -4.134   5.188 128.848  0.00  0.00    +0.000 A 
ATOM      6  C   UNL     1      -5.274   5.307 129.644  0.00  0.00    +0.000 A 
ATOM      7  N   UNL     1      -5.286   5.868 130.884  0.00  0.00    +0.000 NA
ATOM      8  C   UNL     1      -4.093   6.299 131.332  0.00  0.00    +0.000 A 
ATOM      9  C   UNL     1      -3.883   6.937 132.677  0.00  0.00    +0.000 C 
ATOM     10  C   UNL     1      -2.384   7.297 132.647  0.00  0.00    +0.000 C 
ATOM     11  C   UNL     1      -1.745   6.776 131.345  0.00  0.00    +0.000 C 
ATOM     12  C   UNL     1      -2.913   6.215 130.611  0.00  0.00    +0.000 A 
ATOM     13  C   UNL     1      -2.917   5.646 129.352  0.00  0.00    +0.000 A 
ATOM     14  C   UNL     1      -1.656   6.699 133.861  0.00  0.00    +0.000 C 
ATOM     15  O   UNL     1      -1.565   5.507 134.145  0.00  0.00    +0.000 OA
ATOM     16  N   UNL     1      -1.105   7.741 134.578  0.00  0.00    +0.000 N 
ATOM     17  C   UNL     1      -1.384   8.962 133.993  0.00  0.00    +0.000 A 
ATOM     18  N   UNL     1      -0.991  10.150 134.455  0.00  0.00    +0.000 NA
ATOM     19  C   UNL     1      -1.391  11.208 133.702  0.00  0.00    +0.000 A 
ATOM     20  C   UNL     1      -2.148  11.110 132.532  0.00  0.00    +0.000 A 
ATOM     21  C   UNL     1      -2.532   9.851 132.087  0.00  0.00    +0.000 A 
ATOM     22  C   UNL     1      -2.137   8.766 132.847  0.00  0.00    +0.000 A 
ATOM     23  H   UNL     1      -0.566   7.632 135.423  0.00  0.00    +0.000 HD
ENDBRANCH   2   5
BRANCH   1  28
ATOM     24  C   UNL     1      -8.304   3.055 123.524  0.00  0.00    +0.000 C 
ATOM     25  C   UNL     1      -6.840   2.646 123.306  0.00  0.00    +0.000 C 
ATOM     26  C   UNL     1      -6.369   1.601 124.336  0.00  0.00    +0.000 C 
ATOM     27  C   UNL     1      -6.276   2.266 125.729  0.00  0.00    +0.000 C 
ATOM     28  C   UNL     1      -5.416   3.514 125.718  0.00  0.00    +0.000 C 
ATOM     29  C   UNL     1      -5.902   4.478 124.617  0.00  0.00    +0.000 C 
ATOM     30  O   UNL     1      -6.152   5.668 124.775  0.00  0.00    +0.000 OA
ATOM     31  N   UNL     1      -5.975   3.834 123.385  0.00  0.00    +0.000 N 
BRANCH  26  32
ATOM     32  C   UNL     1      -7.231   0.350 124.343  0.00  0.00    +0.000 A 
ATOM     33  C   UNL     1      -7.231  -0.537 123.257  0.00  0.00    +0.000 A 
ATOM     34  C   UNL     1      -7.856  -1.778 123.379  0.00  0.00    +0.000 A 
ATOM     35  C   UNL     1      -8.689  -2.039 124.465  0.00  0.00    +0.000 A 
ATOM     36  C   UNL     1      -8.816  -1.103 125.479  0.00  0.00    +0.000 A 
ATOM     37  C   UNL     1      -8.032   0.037 125.452  0.00  0.00    +0.000 A 
ENDBRANCH  26  32
BRANCH  31  38
ATOM     38  C   UNL     1      -5.255   4.385 122.218  0.00  0.00    +0.000 C 
BRANCH  38  39
ATOM     39  C   UNL     1      -5.748   3.952 120.838  0.00  0.00    +0.000 C 
ATOM     40  F   UNL     1      -5.118   4.649 119.860  0.00  0.00    +0.000 F 
ATOM     41  F   UNL     1      -5.506   2.637 120.628  0.00  0.00    +0.000 F 
ATOM     42  F   UNL     1      -7.072   4.154 120.682  0.00  0.00    +0.000 F 
ENDBRANCH  38  39
ENDBRANCH  31  38
ENDBRANCH   1  28
TORSDOF 5
ENDMDL
MODEL 3
REMARK VINA RESULT:      -9.7      4.356     11.089
REMARK  Name = Ubrogepant
REMARK  6 active torsions:
REMARK  status: ('A' for Active; 'I' for Inactive)
REMARK    1  A    between atoms: C_1  and  C_2
REMARK    2  A    between atoms: C_3  and  C_35
REMARK    3  A    between atoms: C_5  and  N_6
REMARK    4  A    between atoms: C_7  and  C_9
REMARK    5  A    between atoms: N_29  and  C_30
REMARK    6  A    between atoms: C_30  and  C_31
REMARK                            x       y       z     vdW  Elec       q    Type
REMARK                         _______ _______ _______ _____ _____    ______ ____
ROOT
ATOM      1  N   UNL     1      -5.309   3.061 129.258  0.00  0.00    +0.000 N 
ATOM      2  C   UNL     1      -5.692   1.807 128.835  0.00  0.00    +0.000 C 
ATOM      3  O   UNL     1      -5.837   0.857 129.599  0.00  0.00    +0.000 OA
ATOM      4  H   UNL     1      -5.480   3.861 128.660  0.00  0.00    +0.000 HD
ENDROOT
BRANCH   2   5
ATOM      5  C   UNL     1      -5.953   1.623 127.397  0.00  0.00    +0.000 A 
ATOM      6  C   UNL     1      -5.644   0.439 126.727  0.00  0.00    +0.000 A 
ATOM      7  N   UNL     1      -5.932   0.205 125.417  0.00  0.00    +0.000 NA
ATOM      8  C   UNL     1      -6.576   1.201 124.782  0.00  0.00    +0.000 A 
ATOM      9  C   UNL     1      -6.997   1.143 123.340  0.00  0.00    +0.000 C 
ATOM     10  C   UNL     1      -7.609   2.539 123.112  0.00  0.00    +0.000 C 
ATOM     11  C   UNL     1      -7.621   3.329 124.435  0.00  0.00    +0.000 C 
ATOM     12  C   UNL     1      -6.924   2.405 125.372  0.00  0.00    +0.000 A 
ATOM     13  C   UNL     1      -6.622   2.630 126.702  0.00  0.00    +0.000 A 
ATOM     14  C   UNL     1      -9.039   2.424 122.561  0.00  0.00    +0.000 C 
ATOM     15  O   UNL     1      -9.993   1.879 123.111  0.00  0.00    +0.000 OA
ATOM     16  N   UNL     1      -9.070   3.055 121.333  0.00  0.00    +0.000 N 
ATOM     17  C   UNL     1      -7.832   3.570 120.997  0.00  0.00    +0.000 A 
ATOM     18  N   UNL     1      -7.547   4.230 119.874  0.00  0.00    +0.000 NA
ATOM     19  C   UNL     1      -6.256   4.638 119.772  0.00  0.00    +0.000 A 
ATOM     20  C   UNL     1      -5.272   4.414 120.739  0.00  0.00    +0.000 A 
ATOM     21  C   UNL     1      -5.617   3.726 121.896  0.00  0.00    +0.000 A 
ATOM     22  C   UNL     1      -6.926   3.298 122.010  0.00  0.00    +0.000 A 
ATOM     23  H   UNL     1      -9.889   3.133 120.752  0.00  0.00    +0.000 HD
ENDBRANCH   2   5
BRANCH   1  28
ATOM     24  C   UNL     1      -5.304   6.431 132.538  0.00  0.00    +0.000 C 
ATOM     25  C   UNL     1      -5.001   5.015 133.049  0.00  0.00    +0.000 C 
ATOM     26  C   UNL     1      -3.705   4.442 132.443  0.00  0.00    +0.000 C 
ATOM     27  C   UNL     1      -3.929   4.162 130.939  0.00  0.00    +0.000 C 
ATOM     28  C   UNL     1      -5.137   3.283 130.687  0.00  0.00    +0.000 C 
ATOM     29  C   UNL     1      -6.377   3.881 131.382  0.00  0.00    +0.000 C 
ATOM     30  O   UNL     1      -7.462   4.084 130.849  0.00  0.00    +0.000 OA
ATOM     31  N   UNL     1      -6.127   4.121 132.731  0.00  0.00    +0.000 N 
BRANCH  26  32
ATOM     32  C   UNL     1      -2.495   5.323 132.699  0.00  0.00    +0.000 A 
ATOM     33  C   UNL     1      -1.666   5.741 131.648  0.00  0.00    +0.000 A 
ATOM     34  C   UNL     1      -0.699   6.720 131.878  0.00  0.00    +0.000 A 
ATOM     35  C   UNL     1      -0.382   7.098 133.181  0.00  0.00    +0.000 A 
ATOM     36  C   UNL     1      -1.098   6.576 134.246  0.00  0.00    +0.000 A 
ATOM     37  C   UNL     1      -2.192   5.765 133.996  0.00  0.00    +0.000 A 
ENDBRANCH  26  32
BRANCH  31  38
ATOM     38  C   UNL     1      -7.010   3.541 133.762  0.00  0.00    +0.000 C 
BRANCH  38  39
ATOM     39  C   UNL     1      -8.078   4.462 134.352  0.00  0.00    +0.000 C 
ATOM     40  F   UNL     1      -8.277   5.541 133.554  0.00  0.00    +0.000 F 
ATOM     41  F   UNL     1      -9.261   3.816 134.473  0.00  0.00    +0.000 F 
ATOM     42  F   UNL     1      -7.736   4.925 135.571  0.00  0.00    +0.000 F 
ENDBRANCH  38  39
ENDBRANCH  31  38
ENDBRANCH   1  28
TORSDOF 5
ENDMDL
MODEL 4
REMARK VINA RESULT:      -9.4      6.691     12.624
REMARK  Name = Ubrogepant
REMARK  6 active torsions:
REMARK  status: ('A' for Active; 'I' for Inactive)
REMARK    1  A    between atoms: C_1  and  C_2
REMARK    2  A    between atoms: C_3  and  C_35
REMARK    3  A    between atoms: C_5  and  N_6
REMARK    4  A    between atoms: C_7  and  C_9
REMARK    5  A    between atoms: N_29  and  C_30
REMARK    6  A    between atoms: C_30  and  C_31
REMARK                            x       y       z     vdW  Elec       q    Type
REMARK                         _______ _______ _______ _____ _____    ______ ____
ROOT
ATOM      1  N   UNL     1      -3.629   7.393 132.804  0.00  0.00    +0.000 N 
ATOM      2  C   UNL     1      -3.540   6.696 131.618  0.00  0.00    +0.000 C 
ATOM      3  O   UNL     1      -2.471   6.391 131.099  0.00  0.00    +0.000 OA
ATOM      4  H   UNL     1      -4.494   7.369 133.331  0.00  0.00    +0.000 HD
ENDROOT
BRANCH   2   5
ATOM      5  C   UNL     1      -4.799   6.293 130.969  0.00  0.00    +0.000 A 
ATOM      6  C   UNL     1      -4.827   5.520 129.808  0.00  0.00    +0.000 A 
ATOM      7  N   UNL     1      -5.967   5.068 129.217  0.00  0.00    +0.000 NA
ATOM      8  C   UNL     1      -7.111   5.398 129.845  0.00  0.00    +0.000 A 
ATOM      9  C   UNL     1      -8.477   4.992 129.369  0.00  0.00    +0.000 C 
ATOM     10  C   UNL     1      -9.407   5.680 130.388  0.00  0.00    +0.000 C 
ATOM     11  C   UNL     1      -8.567   6.377 131.476  0.00  0.00    +0.000 C 
ATOM     12  C   UNL     1      -7.172   6.157 131.003  0.00  0.00    +0.000 A 
ATOM     13  C   UNL     1      -6.006   6.611 131.589  0.00  0.00    +0.000 A 
ATOM     14  C   UNL     1     -10.356   4.660 131.035  0.00  0.00    +0.000 C 
ATOM     15  O   UNL     1     -10.032   3.677 131.698  0.00  0.00    +0.000 OA
ATOM     16  N   UNL     1     -11.650   5.048 130.751  0.00  0.00    +0.000 N 
ATOM     17  C   UNL     1     -11.676   6.199 129.986  0.00  0.00    +0.000 A 
ATOM     18  N   UNL     1     -12.777   6.814 129.551  0.00  0.00    +0.000 NA
ATOM     19  C   UNL     1     -12.545   7.932 128.815  0.00  0.00    +0.000 A 
ATOM     20  C   UNL     1     -11.277   8.438 128.516  0.00  0.00    +0.000 A 
ATOM     21  C   UNL     1     -10.159   7.765 128.994  0.00  0.00    +0.000 A 
ATOM     22  C   UNL     1     -10.381   6.623 129.739  0.00  0.00    +0.000 A 
ATOM     23  H   UNL     1     -12.474   4.557 131.059  0.00  0.00    +0.000 HD
ENDBRANCH   2   5
BRANCH   1  28
ATOM     24  C   UNL     1      -1.719  10.530 135.741  0.00  0.00    +0.000 C 
ATOM     25  C   UNL     1      -0.777   9.412 135.269  0.00  0.00    +0.000 C 
ATOM     26  C   UNL     1      -0.547   9.450 133.746  0.00  0.00    +0.000 C 
ATOM     27  C   UNL     1      -1.853   9.048 133.024  0.00  0.00    +0.000 C 
ATOM     28  C   UNL     1      -2.395   7.718 133.506  0.00  0.00    +0.000 C 
ATOM     29  C   UNL     1      -2.531   7.729 135.042  0.00  0.00    +0.000 C 
ATOM     30  O   UNL     1      -3.535   7.413 135.669  0.00  0.00    +0.000 OA
ATOM     31  N   UNL     1      -1.333   8.103 135.647  0.00  0.00    +0.000 N 
BRANCH  26  32
ATOM     32  C   UNL     1      -0.002  10.785 133.266  0.00  0.00    +0.000 A 
ATOM     33  C   UNL     1       1.283  11.216 133.627  0.00  0.00    +0.000 A 
ATOM     34  C   UNL     1       1.838  12.331 133.001  0.00  0.00    +0.000 A 
ATOM     35  C   UNL     1       1.042  13.162 132.215  0.00  0.00    +0.000 A 
ATOM     36  C   UNL     1      -0.279  12.825 131.971  0.00  0.00    +0.000 A 
ATOM     37  C   UNL     1      -0.764  11.610 132.425  0.00  0.00    +0.000 A 
ENDBRANCH  26  32
BRANCH  31  38
ATOM     38  C   UNL     1      -0.713   7.227 136.662  0.00  0.00    +0.000 C 
BRANCH  38  39
ATOM     39  C   UNL     1       0.811   7.110 136.632  0.00  0.00    +0.000 C 
ATOM     40  F   UNL     1       1.266   7.073 135.355  0.00  0.00    +0.000 F 
ATOM     41  F   UNL     1       1.389   8.168 137.245  0.00  0.00    +0.000 F 
ATOM     42  F   UNL     1       1.249   5.992 137.245  0.00  0.00    +0.000 F 
ENDBRANCH  38  39
ENDBRANCH  31  38
ENDBRANCH   1  28
TORSDOF 5
ENDMDL
MODEL 5
REMARK VINA RESULT:      -9.4      2.290      2.988
REMARK  Name = Ubrogepant
REMARK  6 active torsions:
REMARK  status: ('A' for Active; 'I' for Inactive)
REMARK    1  A    between atoms: C_1  and  C_2
REMARK    2  A    between atoms: C_3  and  C_35
REMARK    3  A    between atoms: C_5  and  N_6
REMARK    4  A    between atoms: C_7  and  C_9
REMARK    5  A    between atoms: N_29  and  C_30
REMARK    6  A    between atoms: C_30  and  C_31
REMARK                            x       y       z     vdW  Elec       q    Type
REMARK                         _______ _______ _______ _____ _____    ______ ____
ROOT
ATOM      1  N   UNL     1      -7.214   3.124 127.015  0.00  0.00    +0.000 N 
ATOM      2  C   UNL     1      -5.944   3.440 127.447  0.00  0.00    +0.000 C 
ATOM      3  O   UNL     1      -4.934   3.193 126.795  0.00  0.00    +0.000 OA
ATOM      4  H   UNL     1      -8.011   3.592 127.430  0.00  0.00    +0.000 HD
ENDROOT
BRANCH   2   5
ATOM      5  C   UNL     1      -5.817   4.123 128.745  0.00  0.00    +0.000 A 
ATOM      6  C   UNL     1      -5.182   5.357 128.882  0.00  0.00    +0.000 A 
ATOM      7  N   UNL     1      -5.104   6.053 130.050  0.00  0.00    +0.000 NA
ATOM      8  C   UNL     1      -5.714   5.479 131.103  0.00  0.00    +0.000 A 
ATOM      9  C   UNL     1      -5.758   6.083 132.478  0.00  0.00    +0.000 C 
ATOM     10  C   UNL     1      -6.496   5.005 133.296  0.00  0.00    +0.000 C 
ATOM     11  C   UNL     1      -6.947   3.861 132.367  0.00  0.00    +0.000 C 
ATOM     12  C   UNL     1      -6.371   4.260 131.054  0.00  0.00    +0.000 A 
ATOM     13  C   UNL     1      -6.438   3.564 129.862  0.00  0.00    +0.000 A 
ATOM     14  C   UNL     1      -7.715   5.605 134.014  0.00  0.00    +0.000 C 
ATOM     15  O   UNL     1      -8.683   6.146 133.484  0.00  0.00    +0.000 OA
ATOM     16  N   UNL     1      -7.540   5.419 135.370  0.00  0.00    +0.000 N 
ATOM     17  C   UNL     1      -6.348   4.774 135.643  0.00  0.00    +0.000 A 
ATOM     18  N   UNL     1      -5.899   4.458 136.858  0.00  0.00    +0.000 NA
ATOM     19  C   UNL     1      -4.697   3.825 136.868  0.00  0.00    +0.000 A 
ATOM     20  C   UNL     1      -3.956   3.506 135.727  0.00  0.00    +0.000 A 
ATOM     21  C   UNL     1      -4.466   3.851 134.481  0.00  0.00    +0.000 A 
ATOM     22  C   UNL     1      -5.686   4.502 134.456  0.00  0.00    +0.000 A 
ATOM     23  H   UNL     1      -8.195   5.714 136.077  0.00  0.00    +0.000 HD
ENDBRANCH   2   5
BRANCH   1  28
ATOM     24  C   UNL     1     -10.414   1.362 124.053  0.00  0.00    +0.000 C 
ATOM     25  C   UNL     1      -8.964   1.328 123.550  0.00  0.00    +0.000 C 
ATOM     26  C   UNL     1      -8.064   0.437 124.430  0.00  0.00    +0.000 C 
ATOM     27  C   UNL     1      -7.874   1.111 125.808  0.00  0.00    +0.000 C 
ATOM     28  C   UNL     1      -7.364   2.533 125.692  0.00  0.00    +0.000 C 
ATOM     29  C   UNL     1      -8.271   3.342 124.742  0.00  0.00    +0.000 C 
ATOM     30  O   UNL     1      -8.770   4.433 124.994  0.00  0.00    +0.000 OA
ATOM     31  N   UNL     1      -8.417   2.694 123.518  0.00  0.00    +0.000 N 
BRANCH  26  32
ATOM     32  C   UNL     1      -8.577  -0.989 124.543  0.00  0.00    +0.000 A 
ATOM     33  C   UNL     1      -8.743  -1.792 123.406  0.00  0.00    +0.000 A 
ATOM     34  C   UNL     1      -9.002  -3.154 123.554  0.00  0.00    +0.000 A 
ATOM     35  C   UNL     1      -9.346  -3.669 124.802  0.00  0.00    +0.000 A 
ATOM     36  C   UNL     1      -9.331  -2.847 125.918  0.00  0.00    +0.000 A 
ATOM     37  C   UNL     1      -8.872  -1.547 125.796  0.00  0.00    +0.000 A 
ENDBRANCH  26  32
BRANCH  31  38
ATOM     38  C   UNL     1      -8.089   3.400 122.263  0.00  0.00    +0.000 C 
BRANCH  38  39
ATOM     39  C   UNL     1      -6.608   3.523 121.910  0.00  0.00    +0.000 C 
ATOM     40  F   UNL     1      -6.046   2.298 121.756  0.00  0.00    +0.000 F 
ATOM     41  F   UNL     1      -6.441   4.201 120.751  0.00  0.00    +0.000 F 
ATOM     42  F   UNL     1      -5.906   4.166 122.865  0.00  0.00    +0.000 F 
ENDBRANCH  38  39
ENDBRANCH  31  38
ENDBRANCH   1  28
TORSDOF 5
ENDMDL
MODEL 6
REMARK VINA RESULT:      -8.9      5.655      8.192
REMARK  Name = Ubrogepant
REMARK  6 active torsions:
REMARK  status: ('A' for Active; 'I' for Inactive)
REMARK    1  A    between atoms: C_1  and  C_2
REMARK    2  A    between atoms: C_3  and  C_35
REMARK    3  A    between atoms: C_5  and  N_6
REMARK    4  A    between atoms: C_7  and  C_9
REMARK    5  A    between atoms: N_29  and  C_30
REMARK    6  A    between atoms: C_30  and  C_31
REMARK                            x       y       z     vdW  Elec       q    Type
REMARK                         _______ _______ _______ _____ _____    ______ ____
ROOT
ATOM      1  N   UNL     1      -5.615   6.297 131.973  0.00  0.00    +0.000 N 
ATOM      2  C   UNL     1      -4.832   6.056 133.081  0.00  0.00    +0.000 C 
ATOM      3  O   UNL     1      -5.188   5.339 134.011  0.00  0.00    +0.000 OA
ATOM      4  H   UNL     1      -5.184   6.642 131.124  0.00  0.00    +0.000 HD
ENDROOT
BRANCH   2   5
ATOM      5  C   UNL     1      -3.500   6.684 133.123  0.00  0.00    +0.000 A 
ATOM      6  C   UNL     1      -2.470   6.310 132.260  0.00  0.00    +0.000 A 
ATOM      7  N   UNL     1      -1.250   6.912 132.220  0.00  0.00    +0.000 NA
ATOM      8  C   UNL     1      -1.087   7.941 133.071  0.00  0.00    +0.000 A 
ATOM      9  C   UNL     1       0.176   8.748 133.179  0.00  0.00    +0.000 C 
ATOM     10  C   UNL     1      -0.146   9.725 134.327  0.00  0.00    +0.000 C 
ATOM     11  C   UNL     1      -1.605   9.531 134.785  0.00  0.00    +0.000 C 
ATOM     12  C   UNL     1      -2.057   8.380 133.956  0.00  0.00    +0.000 A 
ATOM     13  C   UNL     1      -3.290   7.757 133.988  0.00  0.00    +0.000 A 
ATOM     14  C   UNL     1       0.073  11.179 133.884  0.00  0.00    +0.000 C 
ATOM     15  O   UNL     1      -0.504  11.759 132.966  0.00  0.00    +0.000 OA
ATOM     16  N   UNL     1       1.030  11.733 134.710  0.00  0.00    +0.000 N 
ATOM     17  C   UNL     1       1.481  10.820 135.645  0.00  0.00    +0.000 A 
ATOM     18  N   UNL     1       2.405  11.058 136.576  0.00  0.00    +0.000 NA
ATOM     19  C   UNL     1       2.680   9.999 137.381  0.00  0.00    +0.000 A 
ATOM     20  C   UNL     1       2.068   8.747 137.286  0.00  0.00    +0.000 A 
ATOM     21  C   UNL     1       1.106   8.547 136.302  0.00  0.00    +0.000 A 
ATOM     22  C   UNL     1       0.822   9.614 135.471  0.00  0.00    +0.000 A 
ATOM     23  H   UNL     1       1.363  12.682 134.644  0.00  0.00    +0.000 HD
ENDBRANCH   2   5
BRANCH   1  28
ATOM     24  C   UNL     1      -8.847   4.854 128.875  0.00  0.00    +0.000 C 
ATOM     25  C   UNL     1      -9.173   4.567 130.348  0.00  0.00    +0.000 C 
ATOM     26  C   UNL     1      -9.329   5.860 131.172  0.00  0.00    +0.000 C 
ATOM     27  C   UNL     1      -7.949   6.543 131.313  0.00  0.00    +0.000 C 
ATOM     28  C   UNL     1      -6.896   5.609 131.873  0.00  0.00    +0.000 C 
ATOM     29  C   UNL     1      -6.847   4.310 131.043  0.00  0.00    +0.000 C 
ATOM     30  O   UNL     1      -5.836   3.809 130.566  0.00  0.00    +0.000 OA
ATOM     31  N   UNL     1      -8.112   3.736 130.939  0.00  0.00    +0.000 N 
BRANCH  26  32
ATOM     32  C   UNL     1     -10.387   6.794 130.609  0.00  0.00    +0.000 A 
ATOM     33  C   UNL     1     -10.092   7.677 129.561  0.00  0.00    +0.000 A 
ATOM     34  C   UNL     1     -11.127   8.359 128.921  0.00  0.00    +0.000 A 
ATOM     35  C   UNL     1     -12.406   8.366 129.472  0.00  0.00    +0.000 A 
ATOM     36  C   UNL     1     -12.678   7.611 130.602  0.00  0.00    +0.000 A 
ATOM     37  C   UNL     1     -11.698   6.775 131.109  0.00  0.00    +0.000 A 
ENDBRANCH  26  32
BRANCH  31  38
ATOM     38  C   UNL     1      -8.324   2.334 131.354  0.00  0.00    +0.000 C 
BRANCH  38  39
ATOM     39  C   UNL     1      -9.646   2.015 132.052  0.00  0.00    +0.000 C 
ATOM     40  F   UNL     1      -9.783   0.679 132.236  0.00  0.00    +0.000 F 
ATOM     41  F   UNL     1      -9.706   2.607 133.267  0.00  0.00    +0.000 F 
ATOM     42  F   UNL     1     -10.712   2.432 131.339  0.00  0.00    +0.000 F 
ENDBRANCH  38  39
ENDBRANCH  31  38
ENDBRANCH   1  28
TORSDOF 5
ENDMDL
MODEL 7
REMARK VINA RESULT:      -8.9      4.480      7.053
REMARK  Name = Ubrogepant
REMARK  6 active torsions:
REMARK  status: ('A' for Active; 'I' for Inactive)
REMARK    1  A    between atoms: C_1  and  C_2
REMARK    2  A    between atoms: C_3  and  C_35
REMARK    3  A    between atoms: C_5  and  N_6
REMARK    4  A    between atoms: C_7  and  C_9
REMARK    5  A    between atoms: N_29  and  C_30
REMARK    6  A    between atoms: C_30  and  C_31
REMARK                            x       y       z     vdW  Elec       q    Type
REMARK                         _______ _______ _______ _____ _____    ______ ____
ROOT
ATOM      1  N   UNL     1      -3.648   6.117 131.146  0.00  0.00    +0.000 N 
ATOM      2  C   UNL     1      -2.418   5.943 131.743  0.00  0.00    +0.000 C 
ATOM      3  O   UNL     1      -1.824   4.869 131.753  0.00  0.00    +0.000 OA
ATOM      4  H   UNL     1      -3.958   7.053 130.911  0.00  0.00    +0.000 HD
ENDROOT
BRANCH   2   5
ATOM      5  C   UNL     1      -1.795   7.118 132.376  0.00  0.00    +0.000 A 
ATOM      6  C   UNL     1      -0.469   7.119 132.808  0.00  0.00    +0.000 A 
ATOM      7  N   UNL     1       0.163   8.204 133.334  0.00  0.00    +0.000 NA
ATOM      8  C   UNL     1      -0.577   9.326 133.398  0.00  0.00    +0.000 A 
ATOM      9  C   UNL     1      -0.069  10.635 133.932  0.00  0.00    +0.000 C 
ATOM     10  C   UNL     1      -1.315  11.539 133.847  0.00  0.00    +0.000 C 
ATOM     11  C   UNL     1      -2.474  10.772 133.181  0.00  0.00    +0.000 C 
ATOM     12  C   UNL     1      -1.897   9.413 132.988  0.00  0.00    +0.000 A 
ATOM     13  C   UNL     1      -2.526   8.302 132.459  0.00  0.00    +0.000 A 
ATOM     14  C   UNL     1      -1.009  12.817 133.051  0.00  0.00    +0.000 C 
ATOM     15  O   UNL     1      -0.642  12.878 131.879  0.00  0.00    +0.000 OA
ATOM     16  N   UNL     1      -1.230  13.896 133.882  0.00  0.00    +0.000 N 
ATOM     17  C   UNL     1      -1.640  13.491 135.139  0.00  0.00    +0.000 A 
ATOM     18  N   UNL     1      -1.927  14.302 136.158  0.00  0.00    +0.000 NA
ATOM     19  C   UNL     1      -2.309  13.664 137.295  0.00  0.00    +0.000 A 
ATOM     20  C   UNL     1      -2.412  12.278 137.434  0.00  0.00    +0.000 A 
ATOM     21  C   UNL     1      -2.107  11.473 136.342  0.00  0.00    +0.000 A 
ATOM     22  C   UNL     1      -1.711  12.108 135.181  0.00  0.00    +0.000 A 
ATOM     23  H   UNL     1      -1.110  14.859 133.612  0.00  0.00    +0.000 HD
ENDBRANCH   2   5
BRANCH   1  28
ATOM     24  C   UNL     1      -7.572   4.708 128.971  0.00  0.00    +0.000 C 
ATOM     25  C   UNL     1      -6.443   3.668 129.031  0.00  0.00    +0.000 C 
ATOM     26  C   UNL     1      -6.102   3.263 130.478  0.00  0.00    +0.000 C 
ATOM     27  C   UNL     1      -5.431   4.456 131.196  0.00  0.00    +0.000 C 
ATOM     28  C   UNL     1      -4.234   4.990 130.435  0.00  0.00    +0.000 C 
ATOM     29  C   UNL     1      -4.634   5.305 128.979  0.00  0.00    +0.000 C 
ATOM     30  O   UNL     1      -4.417   6.361 128.395  0.00  0.00    +0.000 OA
ATOM     31  N   UNL     1      -5.239   4.204 128.377  0.00  0.00    +0.000 N 
BRANCH  26  32
ATOM     32  C   UNL     1      -7.304   2.725 131.238  0.00  0.00    +0.000 A 
ATOM     33  C   UNL     1      -7.756   3.345 132.412  0.00  0.00    +0.000 A 
ATOM     34  C   UNL     1      -8.981   2.968 132.963  0.00  0.00    +0.000 A 
ATOM     35  C   UNL     1      -9.630   1.822 132.510  0.00  0.00    +0.000 A 
ATOM     36  C   UNL     1      -9.111   1.111 131.440  0.00  0.00    +0.000 A 
ATOM     37  C   UNL     1      -8.008   1.608 130.766  0.00  0.00    +0.000 A 
ENDBRANCH  26  32
BRANCH  31  38
ATOM     38  C   UNL     1      -4.705   3.669 127.108  0.00  0.00    +0.000 C 
BRANCH  38  39
ATOM     39  C   UNL     1      -3.294   3.084 127.148  0.00  0.00    +0.000 C 
ATOM     40  F   UNL     1      -2.363   4.061 127.004  0.00  0.00    +0.000 F 
ATOM     41  F   UNL     1      -3.060   2.463 128.326  0.00  0.00    +0.000 F 
ATOM     42  F   UNL     1      -3.085   2.187 126.163  0.00  0.00    +0.000 F 
ENDBRANCH  38  39
ENDBRANCH  31  38
ENDBRANCH   1  28
TORSDOF 5
ENDMDL
MODEL 8
REMARK VINA RESULT:      -8.8      1.849      2.495
REMARK  Name = Ubrogepant
REMARK  6 active torsions:
REMARK  status: ('A' for Active; 'I' for Inactive)
REMARK    1  A    between atoms: C_1  and  C_2
REMARK    2  A    between atoms: C_3  and  C_35
REMARK    3  A    between atoms: C_5  and  N_6
REMARK    4  A    between atoms: C_7  and  C_9
REMARK    5  A    between atoms: N_29  and  C_30
REMARK    6  A    between atoms: C_30  and  C_31
REMARK                            x       y       z     vdW  Elec       q    Type
REMARK                         _______ _______ _______ _____ _____    ______ ____
ROOT
ATOM      1  N   UNL     1      -5.911   2.780 128.579  0.00  0.00    +0.000 N 
ATOM      2  C   UNL     1      -4.666   3.361 128.689  0.00  0.00    +0.000 C 
ATOM      3  O   UNL     1      -3.746   3.129 127.911  0.00  0.00    +0.000 OA
ATOM      4  H   UNL     1      -6.702   3.206 129.048  0.00  0.00    +0.000 HD
ENDROOT
BRANCH   2   5
ATOM      5  C   UNL     1      -4.456   4.318 129.789  0.00  0.00    +0.000 A 
ATOM      6  C   UNL     1      -5.249   5.454 129.953  0.00  0.00    +0.000 A 
ATOM      7  N   UNL     1      -5.133   6.324 130.993  0.00  0.00    +0.000 NA
ATOM      8  C   UNL     1      -4.194   6.010 131.905  0.00  0.00    +0.000 A 
ATOM      9  C   UNL     1      -3.911   6.828 133.133  0.00  0.00    +0.000 C 
ATOM     10  C   UNL     1      -2.724   6.077 133.770  0.00  0.00    +0.000 C 
ATOM     11  C   UNL     1      -2.416   4.802 132.962  0.00  0.00    +0.000 C 
ATOM     12  C   UNL     1      -3.368   4.901 131.822  0.00  0.00    +0.000 A 
ATOM     13  C   UNL     1      -3.496   4.028 130.758  0.00  0.00    +0.000 A 
ATOM     14  C   UNL     1      -3.033   5.708 135.229  0.00  0.00    +0.000 C 
ATOM     15  O   UNL     1      -3.952   4.994 135.624  0.00  0.00    +0.000 OA
ATOM     16  N   UNL     1      -2.084   6.314 136.028  0.00  0.00    +0.000 N 
ATOM     17  C   UNL     1      -1.185   7.047 135.278  0.00  0.00    +0.000 A 
ATOM     18  N   UNL     1      -0.159   7.746 135.765  0.00  0.00    +0.000 NA
ATOM     19  C   UNL     1       0.585   8.386 134.825  0.00  0.00    +0.000 A 
ATOM     20  C   UNL     1       0.338   8.342 133.450  0.00  0.00    +0.000 A 
ATOM     21  C   UNL     1      -0.740   7.597 132.989  0.00  0.00    +0.000 A 
ATOM     22  C   UNL     1      -1.509   6.946 133.935  0.00  0.00    +0.000 A 
ATOM     23  H   UNL     1      -2.047   6.234 137.032  0.00  0.00    +0.000 HD
ENDBRANCH   2   5
BRANCH   1  28
ATOM     24  C   UNL     1      -9.373   0.765 126.115  0.00  0.00    +0.000 C 
ATOM     25  C   UNL     1      -7.949   0.421 125.652  0.00  0.00    +0.000 C 
ATOM     26  C   UNL     1      -7.151  -0.331 126.735  0.00  0.00    +0.000 C 
ATOM     27  C   UNL     1      -6.847   0.633 127.904  0.00  0.00    +0.000 C 
ATOM     28  C   UNL     1      -6.163   1.904 127.443  0.00  0.00    +0.000 C 
ATOM     29  C   UNL     1      -6.980   2.562 126.312  0.00  0.00    +0.000 C 
ATOM     30  O   UNL     1      -7.331   3.736 126.280  0.00  0.00    +0.000 OA
ATOM     31  N   UNL     1      -7.234   1.655 125.287  0.00  0.00    +0.000 N 
BRANCH  26  32
ATOM     32  C   UNL     1      -7.839  -1.607 127.193  0.00  0.00    +0.000 A 
ATOM     33  C   UNL     1      -8.551  -2.411 126.292  0.00  0.00    +0.000 A 
ATOM     34  C   UNL     1      -8.982  -3.677 126.688  0.00  0.00    +0.000 A 
ATOM     35  C   UNL     1      -8.936  -4.043 128.031  0.00  0.00    +0.000 A 
ATOM     36  C   UNL     1      -8.366  -3.189 128.962  0.00  0.00    +0.000 A 
ATOM     37  C   UNL     1      -7.754  -2.025 128.529  0.00  0.00    +0.000 A 
ENDBRANCH  26  32
BRANCH  31  38
ATOM     38  C   UNL     1      -6.847   1.980 123.899  0.00  0.00    +0.000 C 
BRANCH  38  39
ATOM     39  C   UNL     1      -7.950   2.504 122.981  0.00  0.00    +0.000 C 
ATOM     40  F   UNL     1      -7.424   3.045 121.854  0.00  0.00    +0.000 F 
ATOM     41  F   UNL     1      -8.784   1.505 122.608  0.00  0.00    +0.000 F 
ATOM     42  F   UNL     1      -8.695   3.460 123.572  0.00  0.00    +0.000 F 
ENDBRANCH  38  39
ENDBRANCH  31  38
ENDBRANCH   1  28
TORSDOF 5
ENDMDL
MODEL 9
REMARK VINA RESULT:      -8.7      7.298      8.891
REMARK  Name = Ubrogepant
REMARK  6 active torsions:
REMARK  status: ('A' for Active; 'I' for Inactive)
REMARK    1  A    between atoms: C_1  and  C_2
REMARK    2  A    between atoms: C_3  and  C_35
REMARK    3  A    between atoms: C_5  and  N_6
REMARK    4  A    between atoms: C_7  and  C_9
REMARK    5  A    between atoms: N_29  and  C_30
REMARK    6  A    between atoms: C_30  and  C_31
REMARK                            x       y       z     vdW  Elec       q    Type
REMARK                         _______ _______ _______ _____ _____    ______ ____
ROOT
ATOM      1  N   UNL     1      -6.642  -1.942 129.987  0.00  0.00    +0.000 N 
ATOM      2  C   UNL     1      -5.839  -3.035 130.231  0.00  0.00    +0.000 C 
ATOM      3  O   UNL     1      -5.023  -3.461 129.421  0.00  0.00    +0.000 OA
ATOM      4  H   UNL     1      -7.077  -1.460 130.766  0.00  0.00    +0.000 HD
ENDROOT
BRANCH   2   5
ATOM      5  C   UNL     1      -5.971  -3.698 131.540  0.00  0.00    +0.000 A 
ATOM      6  C   UNL     1      -5.301  -4.882 131.848  0.00  0.00    +0.000 A 
ATOM      7  N   UNL     1      -5.341  -5.488 133.067  0.00  0.00    +0.000 NA
ATOM      8  C   UNL     1      -6.068  -4.851 134.003  0.00  0.00    +0.000 A 
ATOM      9  C   UNL     1      -6.233  -5.341 135.414  0.00  0.00    +0.000 C 
ATOM     10  C   UNL     1      -7.196  -4.302 136.021  0.00  0.00    +0.000 C 
ATOM     11  C   UNL     1      -7.485  -3.192 134.992  0.00  0.00    +0.000 C 
ATOM     12  C   UNL     1      -6.759  -3.670 133.783  0.00  0.00    +0.000 A 
ATOM     13  C   UNL     1      -6.711  -3.069 132.540  0.00  0.00    +0.000 A 
ATOM     14  C   UNL     1      -6.603  -3.688 137.298  0.00  0.00    +0.000 C 
ATOM     15  O   UNL     1      -5.553  -3.056 137.385  0.00  0.00    +0.000 OA
ATOM     16  N   UNL     1      -7.467  -3.961 138.339  0.00  0.00    +0.000 N 
ATOM     17  C   UNL     1      -8.561  -4.690 137.910  0.00  0.00    +0.000 A 
ATOM     18  N   UNL     1      -9.565  -5.106 138.684  0.00  0.00    +0.000 NA
ATOM     19  C   UNL     1     -10.527  -5.807 138.029  0.00  0.00    +0.000 A 
ATOM     20  C   UNL     1     -10.514  -6.089 136.661  0.00  0.00    +0.000 A 
ATOM     21  C   UNL     1      -9.449  -5.630 135.894  0.00  0.00    +0.000 A 
ATOM     22  C   UNL     1      -8.460  -4.922 136.548  0.00  0.00    +0.000 A 
ATOM     23  H   UNL     1      -7.323  -3.669 139.293  0.00  0.00    +0.000 HD
ENDBRANCH   2   5
BRANCH   1  28
ATOM     24  C   UNL     1      -8.942   0.626 126.788  0.00  0.00    +0.000 C 
ATOM     25  C   UNL     1      -7.456   0.379 126.489  0.00  0.00    +0.000 C 
ATOM     26  C   UNL     1      -7.144  -1.117 126.288  0.00  0.00    +0.000 C 
ATOM     27  C   UNL     1      -7.290  -1.853 127.639  0.00  0.00    +0.000 C 
ATOM     28  C   UNL     1      -6.459  -1.219 128.736  0.00  0.00    +0.000 C 
ATOM     29  C   UNL     1      -6.773   0.289 128.830  0.00  0.00    +0.000 C 
ATOM     30  O   UNL     1      -7.063   0.891 129.857  0.00  0.00    +0.000 OA
ATOM     31  N   UNL     1      -6.634   0.906 127.589  0.00  0.00    +0.000 N 
BRANCH  26  32
ATOM     32  C   UNL     1      -7.977  -1.749 125.185  0.00  0.00    +0.000 A 
ATOM     33  C   UNL     1      -8.034  -1.184 123.904  0.00  0.00    +0.000 A 
ATOM     34  C   UNL     1      -8.622  -1.897 122.860  0.00  0.00    +0.000 A 
ATOM     35  C   UNL     1      -9.372  -3.040 123.128  0.00  0.00    +0.000 A 
ATOM     36  C   UNL     1      -9.449  -3.529 124.422  0.00  0.00    +0.000 A 
ATOM     37  C   UNL     1      -8.692  -2.934 125.418  0.00  0.00    +0.000 A 
ENDBRANCH  26  32
BRANCH  31  38
ATOM     38  C   UNL     1      -5.741   2.073 127.440  0.00  0.00    +0.000 C 
BRANCH  38  39
ATOM     39  C   UNL     1      -4.752   2.039 126.276  0.00  0.00    +0.000 C 
ATOM     40  F   UNL     1      -5.300   2.587 125.162  0.00  0.00    +0.000 F 
ATOM     41  F   UNL     1      -3.632   2.738 126.571  0.00  0.00    +0.000 F 
ATOM     42  F   UNL     1      -4.379   0.783 125.960  0.00  0.00    +0.000 F 
ENDBRANCH  38  39
ENDBRANCH  31  38
ENDBRANCH   1  28
TORSDOF 5
ENDMDL
