MODEL 1
REMARK VINA RESULT:      -8.8      0.000      0.000
REMARK  Name = Udenafil
REMARK  15 active torsions:
REMARK  status: ('A' for Active; 'I' for Inactive)
REMARK    1  A    between atoms: C_1  and  C_2
REMARK    2  A    between atoms: C_2  and  C_3
REMARK    3  A    between atoms: C_3  and  O_4
REMARK    4  A    between atoms: O_4  and  C_5
REMARK    5  A    between atoms: C_6  and  C_23
REMARK    6  A    between atoms: C_8  and  S_11
REMARK    7  A    between atoms: S_11  and  N_14
REMARK    8  A    between atoms: N_14  and  C_15
REMARK    9  A    between atoms: C_15  and  C_16
REMARK   10  A    between atoms: C_16  and  C_17
REMARK   11  A    between atoms: N_21  and  C_22
REMARK   12  A    between atoms: C_30  and  C_31
REMARK   13  A    between atoms: C_31  and  C_32
REMARK   14  A    between atoms: C_32  and  C_33
REMARK   15  A    between atoms: N_35  and  C_36
REMARK                            x       y       z     vdW  Elec       q    Type
REMARK                         _______ _______ _______ _____ _____    ______ ____
ROOT
ATOM      1  C   UNL     1      -7.908   0.538 129.509  0.00  0.00    +0.000 A 
ATOM      2  C   UNL     1      -8.086   1.387 128.411  0.00  0.00    +0.000 A 
ATOM      3  C   UNL     1      -8.022   2.783 128.584  0.00  0.00    +0.000 A 
ATOM      4  C   UNL     1      -7.997   3.321 129.882  0.00  0.00    +0.000 A 
ATOM      5  C   UNL     1      -7.921   2.477 130.988  0.00  0.00    +0.000 A 
ATOM      6  C   UNL     1      -7.850   1.090 130.795  0.00  0.00    +0.000 A 
ENDROOT
BRANCH   2   7
ATOM      7  C   UNL     1      -8.393   0.811 127.055  0.00  0.00    +0.000 A 
ATOM      8  N   UNL     1      -9.423   1.256 126.382  0.00  0.00    +0.000 NA
ATOM      9  C   UNL     1      -9.707   0.748 125.116  0.00  0.00    +0.000 A 
ATOM     10  O   UNL     1     -10.650   1.143 124.430  0.00  0.00    +0.000 OA
ATOM     11  C   UNL     1      -8.808  -0.274 124.675  0.00  0.00    +0.000 A 
ATOM     12  C   UNL     1      -7.756  -0.699 125.425  0.00  0.00    +0.000 A 
ATOM     13  N   UNL     1      -7.520  -0.145 126.620  0.00  0.00    +0.000 N 
ATOM     14  C   UNL     1      -7.108  -1.716 124.705  0.00  0.00    +0.000 A 
ATOM     15  N   UNL     1      -7.723  -1.912 123.523  0.00  0.00    +0.000 NA
ATOM     16  N   UNL     1      -8.757  -1.016 123.528  0.00  0.00    +0.000 N 
ATOM     17  C   UNL     1      -9.650  -0.940 122.391  0.00  0.00    +0.000 C 
ATOM     18  H   UNL     1      -6.808  -0.442 127.269  0.00  0.00    +0.000 HD
BRANCH  14  19
ATOM     19  C   UNL     1      -5.904  -2.512 125.117  0.00  0.00    +0.000 C 
BRANCH  19  20
ATOM     20  C   UNL     1      -4.980  -2.822 123.934  0.00  0.00    +0.000 C 
ATOM     21  C   UNL     1      -4.621  -4.273 123.770  0.00  0.00    +0.000 C 
ENDBRANCH  19  20
ENDBRANCH  14  19
ENDBRANCH   2   7
BRANCH   4  22
ATOM     22  S   UNL     1      -8.206   5.078 130.064  0.00  0.00    +0.000 S 
ATOM     23  O   UNL     1      -9.103   5.288 131.179  0.00  0.00    +0.000 OA
ATOM     24  O   UNL     1      -6.888   5.668 130.017  0.00  0.00    +0.000 OA
BRANCH  22  25
ATOM     25  N   UNL     1      -9.051   5.616 128.662  0.00  0.00    +0.000 NA
ATOM     26  H   UNL     1      -9.201   4.813 128.048  0.00  0.00    +0.000 HD
BRANCH  25  27
ATOM     27  C   UNL     1     -10.372   6.198 129.045  0.00  0.00    +0.000 C 
BRANCH  27  28
ATOM     28  C   UNL     1     -10.317   7.727 129.205  0.00  0.00    +0.000 C 
BRANCH  28  29
ATOM     29  C   UNL     1     -11.000   8.400 127.981  0.00  0.00    +0.000 C 
ATOM     30  C   UNL     1     -11.134   7.511 126.730  0.00  0.00    +0.000 C 
ATOM     31  C   UNL     1     -12.581   7.025 126.706  0.00  0.00    +0.000 C 
ATOM     32  C   UNL     1     -13.180   7.556 127.992  0.00  0.00    +0.000 C 
ATOM     33  N   UNL     1     -12.407   8.776 128.232  0.00  0.00    +0.000 NA
ATOM     34  C   UNL     1     -12.697   9.336 129.546  0.00  0.00    +0.000 C 
ENDBRANCH  28  29
ENDBRANCH  27  28
ENDBRANCH  25  27
ENDBRANCH  22  25
ENDBRANCH   4  22
BRANCH   1  35
ATOM     35  O   UNL     1      -7.604  -0.769 129.234  0.00  0.00    +0.000 OA
BRANCH  35  36
ATOM     36  C   UNL     1      -7.931  -1.722 130.241  0.00  0.00    +0.000 C 
BRANCH  36  38
ATOM     37  C   UNL     1      -8.427  -3.271 128.330  0.00  0.00    +0.000 C 
ATOM     38  C   UNL     1      -7.708  -3.117 129.658  0.00  0.00    +0.000 C 
ENDBRANCH  36  38
ENDBRANCH  35  36
ENDBRANCH   1  35
TORSDOF 11
ENDMDL
MODEL 2
REMARK VINA RESULT:      -8.6      2.257      3.070
REMARK  Name = Udenafil
REMARK  15 active torsions:
REMARK  status: ('A' for Active; 'I' for Inactive)
REMARK    1  A    between atoms: C_1  and  C_2
REMARK    2  A    between atoms: C_2  and  C_3
REMARK    3  A    between atoms: C_3  and  O_4
REMARK    4  A    between atoms: O_4  and  C_5
REMARK    5  A    between atoms: C_6  and  C_23
REMARK    6  A    between atoms: C_8  and  S_11
REMARK    7  A    between atoms: S_11  and  N_14
REMARK    8  A    between atoms: N_14  and  C_15
REMARK    9  A    between atoms: C_15  and  C_16
REMARK   10  A    between atoms: C_16  and  C_17
REMARK   11  A    between atoms: N_21  and  C_22
REMARK   12  A    between atoms: C_30  and  C_31
REMARK   13  A    between atoms: C_31  and  C_32
REMARK   14  A    between atoms: C_32  and  C_33
REMARK   15  A    between atoms: N_35  and  C_36
REMARK                            x       y       z     vdW  Elec       q    Type
REMARK                         _______ _______ _______ _____ _____    ______ ____
ROOT
ATOM      1  C   UNL     1      -6.400   2.185 128.377  0.00  0.00    +0.000 A 
ATOM      2  C   UNL     1      -7.726   1.793 128.164  0.00  0.00    +0.000 A 
ATOM      3  C   UNL     1      -8.687   1.984 129.175  0.00  0.00    +0.000 A 
ATOM      4  C   UNL     1      -8.273   2.362 130.463  0.00  0.00    +0.000 A 
ATOM      5  C   UNL     1      -6.934   2.658 130.709  0.00  0.00    +0.000 A 
ATOM      6  C   UNL     1      -6.008   2.594 129.658  0.00  0.00    +0.000 A 
ENDROOT
BRANCH   2   7
ATOM      7  C   UNL     1      -8.117   1.124 126.873  0.00  0.00    +0.000 A 
ATOM      8  N   UNL     1      -9.231   1.467 126.279  0.00  0.00    +0.000 NA
ATOM      9  C   UNL     1      -9.593   0.873 125.071  0.00  0.00    +0.000 A 
ATOM     10  O   UNL     1     -10.620   1.170 124.459  0.00  0.00    +0.000 OA
ATOM     11  C   UNL     1      -8.673  -0.114 124.599  0.00  0.00    +0.000 A 
ATOM     12  C   UNL     1      -7.531  -0.432 125.267  0.00  0.00    +0.000 A 
ATOM     13  N   UNL     1      -7.224   0.201 126.405  0.00  0.00    +0.000 N 
ATOM     14  C   UNL     1      -6.884  -1.445 124.541  0.00  0.00    +0.000 A 
ATOM     15  N   UNL     1      -7.590  -1.744 123.433  0.00  0.00    +0.000 NA
ATOM     16  N   UNL     1      -8.677  -0.915 123.490  0.00  0.00    +0.000 N 
ATOM     17  C   UNL     1      -9.672  -0.957 122.441  0.00  0.00    +0.000 C 
ATOM     18  H   UNL     1      -6.439  -0.014 126.998  0.00  0.00    +0.000 HD
BRANCH  14  19
ATOM     19  C   UNL     1      -5.598  -2.141 124.876  0.00  0.00    +0.000 C 
BRANCH  19  20
ATOM     20  C   UNL     1      -4.981  -2.841 123.659  0.00  0.00    +0.000 C 
ATOM     21  C   UNL     1      -4.602  -4.280 123.878  0.00  0.00    +0.000 C 
ENDBRANCH  19  20
ENDBRANCH  14  19
ENDBRANCH   2   7
BRANCH   4  22
ATOM     22  S   UNL     1      -9.472   2.313 131.776  0.00  0.00    +0.000 S 
ATOM     23  O   UNL     1      -9.986   0.962 131.836  0.00  0.00    +0.000 OA
ATOM     24  O   UNL     1      -8.872   2.957 132.922  0.00  0.00    +0.000 OA
BRANCH  22  25
ATOM     25  N   UNL     1     -10.788   3.304 131.272  0.00  0.00    +0.000 NA
ATOM     26  H   UNL     1     -11.520   3.255 131.983  0.00  0.00    +0.000 HD
BRANCH  25  27
ATOM     27  C   UNL     1     -10.341   4.721 131.121  0.00  0.00    +0.000 C 
BRANCH  27  28
ATOM     28  C   UNL     1     -11.189   5.500 130.101  0.00  0.00    +0.000 C 
BRANCH  28  29
ATOM     29  C   UNL     1     -10.798   7.005 130.144  0.00  0.00    +0.000 C 
ATOM     30  C   UNL     1     -10.187   7.564 128.845  0.00  0.00    +0.000 C 
ATOM     31  C   UNL     1     -11.305   8.332 128.146  0.00  0.00    +0.000 C 
ATOM     32  C   UNL     1     -12.528   8.088 129.005  0.00  0.00    +0.000 C 
ATOM     33  N   UNL     1     -11.956   7.901 130.340  0.00  0.00    +0.000 NA
ATOM     34  C   UNL     1     -12.965   7.449 131.290  0.00  0.00    +0.000 C 
ENDBRANCH  28  29
ENDBRANCH  27  28
ENDBRANCH  25  27
ENDBRANCH  22  25
ENDBRANCH   4  22
BRANCH   1  35
ATOM     35  O   UNL     1      -5.614   2.330 127.264  0.00  0.00    +0.000 OA
BRANCH  35  36
ATOM     36  C   UNL     1      -4.533   3.252 127.366  0.00  0.00    +0.000 C 
BRANCH  36  38
ATOM     37  C   UNL     1      -2.046   3.217 127.031  0.00  0.00    +0.000 C 
ATOM     38  C   UNL     1      -3.384   2.726 126.507  0.00  0.00    +0.000 C 
ENDBRANCH  36  38
ENDBRANCH  35  36
ENDBRANCH   1  35
TORSDOF 11
ENDMDL
MODEL 3
REMARK VINA RESULT:      -8.6      3.950      6.656
REMARK  Name = Udenafil
REMARK  15 active torsions:
REMARK  status: ('A' for Active; 'I' for Inactive)
REMARK    1  A    between atoms: C_1  and  C_2
REMARK    2  A    between atoms: C_2  and  C_3
REMARK    3  A    between atoms: C_3  and  O_4
REMARK    4  A    between atoms: O_4  and  C_5
REMARK    5  A    between atoms: C_6  and  C_23
REMARK    6  A    between atoms: C_8  and  S_11
REMARK    7  A    between atoms: S_11  and  N_14
REMARK    8  A    between atoms: N_14  and  C_15
REMARK    9  A    between atoms: C_15  and  C_16
REMARK   10  A    between atoms: C_16  and  C_17
REMARK   11  A    between atoms: N_21  and  C_22
REMARK   12  A    between atoms: C_30  and  C_31
REMARK   13  A    between atoms: C_31  and  C_32
REMARK   14  A    between atoms: C_32  and  C_33
REMARK   15  A    between atoms: N_35  and  C_36
REMARK                            x       y       z     vdW  Elec       q    Type
REMARK                         _______ _______ _______ _____ _____    ______ ____
ROOT
ATOM      1  C   UNL     1      -6.124   2.033 128.456  0.00  0.00    +0.000 A 
ATOM      2  C   UNL     1      -7.381   1.426 128.363  0.00  0.00    +0.000 A 
ATOM      3  C   UNL     1      -8.158   1.236 129.522  0.00  0.00    +0.000 A 
ATOM      4  C   UNL     1      -7.584   1.453 130.785  0.00  0.00    +0.000 A 
ATOM      5  C   UNL     1      -6.291   1.964 130.888  0.00  0.00    +0.000 A 
ATOM      6  C   UNL     1      -5.577   2.276 129.722  0.00  0.00    +0.000 A 
ENDROOT
BRANCH   2   7
ATOM      7  C   UNL     1      -7.884   0.934 127.032  0.00  0.00    +0.000 A 
ATOM      8  N   UNL     1      -9.059   1.319 126.603  0.00  0.00    +0.000 NA
ATOM      9  C   UNL     1      -9.528   0.889 125.363  0.00  0.00    +0.000 A 
ATOM     10  O   UNL     1     -10.616   1.234 124.901  0.00  0.00    +0.000 OA
ATOM     11  C   UNL     1      -8.638   0.012 124.667  0.00  0.00    +0.000 A 
ATOM     12  C   UNL     1      -7.429  -0.357 125.169  0.00  0.00    +0.000 A 
ATOM     13  N   UNL     1      -7.024   0.119 126.352  0.00  0.00    +0.000 N 
ATOM     14  C   UNL     1      -6.837  -1.233 124.246  0.00  0.00    +0.000 A 
ATOM     15  N   UNL     1      -7.643  -1.397 123.179  0.00  0.00    +0.000 NA
ATOM     16  N   UNL     1      -8.736  -0.623 123.459  0.00  0.00    +0.000 N 
ATOM     17  C   UNL     1      -9.830  -0.551 122.515  0.00  0.00    +0.000 C 
ATOM     18  H   UNL     1      -6.179  -0.151 126.830  0.00  0.00    +0.000 HD
BRANCH  14  19
ATOM     19  C   UNL     1      -5.509  -1.924 124.352  0.00  0.00    +0.000 C 
BRANCH  19  20
ATOM     20  C   UNL     1      -5.623  -3.438 124.138  0.00  0.00    +0.000 C 
ATOM     21  C   UNL     1      -4.397  -4.093 123.562  0.00  0.00    +0.000 C 
ENDBRANCH  19  20
ENDBRANCH  14  19
ENDBRANCH   2   7
BRANCH   4  22
ATOM     22  S   UNL     1      -8.495   0.930 132.221  0.00  0.00    +0.000 S 
ATOM     23  O   UNL     1      -8.765   2.112 133.009  0.00  0.00    +0.000 OA
ATOM     24  O   UNL     1      -9.550   0.058 131.758  0.00  0.00    +0.000 OA
BRANCH  22  25
ATOM     25  N   UNL     1      -7.417  -0.033 133.157  0.00  0.00    +0.000 NA
ATOM     26  H   UNL     1      -7.599   0.148 134.147  0.00  0.00    +0.000 HD
BRANCH  25  27
ATOM     27  C   UNL     1      -7.638  -1.483 132.873  0.00  0.00    +0.000 C 
BRANCH  27  28
ATOM     28  C   UNL     1      -6.598  -2.055 131.894  0.00  0.00    +0.000 C 
BRANCH  28  29
ATOM     29  C   UNL     1      -7.297  -3.039 130.913  0.00  0.00    +0.000 C 
ATOM     30  C   UNL     1      -7.970  -2.384 129.691  0.00  0.00    +0.000 C 
ATOM     31  C   UNL     1      -7.016  -2.593 128.518  0.00  0.00    +0.000 C 
ATOM     32  C   UNL     1      -5.798  -3.250 129.133  0.00  0.00    +0.000 C 
ATOM     33  N   UNL     1      -6.360  -3.983 130.269  0.00  0.00    +0.000 NA
ATOM     34  C   UNL     1      -5.311  -4.527 131.120  0.00  0.00    +0.000 C 
ENDBRANCH  28  29
ENDBRANCH  27  28
ENDBRANCH  25  27
ENDBRANCH  22  25
ENDBRANCH   4  22
BRANCH   1  35
ATOM     35  O   UNL     1      -5.592   2.530 127.296  0.00  0.00    +0.000 OA
BRANCH  35  36
ATOM     36  C   UNL     1      -4.243   2.173 127.012  0.00  0.00    +0.000 C 
BRANCH  36  38
ATOM     37  C   UNL     1      -1.955   3.158 126.703  0.00  0.00    +0.000 C 
ATOM     38  C   UNL     1      -3.431   3.462 126.889  0.00  0.00    +0.000 C 
ENDBRANCH  36  38
ENDBRANCH  35  36
ENDBRANCH   1  35
TORSDOF 11
ENDMDL
MODEL 4
REMARK VINA RESULT:      -8.4      2.585      3.811
REMARK  Name = Udenafil
REMARK  15 active torsions:
REMARK  status: ('A' for Active; 'I' for Inactive)
REMARK    1  A    between atoms: C_1  and  C_2
REMARK    2  A    between atoms: C_2  and  C_3
REMARK    3  A    between atoms: C_3  and  O_4
REMARK    4  A    between atoms: O_4  and  C_5
REMARK    5  A    between atoms: C_6  and  C_23
REMARK    6  A    between atoms: C_8  and  S_11
REMARK    7  A    between atoms: S_11  and  N_14
REMARK    8  A    between atoms: N_14  and  C_15
REMARK    9  A    between atoms: C_15  and  C_16
REMARK   10  A    between atoms: C_16  and  C_17
REMARK   11  A    between atoms: N_21  and  C_22
REMARK   12  A    between atoms: C_30  and  C_31
REMARK   13  A    between atoms: C_31  and  C_32
REMARK   14  A    between atoms: C_32  and  C_33
REMARK   15  A    between atoms: N_35  and  C_36
REMARK                            x       y       z     vdW  Elec       q    Type
REMARK                         _______ _______ _______ _____ _____    ______ ____
ROOT
ATOM      1  C   UNL     1      -5.712   3.327 125.486  0.00  0.00    +0.000 A 
ATOM      2  C   UNL     1      -6.811   2.675 126.057  0.00  0.00    +0.000 A 
ATOM      3  C   UNL     1      -7.314   3.101 127.301  0.00  0.00    +0.000 A 
ATOM      4  C   UNL     1      -6.584   4.028 128.063  0.00  0.00    +0.000 A 
ATOM      5  C   UNL     1      -5.430   4.610 127.542  0.00  0.00    +0.000 A 
ATOM      6  C   UNL     1      -5.014   4.276 126.244  0.00  0.00    +0.000 A 
ENDROOT
BRANCH   2   7
ATOM      7  C   UNL     1      -7.426   1.488 125.364  0.00  0.00    +0.000 A 
ATOM      8  N   UNL     1      -8.675   1.541 124.979  0.00  0.00    +0.000 NA
ATOM      9  C   UNL     1      -9.251   0.458 124.317  0.00  0.00    +0.000 A 
ATOM     10  O   UNL     1     -10.415   0.459 123.916  0.00  0.00    +0.000 OA
ATOM     11  C   UNL     1      -8.376  -0.659 124.139  0.00  0.00    +0.000 A 
ATOM     12  C   UNL     1      -7.085  -0.655 124.568  0.00  0.00    +0.000 A 
ATOM     13  N   UNL     1      -6.583   0.430 125.168  0.00  0.00    +0.000 N 
ATOM     14  C   UNL     1      -6.531  -1.907 124.255  0.00  0.00    +0.000 A 
ATOM     15  N   UNL     1      -7.444  -2.674 123.628  0.00  0.00    +0.000 NA
ATOM     16  N   UNL     1      -8.562  -1.887 123.566  0.00  0.00    +0.000 N 
ATOM     17  C   UNL     1      -9.766  -2.392 122.941  0.00  0.00    +0.000 C 
ATOM     18  H   UNL     1      -5.664   0.498 125.575  0.00  0.00    +0.000 HD
BRANCH  14  19
ATOM     19  C   UNL     1      -5.142  -2.398 124.539  0.00  0.00    +0.000 C 
BRANCH  19  20
ATOM     20  C   UNL     1      -4.566  -3.216 123.378  0.00  0.00    +0.000 C 
ATOM     21  C   UNL     1      -4.285  -4.660 123.695  0.00  0.00    +0.000 C 
ENDBRANCH  19  20
ENDBRANCH  14  19
ENDBRANCH   2   7
BRANCH   4  22
ATOM     22  S   UNL     1      -7.098   4.322 129.741  0.00  0.00    +0.000 S 
ATOM     23  O   UNL     1      -8.093   3.324 130.064  0.00  0.00    +0.000 OA
ATOM     24  O   UNL     1      -5.898   4.493 130.528  0.00  0.00    +0.000 OA
BRANCH  22  25
ATOM     25  N   UNL     1      -7.921   5.835 129.740  0.00  0.00    +0.000 NA
ATOM     26  H   UNL     1      -7.501   6.431 129.023  0.00  0.00    +0.000 HD
BRANCH  25  27
ATOM     27  C   UNL     1      -9.369   5.637 129.431  0.00  0.00    +0.000 C 
BRANCH  27  28
ATOM     28  C   UNL     1     -10.288   6.382 130.414  0.00  0.00    +0.000 C 
BRANCH  28  29
ATOM     29  C   UNL     1     -10.851   7.660 129.730  0.00  0.00    +0.000 C 
ATOM     30  C   UNL     1     -10.698   7.710 128.198  0.00  0.00    +0.000 C 
ATOM     31  C   UNL     1     -12.062   7.340 127.623  0.00  0.00    +0.000 C 
ATOM     32  C   UNL     1     -12.901   6.987 128.833  0.00  0.00    +0.000 C 
ATOM     33  N   UNL     1     -12.312   7.811 129.891  0.00  0.00    +0.000 NA
ATOM     34  C   UNL     1     -12.854   7.462 131.197  0.00  0.00    +0.000 C 
ENDBRANCH  28  29
ENDBRANCH  27  28
ENDBRANCH  25  27
ENDBRANCH  22  25
ENDBRANCH   4  22
BRANCH   1  35
ATOM     35  O   UNL     1      -5.509   3.135 124.145  0.00  0.00    +0.000 OA
BRANCH  35  36
ATOM     36  C   UNL     1      -5.993   4.155 123.277  0.00  0.00    +0.000 C 
BRANCH  36  38
ATOM     37  C   UNL     1      -5.200   4.113 120.896  0.00  0.00    +0.000 C 
ATOM     38  C   UNL     1      -6.191   3.539 121.893  0.00  0.00    +0.000 C 
ENDBRANCH  36  38
ENDBRANCH  35  36
ENDBRANCH   1  35
TORSDOF 11
ENDMDL
MODEL 5
REMARK VINA RESULT:      -8.3      1.700      2.281
REMARK  Name = Udenafil
REMARK  15 active torsions:
REMARK  status: ('A' for Active; 'I' for Inactive)
REMARK    1  A    between atoms: C_1  and  C_2
REMARK    2  A    between atoms: C_2  and  C_3
REMARK    3  A    between atoms: C_3  and  O_4
REMARK    4  A    between atoms: O_4  and  C_5
REMARK    5  A    between atoms: C_6  and  C_23
REMARK    6  A    between atoms: C_8  and  S_11
REMARK    7  A    between atoms: S_11  and  N_14
REMARK    8  A    between atoms: N_14  and  C_15
REMARK    9  A    between atoms: C_15  and  C_16
REMARK   10  A    between atoms: C_16  and  C_17
REMARK   11  A    between atoms: N_21  and  C_22
REMARK   12  A    between atoms: C_30  and  C_31
REMARK   13  A    between atoms: C_31  and  C_32
REMARK   14  A    between atoms: C_32  and  C_33
REMARK   15  A    between atoms: N_35  and  C_36
REMARK                            x       y       z     vdW  Elec       q    Type
REMARK                         _______ _______ _______ _____ _____    ______ ____
ROOT
ATOM      1  C   UNL     1      -7.979   0.128 129.616  0.00  0.00    +0.000 A 
ATOM      2  C   UNL     1      -8.284   1.367 129.041  0.00  0.00    +0.000 A 
ATOM      3  C   UNL     1      -8.466   2.497 129.860  0.00  0.00    +0.000 A 
ATOM      4  C   UNL     1      -8.556   2.337 131.253  0.00  0.00    +0.000 A 
ATOM      5  C   UNL     1      -8.353   1.084 131.829  0.00  0.00    +0.000 A 
ATOM      6  C   UNL     1      -8.039  -0.010 131.009  0.00  0.00    +0.000 A 
ENDROOT
BRANCH   2   7
ATOM      7  C   UNL     1      -8.465   1.482 127.551  0.00  0.00    +0.000 A 
ATOM      8  N   UNL     1      -8.503   2.665 126.994  0.00  0.00    +0.000 NA
ATOM      9  C   UNL     1      -8.647   2.786 125.614  0.00  0.00    +0.000 A 
ATOM     10  O   UNL     1      -8.670   3.873 125.034  0.00  0.00    +0.000 OA
ATOM     11  C   UNL     1      -8.767   1.541 124.920  0.00  0.00    +0.000 A 
ATOM     12  C   UNL     1      -8.726   0.340 125.558  0.00  0.00    +0.000 A 
ATOM     13  N   UNL     1      -8.551   0.292 126.884  0.00  0.00    +0.000 N 
ATOM     14  C   UNL     1      -8.896  -0.660 124.587  0.00  0.00    +0.000 A 
ATOM     15  N   UNL     1      -9.021  -0.105 123.366  0.00  0.00    +0.000 NA
ATOM     16  N   UNL     1      -8.935   1.241 123.597  0.00  0.00    +0.000 N 
ATOM     17  C   UNL     1      -9.027   2.170 122.490  0.00  0.00    +0.000 C 
ATOM     18  H   UNL     1      -8.575  -0.544 127.445  0.00  0.00    +0.000 HD
BRANCH  14  19
ATOM     19  C   UNL     1      -8.941  -2.146 124.793  0.00  0.00    +0.000 C 
BRANCH  19  20
ATOM     20  C   UNL     1      -7.828  -2.873 124.030  0.00  0.00    +0.000 C 
ATOM     21  C   UNL     1      -6.439  -2.644 124.560  0.00  0.00    +0.000 C 
ENDBRANCH  19  20
ENDBRANCH  14  19
ENDBRANCH   2   7
BRANCH   4  22
ATOM     22  S   UNL     1      -9.070   3.735 132.226  0.00  0.00    +0.000 S 
ATOM     23  O   UNL     1      -9.450   3.234 133.528  0.00  0.00    +0.000 OA
ATOM     24  O   UNL     1      -8.062   4.758 132.062  0.00  0.00    +0.000 OA
BRANCH  22  25
ATOM     25  N   UNL     1     -10.515   4.329 131.500  0.00  0.00    +0.000 NA
ATOM     26  H   UNL     1     -11.287   4.187 132.155  0.00  0.00    +0.000 HD
BRANCH  25  27
ATOM     27  C   UNL     1     -10.384   5.786 131.201  0.00  0.00    +0.000 C 
BRANCH  27  28
ATOM     28  C   UNL     1     -10.372   6.079 129.691  0.00  0.00    +0.000 C 
BRANCH  28  29
ATOM     29  C   UNL     1     -11.811   6.432 129.221  0.00  0.00    +0.000 C 
ATOM     30  C   UNL     1     -12.706   7.100 130.282  0.00  0.00    +0.000 C 
ATOM     31  C   UNL     1     -12.712   8.591 129.956  0.00  0.00    +0.000 C 
ATOM     32  C   UNL     1     -11.740   8.730 128.803  0.00  0.00    +0.000 C 
ATOM     33  N   UNL     1     -11.839   7.432 128.133  0.00  0.00    +0.000 NA
ATOM     34  C   UNL     1     -10.820   7.289 127.102  0.00  0.00    +0.000 C 
ENDBRANCH  28  29
ENDBRANCH  27  28
ENDBRANCH  25  27
ENDBRANCH  22  25
ENDBRANCH   4  22
BRANCH   1  35
ATOM     35  O   UNL     1      -7.449  -0.823 128.785  0.00  0.00    +0.000 OA
BRANCH  35  36
ATOM     36  C   UNL     1      -6.529  -1.738 129.373  0.00  0.00    +0.000 C 
BRANCH  36  38
ATOM     37  C   UNL     1      -8.320  -3.132 128.301  0.00  0.00    +0.000 C 
ATOM     38  C   UNL     1      -7.075  -3.151 129.171  0.00  0.00    +0.000 C 
ENDBRANCH  36  38
ENDBRANCH  35  36
ENDBRANCH   1  35
TORSDOF 11
ENDMDL
MODEL 6
REMARK VINA RESULT:      -8.2      3.330      7.494
REMARK  Name = Udenafil
REMARK  15 active torsions:
REMARK  status: ('A' for Active; 'I' for Inactive)
REMARK    1  A    between atoms: C_1  and  C_2
REMARK    2  A    between atoms: C_2  and  C_3
REMARK    3  A    between atoms: C_3  and  O_4
REMARK    4  A    between atoms: O_4  and  C_5
REMARK    5  A    between atoms: C_6  and  C_23
REMARK    6  A    between atoms: C_8  and  S_11
REMARK    7  A    between atoms: S_11  and  N_14
REMARK    8  A    between atoms: N_14  and  C_15
REMARK    9  A    between atoms: C_15  and  C_16
REMARK   10  A    between atoms: C_16  and  C_17
REMARK   11  A    between atoms: N_21  and  C_22
REMARK   12  A    between atoms: C_30  and  C_31
REMARK   13  A    between atoms: C_31  and  C_32
REMARK   14  A    between atoms: C_32  and  C_33
REMARK   15  A    between atoms: N_35  and  C_36
REMARK                            x       y       z     vdW  Elec       q    Type
REMARK                         _______ _______ _______ _____ _____    ______ ____
ROOT
ATOM      1  C   UNL     1      -8.954   4.741 129.618  0.00  0.00    +0.000 A 
ATOM      2  C   UNL     1      -8.378   3.601 129.047  0.00  0.00    +0.000 A 
ATOM      3  C   UNL     1      -8.351   2.391 129.767  0.00  0.00    +0.000 A 
ATOM      4  C   UNL     1      -8.700   2.386 131.128  0.00  0.00    +0.000 A 
ATOM      5  C   UNL     1      -9.180   3.546 131.733  0.00  0.00    +0.000 A 
ATOM      6  C   UNL     1      -9.330   4.712 130.967  0.00  0.00    +0.000 A 
ENDROOT
BRANCH   2   7
ATOM      7  C   UNL     1      -7.747   3.678 127.683  0.00  0.00    +0.000 A 
ATOM      8  N   UNL     1      -8.485   3.497 126.618  0.00  0.00    +0.000 NA
ATOM      9  C   UNL     1      -7.919   3.588 125.348  0.00  0.00    +0.000 A 
ATOM     10  O   UNL     1      -8.568   3.445 124.312  0.00  0.00    +0.000 OA
ATOM     11  C   UNL     1      -6.515   3.861 125.346  0.00  0.00    +0.000 A 
ATOM     12  C   UNL     1      -5.799   4.034 126.490  0.00  0.00    +0.000 A 
ATOM     13  N   UNL     1      -6.411   3.968 127.678  0.00  0.00    +0.000 N 
ATOM     14  C   UNL     1      -4.463   4.260 126.123  0.00  0.00    +0.000 A 
ATOM     15  N   UNL     1      -4.342   4.248 124.781  0.00  0.00    +0.000 NA
ATOM     16  N   UNL     1      -5.611   4.007 124.330  0.00  0.00    +0.000 N 
ATOM     17  C   UNL     1      -5.868   3.928 122.908  0.00  0.00    +0.000 C 
ATOM     18  H   UNL     1      -5.952   4.016 128.573  0.00  0.00    +0.000 HD
BRANCH  14  19
ATOM     19  C   UNL     1      -3.286   4.489 127.025  0.00  0.00    +0.000 C 
BRANCH  19  20
ATOM     20  C   UNL     1      -2.575   3.183 127.398  0.00  0.00    +0.000 C 
ATOM     21  C   UNL     1      -1.362   2.859 126.570  0.00  0.00    +0.000 C 
ENDBRANCH  19  20
ENDBRANCH  14  19
ENDBRANCH   2   7
BRANCH   4  22
ATOM     22  S   UNL     1      -8.380   0.911 132.069  0.00  0.00    +0.000 S 
ATOM     23  O   UNL     1      -7.816   1.325 133.335  0.00  0.00    +0.000 OA
ATOM     24  O   UNL     1      -9.567   0.091 131.990  0.00  0.00    +0.000 OA
BRANCH  22  25
ATOM     25  N   UNL     1      -7.127   0.067 131.241  0.00  0.00    +0.000 NA
ATOM     26  H   UNL     1      -6.378  -0.135 131.907  0.00  0.00    +0.000 HD
BRANCH  25  27
ATOM     27  C   UNL     1      -7.648  -1.215 130.680  0.00  0.00    +0.000 C 
BRANCH  27  28
ATOM     28  C   UNL     1      -7.751  -1.188 129.146  0.00  0.00    +0.000 C 
BRANCH  28  29
ATOM     29  C   UNL     1      -7.390  -2.590 128.578  0.00  0.00    +0.000 C 
ATOM     30  C   UNL     1      -8.575  -3.561 128.417  0.00  0.00    +0.000 C 
ATOM     31  C   UNL     1      -8.939  -3.546 126.936  0.00  0.00    +0.000 C 
ATOM     32  C   UNL     1      -8.032  -2.493 126.333  0.00  0.00    +0.000 C 
ATOM     33  N   UNL     1      -6.854  -2.540 127.202  0.00  0.00    +0.000 NA
ATOM     34  C   UNL     1      -5.936  -1.448 126.909  0.00  0.00    +0.000 C 
ENDBRANCH  28  29
ENDBRANCH  27  28
ENDBRANCH  25  27
ENDBRANCH  22  25
ENDBRANCH   4  22
BRANCH   1  35
ATOM     35  O   UNL     1      -9.292   5.755 128.762  0.00  0.00    +0.000 OA
BRANCH  35  36
ATOM     36  C   UNL     1     -10.597   6.307 128.915  0.00  0.00    +0.000 C 
BRANCH  36  38
ATOM     37  C   UNL     1     -10.481   8.707 128.191  0.00  0.00    +0.000 C 
ATOM     38  C   UNL     1     -10.829   7.291 127.769  0.00  0.00    +0.000 C 
ENDBRANCH  36  38
ENDBRANCH  35  36
ENDBRANCH   1  35
TORSDOF 11
ENDMDL
MODEL 7
REMARK VINA RESULT:      -8.2      2.898      4.121
REMARK  Name = Udenafil
REMARK  15 active torsions:
REMARK  status: ('A' for Active; 'I' for Inactive)
REMARK    1  A    between atoms: C_1  and  C_2
REMARK    2  A    between atoms: C_2  and  C_3
REMARK    3  A    between atoms: C_3  and  O_4
REMARK    4  A    between atoms: O_4  and  C_5
REMARK    5  A    between atoms: C_6  and  C_23
REMARK    6  A    between atoms: C_8  and  S_11
REMARK    7  A    between atoms: S_11  and  N_14
REMARK    8  A    between atoms: N_14  and  C_15
REMARK    9  A    between atoms: C_15  and  C_16
REMARK   10  A    between atoms: C_16  and  C_17
REMARK   11  A    between atoms: N_21  and  C_22
REMARK   12  A    between atoms: C_30  and  C_31
REMARK   13  A    between atoms: C_31  and  C_32
REMARK   14  A    between atoms: C_32  and  C_33
REMARK   15  A    between atoms: N_35  and  C_36
REMARK                            x       y       z     vdW  Elec       q    Type
REMARK                         _______ _______ _______ _____ _____    ______ ____
ROOT
ATOM      1  C   UNL     1      -5.704   0.878 128.443  0.00  0.00    +0.000 A 
ATOM      2  C   UNL     1      -7.088   0.705 128.343  0.00  0.00    +0.000 A 
ATOM      3  C   UNL     1      -7.888   0.745 129.501  0.00  0.00    +0.000 A 
ATOM      4  C   UNL     1      -7.277   0.738 130.767  0.00  0.00    +0.000 A 
ATOM      5  C   UNL     1      -5.889   0.808 130.874  0.00  0.00    +0.000 A 
ATOM      6  C   UNL     1      -5.110   0.904 129.712  0.00  0.00    +0.000 A 
ENDROOT
BRANCH   2   7
ATOM      7  C   UNL     1      -7.719   0.431 127.004  0.00  0.00    +0.000 A 
ATOM      8  N   UNL     1      -8.627   1.249 126.538  0.00  0.00    +0.000 NA
ATOM      9  C   UNL     1      -9.203   1.020 125.290  0.00  0.00    +0.000 A 
ATOM     10  O   UNL     1     -10.048   1.766 124.793  0.00  0.00    +0.000 OA
ATOM     11  C   UNL     1      -8.731  -0.158 124.629  0.00  0.00    +0.000 A 
ATOM     12  C   UNL     1      -7.787  -0.974 125.170  0.00  0.00    +0.000 A 
ATOM     13  N   UNL     1      -7.249  -0.678 126.358  0.00  0.00    +0.000 N 
ATOM     14  C   UNL     1      -7.581  -2.035 124.273  0.00  0.00    +0.000 A 
ATOM     15  N   UNL     1      -8.362  -1.881 123.186  0.00  0.00    +0.000 NA
ATOM     16  N   UNL     1      -9.052  -0.725 123.426  0.00  0.00    +0.000 N 
ATOM     17  C   UNL     1     -10.002  -0.236 122.450  0.00  0.00    +0.000 C 
ATOM     18  H   UNL     1      -6.596  -1.257 126.863  0.00  0.00    +0.000 HD
BRANCH  14  19
ATOM     19  C   UNL     1      -6.651  -3.202 124.425  0.00  0.00    +0.000 C 
BRANCH  19  20
ATOM     20  C   UNL     1      -5.244  -2.898 123.896  0.00  0.00    +0.000 C 
ATOM     21  C   UNL     1      -4.429  -4.106 123.525  0.00  0.00    +0.000 C 
ENDBRANCH  19  20
ENDBRANCH  14  19
ENDBRANCH   2   7
BRANCH   4  22
ATOM     22  S   UNL     1      -8.310   0.499 132.195  0.00  0.00    +0.000 S 
ATOM     23  O   UNL     1      -9.667   0.343 131.718  0.00  0.00    +0.000 OA
ATOM     24  O   UNL     1      -7.667  -0.497 133.021  0.00  0.00    +0.000 OA
BRANCH  22  25
ATOM     25  N   UNL     1      -8.279   1.981 133.072  0.00  0.00    +0.000 NA
ATOM     26  H   UNL     1      -7.460   1.976 133.685  0.00  0.00    +0.000 HD
BRANCH  25  27
ATOM     27  C   UNL     1      -8.185   3.138 132.132  0.00  0.00    +0.000 C 
BRANCH  27  28
ATOM     28  C   UNL     1      -9.418   4.054 132.202  0.00  0.00    +0.000 C 
BRANCH  28  29
ATOM     29  C   UNL     1      -8.990   5.463 132.699  0.00  0.00    +0.000 C 
ATOM     30  C   UNL     1      -7.540   5.867 132.367  0.00  0.00    +0.000 C 
ATOM     31  C   UNL     1      -7.624   6.805 131.167  0.00  0.00    +0.000 C 
ATOM     32  C   UNL     1      -9.092   6.811 130.793  0.00  0.00    +0.000 C 
ATOM     33  N   UNL     1      -9.757   6.560 132.073  0.00  0.00    +0.000 NA
ATOM     34  C   UNL     1     -11.183   6.325 131.892  0.00  0.00    +0.000 C 
ENDBRANCH  28  29
ENDBRANCH  27  28
ENDBRANCH  25  27
ENDBRANCH  22  25
ENDBRANCH   4  22
BRANCH   1  35
ATOM     35  O   UNL     1      -5.038   1.206 127.292  0.00  0.00    +0.000 OA
BRANCH  35  36
ATOM     36  C   UNL     1      -4.324   2.438 127.301  0.00  0.00    +0.000 C 
BRANCH  36  38
ATOM     37  C   UNL     1      -4.620   4.903 126.934  0.00  0.00    +0.000 C 
ATOM     38  C   UNL     1      -5.275   3.537 126.828  0.00  0.00    +0.000 C 
ENDBRANCH  36  38
ENDBRANCH  35  36
ENDBRANCH   1  35
TORSDOF 11
ENDMDL
MODEL 8
REMARK VINA RESULT:      -8.1      3.029      9.273
REMARK  Name = Udenafil
REMARK  15 active torsions:
REMARK  status: ('A' for Active; 'I' for Inactive)
REMARK    1  A    between atoms: C_1  and  C_2
REMARK    2  A    between atoms: C_2  and  C_3
REMARK    3  A    between atoms: C_3  and  O_4
REMARK    4  A    between atoms: O_4  and  C_5
REMARK    5  A    between atoms: C_6  and  C_23
REMARK    6  A    between atoms: C_8  and  S_11
REMARK    7  A    between atoms: S_11  and  N_14
REMARK    8  A    between atoms: N_14  and  C_15
REMARK    9  A    between atoms: C_15  and  C_16
REMARK   10  A    between atoms: C_16  and  C_17
REMARK   11  A    between atoms: N_21  and  C_22
REMARK   12  A    between atoms: C_30  and  C_31
REMARK   13  A    between atoms: C_31  and  C_32
REMARK   14  A    between atoms: C_32  and  C_33
REMARK   15  A    between atoms: N_35  and  C_36
REMARK                            x       y       z     vdW  Elec       q    Type
REMARK                         _______ _______ _______ _____ _____    ______ ____
ROOT
ATOM      1  C   UNL     1      -6.083   4.412 126.644  0.00  0.00    +0.000 A 
ATOM      2  C   UNL     1      -7.176   3.609 126.989  0.00  0.00    +0.000 A 
ATOM      3  C   UNL     1      -7.855   2.880 125.995  0.00  0.00    +0.000 A 
ATOM      4  C   UNL     1      -7.575   3.127 124.640  0.00  0.00    +0.000 A 
ATOM      5  C   UNL     1      -6.552   4.004 124.286  0.00  0.00    +0.000 A 
ATOM      6  C   UNL     1      -5.793   4.622 125.290  0.00  0.00    +0.000 A 
ENDROOT
BRANCH   2   7
ATOM      7  C   UNL     1      -7.655   3.562 128.415  0.00  0.00    +0.000 A 
ATOM      8  N   UNL     1      -7.570   2.443 129.089  0.00  0.00    +0.000 NA
ATOM      9  C   UNL     1      -7.990   2.390 130.416  0.00  0.00    +0.000 A 
ATOM     10  O   UNL     1      -7.916   1.371 131.103  0.00  0.00    +0.000 OA
ATOM     11  C   UNL     1      -8.515   3.622 130.920  0.00  0.00    +0.000 A 
ATOM     12  C   UNL     1      -8.583   4.753 130.166  0.00  0.00    +0.000 A 
ATOM     13  N   UNL     1      -8.131   4.745 128.907  0.00  0.00    +0.000 N 
ATOM     14  C   UNL     1      -9.167   5.754 130.958  0.00  0.00    +0.000 A 
ATOM     15  N   UNL     1      -9.443   5.272 132.186  0.00  0.00    +0.000 NA
ATOM     16  N   UNL     1      -9.032   3.968 132.137  0.00  0.00    +0.000 N 
ATOM     17  C   UNL     1      -9.173   3.124 133.304  0.00  0.00    +0.000 C 
ATOM     18  H   UNL     1      -8.202   5.512 128.258  0.00  0.00    +0.000 HD
BRANCH  14  19
ATOM     19  C   UNL     1      -9.472   7.172 130.574  0.00  0.00    +0.000 C 
BRANCH  19  20
ATOM     20  C   UNL     1     -10.646   7.269 129.594  0.00  0.00    +0.000 C 
ATOM     21  C   UNL     1     -10.476   8.282 128.495  0.00  0.00    +0.000 C 
ENDBRANCH  19  20
ENDBRANCH  14  19
ENDBRANCH   2   7
BRANCH   4  22
ATOM     22  S   UNL     1      -8.646   2.403 123.418  0.00  0.00    +0.000 S 
ATOM     23  O   UNL     1      -9.798   1.877 124.117  0.00  0.00    +0.000 OA
ATOM     24  O   UNL     1      -8.772   3.361 122.344  0.00  0.00    +0.000 OA
BRANCH  22  25
ATOM     25  N   UNL     1      -7.807   1.039 122.783  0.00  0.00    +0.000 NA
ATOM     26  H   UNL     1      -7.135   1.369 122.087  0.00  0.00    +0.000 HD
BRANCH  25  27
ATOM     27  C   UNL     1      -7.078   0.325 123.874  0.00  0.00    +0.000 C 
BRANCH  27  28
ATOM     28  C   UNL     1      -7.810  -0.946 124.337  0.00  0.00    +0.000 C 
BRANCH  28  29
ATOM     29  C   UNL     1      -7.504  -2.108 123.350  0.00  0.00    +0.000 C 
ATOM     30  C   UNL     1      -6.176  -1.986 122.579  0.00  0.00    +0.000 C 
ATOM     31  C   UNL     1      -5.190  -2.916 123.281  0.00  0.00    +0.000 C 
ATOM     32  C   UNL     1      -5.952  -3.440 124.481  0.00  0.00    +0.000 C 
ATOM     33  N   UNL     1      -7.342  -3.415 124.021  0.00  0.00    +0.000 NA
ATOM     34  C   UNL     1      -8.265  -3.695 125.113  0.00  0.00    +0.000 C 
ENDBRANCH  28  29
ENDBRANCH  27  28
ENDBRANCH  25  27
ENDBRANCH  22  25
ENDBRANCH   4  22
BRANCH   1  35
ATOM     35  O   UNL     1      -5.245   4.783 127.662  0.00  0.00    +0.000 OA
BRANCH  35  36
ATOM     36  C   UNL     1      -3.865   4.910 127.335  0.00  0.00    +0.000 C 
BRANCH  36  38
ATOM     37  C   UNL     1      -2.100   3.221 126.758  0.00  0.00    +0.000 C 
ATOM     38  C   UNL     1      -3.159   3.626 127.768  0.00  0.00    +0.000 C 
ENDBRANCH  36  38
ENDBRANCH  35  36
ENDBRANCH   1  35
TORSDOF 11
ENDMDL
MODEL 9
REMARK VINA RESULT:      -8.1      2.289      3.751
REMARK  Name = Udenafil
REMARK  15 active torsions:
REMARK  status: ('A' for Active; 'I' for Inactive)
REMARK    1  A    between atoms: C_1  and  C_2
REMARK    2  A    between atoms: C_2  and  C_3
REMARK    3  A    between atoms: C_3  and  O_4
REMARK    4  A    between atoms: O_4  and  C_5
REMARK    5  A    between atoms: C_6  and  C_23
REMARK    6  A    between atoms: C_8  and  S_11
REMARK    7  A    between atoms: S_11  and  N_14
REMARK    8  A    between atoms: N_14  and  C_15
REMARK    9  A    between atoms: C_15  and  C_16
REMARK   10  A    between atoms: C_16  and  C_17
REMARK   11  A    between atoms: N_21  and  C_22
REMARK   12  A    between atoms: C_30  and  C_31
REMARK   13  A    between atoms: C_31  and  C_32
REMARK   14  A    between atoms: C_32  and  C_33
REMARK   15  A    between atoms: N_35  and  C_36
REMARK                            x       y       z     vdW  Elec       q    Type
REMARK                         _______ _______ _______ _____ _____    ______ ____
ROOT
ATOM      1  C   UNL     1      -6.233   3.620 129.401  0.00  0.00    +0.000 A 
ATOM      2  C   UNL     1      -7.542   3.134 129.313  0.00  0.00    +0.000 A 
ATOM      3  C   UNL     1      -8.558   3.704 130.105  0.00  0.00    +0.000 A 
ATOM      4  C   UNL     1      -8.217   4.602 131.130  0.00  0.00    +0.000 A 
ATOM      5  C   UNL     1      -6.896   5.015 131.289  0.00  0.00    +0.000 A 
ATOM      6  C   UNL     1      -5.914   4.542 130.406  0.00  0.00    +0.000 A 
ENDROOT
BRANCH   2   7
ATOM      7  C   UNL     1      -7.856   1.972 128.409  0.00  0.00    +0.000 A 
ATOM      8  N   UNL     1      -8.668   2.142 127.398  0.00  0.00    +0.000 NA
ATOM      9  C   UNL     1      -8.951   1.081 126.539  0.00  0.00    +0.000 A 
ATOM     10  O   UNL     1      -9.691   1.188 125.561  0.00  0.00    +0.000 OA
ATOM     11  C   UNL     1      -8.307  -0.147 126.887  0.00  0.00    +0.000 A 
ATOM     12  C   UNL     1      -7.475  -0.262 127.958  0.00  0.00    +0.000 A 
ATOM     13  N   UNL     1      -7.220   0.805 128.724  0.00  0.00    +0.000 N 
ATOM     14  C   UNL     1      -7.044  -1.597 128.017  0.00  0.00    +0.000 A 
ATOM     15  N   UNL     1      -7.574  -2.301 126.998  0.00  0.00    +0.000 NA
ATOM     16  N   UNL     1      -8.338  -1.392 126.320  0.00  0.00    +0.000 N 
ATOM     17  C   UNL     1      -9.069  -1.801 125.140  0.00  0.00    +0.000 C 
ATOM     18  H   UNL     1      -6.674   0.797 129.570  0.00  0.00    +0.000 HD
BRANCH  14  19
ATOM     19  C   UNL     1      -6.130  -2.226 129.027  0.00  0.00    +0.000 C 
BRANCH  19  20
ATOM     20  C   UNL     1      -6.850  -3.265 129.895  0.00  0.00    +0.000 C 
ATOM     21  C   UNL     1      -5.979  -4.380 130.407  0.00  0.00    +0.000 C 
ENDBRANCH  19  20
ENDBRANCH  14  19
ENDBRANCH   2   7
BRANCH   4  22
ATOM     22  S   UNL     1      -9.485   5.074 132.285  0.00  0.00    +0.000 S 
ATOM     23  O   UNL     1      -9.530   4.055 133.310  0.00  0.00    +0.000 OA
ATOM     24  O   UNL     1      -9.274   6.469 132.599  0.00  0.00    +0.000 OA
BRANCH  22  25
ATOM     25  N   UNL     1     -10.981   4.967 131.438  0.00  0.00    +0.000 NA
ATOM     26  H   UNL     1     -11.518   4.189 131.827  0.00  0.00    +0.000 HD
BRANCH  25  27
ATOM     27  C   UNL     1     -11.759   6.232 131.598  0.00  0.00    +0.000 C 
BRANCH  27  28
ATOM     28  C   UNL     1     -12.255   6.793 130.254  0.00  0.00    +0.000 C 
BRANCH  28  29
ATOM     29  C   UNL     1     -11.157   7.704 129.636  0.00  0.00    +0.000 C 
ATOM     30  C   UNL     1     -10.151   6.990 128.713  0.00  0.00    +0.000 C 
ATOM     31  C   UNL     1     -10.587   7.304 127.285  0.00  0.00    +0.000 C 
ATOM     32  C   UNL     1     -11.878   8.081 127.445  0.00  0.00    +0.000 C 
ATOM     33  N   UNL     1     -11.701   8.744 128.739  0.00  0.00    +0.000 NA
ATOM     34  C   UNL     1     -12.932   9.390 129.175  0.00  0.00    +0.000 C 
ENDBRANCH  28  29
ENDBRANCH  27  28
ENDBRANCH  25  27
ENDBRANCH  22  25
ENDBRANCH   4  22
BRANCH   1  35
ATOM     35  O   UNL     1      -5.390   3.307 128.368  0.00  0.00    +0.000 OA
BRANCH  35  36
ATOM     36  C   UNL     1      -5.174   4.324 127.394  0.00  0.00    +0.000 C 
BRANCH  36  38
ATOM     37  C   UNL     1      -2.978   3.145 127.690  0.00  0.00    +0.000 C 
ATOM     38  C   UNL     1      -3.710   4.259 126.962  0.00  0.00    +0.000 C 
ENDBRANCH  36  38
ENDBRANCH  35  36
ENDBRANCH   1  35
TORSDOF 11
ENDMDL
