MODEL 1
REMARK VINA RESULT:      -9.1      0.000      0.000
REMARK  Name = Ulipristal
REMARK  8 active torsions:
REMARK  status: ('A' for Active; 'I' for Inactive)
REMARK    1  A    between atoms: C_1  and  N_2
REMARK    2  A    between atoms: N_2  and  C_3
REMARK    3  A    between atoms: N_2  and  C_4
REMARK    4  A    between atoms: C_7  and  C_10
REMARK    5  A    between atoms: C_12  and  C_13
REMARK    6  A    between atoms: C_17  and  O_18
REMARK    7  A    between atoms: C_17  and  C_19
REMARK    8  A    between atoms: C_19  and  C_20
REMARK                            x       y       z     vdW  Elec       q    Type
REMARK                         _______ _______ _______ _____ _____    ______ ____
ROOT
ATOM      1  C   UNL     1      -8.557   2.332 123.937  0.00  0.00    +0.000 C 
ATOM      2  C   UNL     1      -8.682   3.067 125.309  0.00  0.00    +0.000 C 
ATOM      3  C   UNL     1      -7.379   3.471 126.055  0.00  0.00    +0.000 C 
ATOM      4  C   UNL     1      -7.959   4.120 127.443  0.00  0.00    +0.000 C 
ATOM      5  C   UNL     1      -6.461   4.234 125.078  0.00  0.00    +0.000 C 
ATOM      6  C   UNL     1      -5.066   4.393 125.750  0.00  0.00    +0.000 C 
ATOM      7  C   UNL     1      -5.507   4.244 127.157  0.00  0.00    +0.000 C 
ATOM      8  C   UNL     1      -6.375   2.692 126.830  0.00  0.00    +0.000 C 
ATOM      9  C   UNL     1      -6.260   3.435 123.781  0.00  0.00    +0.000 C 
ATOM     10  C   UNL     1      -5.112   4.137 123.076  0.00  0.00    +0.000 C 
ATOM     11  C   UNL     1      -5.364   4.578 121.713  0.00  0.00    +0.000 C 
ATOM     12  C   UNL     1      -6.560   4.045 121.158  0.00  0.00    +0.000 C 
ATOM     13  C   UNL     1      -6.242   3.549 119.919  0.00  0.00    +0.000 C 
ATOM     14  C   UNL     1      -6.433   4.797 119.190  0.00  0.00    +0.000 C 
ATOM     15  O   UNL     1      -5.540   5.526 118.879  0.00  0.00    +0.000 OA
ATOM     16  C   UNL     1      -7.874   4.640 118.769  0.00  0.00    +0.000 C 
ATOM     17  C   UNL     1      -8.716   3.797 120.269  0.00  0.00    +0.000 C 
ATOM     18  C   UNL     1      -7.779   3.626 121.696  0.00  0.00    +0.000 C 
ATOM     19  C   UNL     1      -7.635   3.162 123.001  0.00  0.00    +0.000 C 
ENDROOT
BRANCH   1  23
ATOM     20  C   UNL     1      -7.487  -1.910 124.417  0.00  0.00    +0.000 A 
ATOM     21  C   UNL     1      -6.864  -1.098 123.459  0.00  0.00    +0.000 A 
ATOM     22  C   UNL     1      -7.105   0.285 123.386  0.00  0.00    +0.000 A 
ATOM     23  C   UNL     1      -8.092   0.879 124.182  0.00  0.00    +0.000 A 
ATOM     24  C   UNL     1      -8.687   0.062 125.149  0.00  0.00    +0.000 A 
ATOM     25  C   UNL     1      -8.430  -1.304 125.236  0.00  0.00    +0.000 A 
BRANCH  20  27
ATOM     26  C   UNL     1      -5.825  -3.709 124.166  0.00  0.00    +0.000 C 
ATOM     27  N   UNL     1      -7.134  -3.237 124.578  0.00  0.00    +0.000 N 
ATOM     28  C   UNL     1      -8.177  -4.193 124.913  0.00  0.00    +0.000 C 
ENDBRANCH  20  27
ENDBRANCH   1  23
BRANCH   8  29
ATOM     29  C   UNL     1      -5.163   1.826 127.114  0.00  0.00    +0.000 C 
ATOM     30  C   UNL     1      -4.996   0.728 126.094  0.00  0.00    +0.000 C 
ATOM     31  O   UNL     1      -4.461   1.819 128.122  0.00  0.00    +0.000 OA
ENDBRANCH   8  29
BRANCH   8  32
ATOM     32  O   UNL     1      -7.321   1.784 127.482  0.00  0.00    +0.000 OA
ATOM     33  H   UNL     1      -6.841   1.016 127.876  0.00  0.00    +0.000 HD
ENDBRANCH   8  32
TORSDOF 4
ENDMDL
MODEL 2
REMARK VINA RESULT:      -8.4      6.051      8.373
REMARK  Name = Ulipristal
REMARK  8 active torsions:
REMARK  status: ('A' for Active; 'I' for Inactive)
REMARK    1  A    between atoms: C_1  and  N_2
REMARK    2  A    between atoms: N_2  and  C_3
REMARK    3  A    between atoms: N_2  and  C_4
REMARK    4  A    between atoms: C_7  and  C_10
REMARK    5  A    between atoms: C_12  and  C_13
REMARK    6  A    between atoms: C_17  and  O_18
REMARK    7  A    between atoms: C_17  and  C_19
REMARK    8  A    between atoms: C_19  and  C_20
REMARK                            x       y       z     vdW  Elec       q    Type
REMARK                         _______ _______ _______ _____ _____    ______ ____
ROOT
ATOM      1  C   UNL     1      -8.220  -1.839 130.793  0.00  0.00    +0.000 C 
ATOM      2  C   UNL     1      -7.499  -2.948 131.625  0.00  0.00    +0.000 C 
ATOM      3  C   UNL     1      -5.945  -2.978 131.630  0.00  0.00    +0.000 C 
ATOM      4  C   UNL     1      -5.625  -4.308 132.530  0.00  0.00    +0.000 C 
ATOM      5  C   UNL     1      -5.420  -1.570 131.977  0.00  0.00    +0.000 C 
ATOM      6  C   UNL     1      -3.885  -1.548 131.717  0.00  0.00    +0.000 C 
ATOM      7  C   UNL     1      -3.647  -3.007 131.821  0.00  0.00    +0.000 C 
ATOM      8  C   UNL     1      -4.939  -3.409 130.621  0.00  0.00    +0.000 C 
ATOM      9  C   UNL     1      -6.058  -0.509 131.067  0.00  0.00    +0.000 C 
ATOM     10  C   UNL     1      -5.228   0.741 131.301  0.00  0.00    +0.000 C 
ATOM     11  C   UNL     1      -5.957   1.935 131.702  0.00  0.00    +0.000 C 
ATOM     12  C   UNL     1      -7.366   1.813 131.554  0.00  0.00    +0.000 C 
ATOM     13  C   UNL     1      -7.799   2.936 130.894  0.00  0.00    +0.000 C 
ATOM     14  C   UNL     1      -7.972   3.765 132.081  0.00  0.00    +0.000 C 
ATOM     15  O   UNL     1      -7.169   4.567 132.452  0.00  0.00    +0.000 OA
ATOM     16  C   UNL     1      -9.429   3.503 132.376  0.00  0.00    +0.000 C 
ATOM     17  C   UNL     1      -9.669   1.648 131.965  0.00  0.00    +0.000 C 
ATOM     18  C   UNL     1      -8.259   0.741 131.598  0.00  0.00    +0.000 C 
ATOM     19  C   UNL     1      -7.655  -0.451 131.206  0.00  0.00    +0.000 C 
ENDROOT
BRANCH   1  23
ATOM     20  C   UNL     1      -8.191  -2.695 126.477  0.00  0.00    +0.000 A 
ATOM     21  C   UNL     1      -7.823  -1.440 126.981  0.00  0.00    +0.000 A 
ATOM     22  C   UNL     1      -7.703  -1.197 128.360  0.00  0.00    +0.000 A 
ATOM     23  C   UNL     1      -8.091  -2.170 129.290  0.00  0.00    +0.000 A 
ATOM     24  C   UNL     1      -8.432  -3.424 128.773  0.00  0.00    +0.000 A 
ATOM     25  C   UNL     1      -8.528  -3.670 127.407  0.00  0.00    +0.000 A 
BRANCH  20  27
ATOM     26  C   UNL     1      -9.393  -3.220 124.393  0.00  0.00    +0.000 C 
ATOM     27  N   UNL     1      -8.163  -2.967 125.122  0.00  0.00    +0.000 N 
ATOM     28  C   UNL     1      -6.880  -3.257 124.501  0.00  0.00    +0.000 C 
ENDBRANCH  20  27
ENDBRANCH   1  23
BRANCH   8  29
ATOM     29  C   UNL     1      -4.006  -3.338 129.427  0.00  0.00    +0.000 C 
ATOM     30  C   UNL     1      -4.618  -2.590 128.271  0.00  0.00    +0.000 C 
ATOM     31  O   UNL     1      -2.951  -3.945 129.258  0.00  0.00    +0.000 OA
ENDBRANCH   8  29
BRANCH   8  32
ATOM     32  O   UNL     1      -5.676  -4.572 130.123  0.00  0.00    +0.000 OA
ATOM     33  H   UNL     1      -6.540  -4.289 129.737  0.00  0.00    +0.000 HD
ENDBRANCH   8  32
TORSDOF 4
ENDMDL
MODEL 3
REMARK VINA RESULT:      -8.3      6.773     10.077
REMARK  Name = Ulipristal
REMARK  8 active torsions:
REMARK  status: ('A' for Active; 'I' for Inactive)
REMARK    1  A    between atoms: C_1  and  N_2
REMARK    2  A    between atoms: N_2  and  C_3
REMARK    3  A    between atoms: N_2  and  C_4
REMARK    4  A    between atoms: C_7  and  C_10
REMARK    5  A    between atoms: C_12  and  C_13
REMARK    6  A    between atoms: C_17  and  O_18
REMARK    7  A    between atoms: C_17  and  C_19
REMARK    8  A    between atoms: C_19  and  C_20
REMARK                            x       y       z     vdW  Elec       q    Type
REMARK                         _______ _______ _______ _____ _____    ______ ____
ROOT
ATOM      1  C   UNL     1      -6.987   5.322 133.145  0.00  0.00    +0.000 C 
ATOM      2  C   UNL     1      -7.408   3.828 133.323  0.00  0.00    +0.000 C 
ATOM      3  C   UNL     1      -7.262   2.867 132.110  0.00  0.00    +0.000 C 
ATOM      4  C   UNL     1      -7.877   1.468 132.698  0.00  0.00    +0.000 C 
ATOM      5  C   UNL     1      -5.834   2.996 131.541  0.00  0.00    +0.000 C 
ATOM      6  C   UNL     1      -5.786   2.241 130.180  0.00  0.00    +0.000 C 
ATOM      7  C   UNL     1      -6.937   1.337 130.416  0.00  0.00    +0.000 C 
ATOM      8  C   UNL     1      -8.047   2.695 130.857  0.00  0.00    +0.000 C 
ATOM      9  C   UNL     1      -5.486   4.467 131.265  0.00  0.00    +0.000 C 
ATOM     10  C   UNL     1      -4.218   4.408 130.430  0.00  0.00    +0.000 C 
ATOM     11  C   UNL     1      -3.079   5.161 130.932  0.00  0.00    +0.000 C 
ATOM     12  C   UNL     1      -3.412   6.053 131.989  0.00  0.00    +0.000 C 
ATOM     13  C   UNL     1      -2.858   7.269 131.677  0.00  0.00    +0.000 C 
ATOM     14  C   UNL     1      -1.554   7.011 132.276  0.00  0.00    +0.000 C 
ATOM     15  O   UNL     1      -0.595   6.668 131.652  0.00  0.00    +0.000 OA
ATOM     16  C   UNL     1      -1.778   7.583 133.655  0.00  0.00    +0.000 C 
ATOM     17  C   UNL     1      -3.585   7.110 134.076  0.00  0.00    +0.000 C 
ATOM     18  C   UNL     1      -4.390   6.058 132.985  0.00  0.00    +0.000 C 
ATOM     19  C   UNL     1      -5.537   5.375 132.587  0.00  0.00    +0.000 C 
ENDROOT
BRANCH   1  23
ATOM     20  C   UNL     1      -9.973   7.112 130.454  0.00  0.00    +0.000 A 
ATOM     21  C   UNL     1     -10.349   6.314 131.545  0.00  0.00    +0.000 A 
ATOM     22  C   UNL     1      -9.413   5.848 132.483  0.00  0.00    +0.000 A 
ATOM     23  C   UNL     1      -8.041   6.045 132.279  0.00  0.00    +0.000 A 
ATOM     24  C   UNL     1      -7.684   6.862 131.202  0.00  0.00    +0.000 A 
ATOM     25  C   UNL     1      -8.615   7.343 130.285  0.00  0.00    +0.000 A 
BRANCH  20  27
ATOM     26  C   UNL     1     -10.512   8.334 128.386  0.00  0.00    +0.000 C 
ATOM     27  N   UNL     1     -10.915   7.688 129.622  0.00  0.00    +0.000 N 
ATOM     28  C   UNL     1     -12.266   7.871 130.129  0.00  0.00    +0.000 C 
ENDBRANCH  20  27
ENDBRANCH   1  23
BRANCH   8  29
ATOM     29  C   UNL     1      -8.513   2.924 129.432  0.00  0.00    +0.000 C 
ATOM     30  C   UNL     1      -8.120   4.285 128.916  0.00  0.00    +0.000 C 
ATOM     31  O   UNL     1      -9.282   2.230 128.771  0.00  0.00    +0.000 OA
ENDBRANCH   8  29
BRANCH   8  32
ATOM     32  O   UNL     1      -9.370   2.908 131.447  0.00  0.00    +0.000 OA
ATOM     33  H   UNL     1     -10.069   2.835 130.753  0.00  0.00    +0.000 HD
ENDBRANCH   8  32
TORSDOF 4
ENDMDL
MODEL 4
REMARK VINA RESULT:      -8.3      4.989      7.838
REMARK  Name = Ulipristal
REMARK  8 active torsions:
REMARK  status: ('A' for Active; 'I' for Inactive)
REMARK    1  A    between atoms: C_1  and  N_2
REMARK    2  A    between atoms: N_2  and  C_3
REMARK    3  A    between atoms: N_2  and  C_4
REMARK    4  A    between atoms: C_7  and  C_10
REMARK    5  A    between atoms: C_12  and  C_13
REMARK    6  A    between atoms: C_17  and  O_18
REMARK    7  A    between atoms: C_17  and  C_19
REMARK    8  A    between atoms: C_19  and  C_20
REMARK                            x       y       z     vdW  Elec       q    Type
REMARK                         _______ _______ _______ _____ _____    ______ ____
ROOT
ATOM      1  C   UNL     1      -5.874  -0.008 128.116  0.00  0.00    +0.000 C 
ATOM      2  C   UNL     1      -4.947  -0.714 129.156  0.00  0.00    +0.000 C 
ATOM      3  C   UNL     1      -5.590  -1.695 130.177  0.00  0.00    +0.000 C 
ATOM      4  C   UNL     1      -4.309  -2.127 131.100  0.00  0.00    +0.000 C 
ATOM      5  C   UNL     1      -6.466  -2.708 129.410  0.00  0.00    +0.000 C 
ATOM      6  C   UNL     1      -7.307  -3.504 130.450  0.00  0.00    +0.000 C 
ATOM      7  C   UNL     1      -6.431  -3.281 131.624  0.00  0.00    +0.000 C 
ATOM      8  C   UNL     1      -6.412  -1.487 131.400  0.00  0.00    +0.000 C 
ATOM      9  C   UNL     1      -7.450  -1.984 128.478  0.00  0.00    +0.000 C 
ATOM     10  C   UNL     1      -8.433  -3.061 128.052  0.00  0.00    +0.000 C 
ATOM     11  C   UNL     1      -8.602  -3.249 126.619  0.00  0.00    +0.000 C 
ATOM     12  C   UNL     1      -8.020  -2.212 125.839  0.00  0.00    +0.000 C 
ATOM     13  C   UNL     1      -8.966  -1.815 124.928  0.00  0.00    +0.000 C 
ATOM     14  C   UNL     1      -8.633  -2.801 123.907  0.00  0.00    +0.000 C 
ATOM     15  O   UNL     1      -9.234  -3.821 123.749  0.00  0.00    +0.000 OA
ATOM     16  C   UNL     1      -7.652  -2.005 123.081  0.00  0.00    +0.000 C 
ATOM     17  C   UNL     1      -6.661  -0.991 124.368  0.00  0.00    +0.000 C 
ATOM     18  C   UNL     1      -6.940  -1.347 126.023  0.00  0.00    +0.000 C 
ATOM     19  C   UNL     1      -6.711  -1.086 127.372  0.00  0.00    +0.000 C 
ENDROOT
BRANCH   1  23
ATOM     20  C   UNL     1      -8.146   3.307 129.909  0.00  0.00    +0.000 A 
ATOM     21  C   UNL     1      -8.741   2.406 129.014  0.00  0.00    +0.000 A 
ATOM     22  C   UNL     1      -8.062   1.271 128.539  0.00  0.00    +0.000 A 
ATOM     23  C   UNL     1      -6.706   1.077 128.833  0.00  0.00    +0.000 A 
ATOM     24  C   UNL     1      -6.134   1.970 129.746  0.00  0.00    +0.000 A 
ATOM     25  C   UNL     1      -6.815   3.081 130.233  0.00  0.00    +0.000 A 
BRANCH  20  27
ATOM     26  C   UNL     1     -10.300   4.208 130.690  0.00  0.00    +0.000 C 
ATOM     27  N   UNL     1      -8.868   4.336 130.485  0.00  0.00    +0.000 N 
ATOM     28  C   UNL     1      -8.227   5.632 130.632  0.00  0.00    +0.000 C 
ENDBRANCH  20  27
ENDBRANCH   1  23
BRANCH   8  29
ATOM     29  C   UNL     1      -7.637  -1.254 132.264  0.00  0.00    +0.000 C 
ATOM     30  C   UNL     1      -8.633  -0.336 131.604  0.00  0.00    +0.000 C 
ATOM     31  O   UNL     1      -7.800  -1.571 133.440  0.00  0.00    +0.000 OA
ENDBRANCH   8  29
BRANCH   8  32
ATOM     32  O   UNL     1      -5.697  -0.308 131.893  0.00  0.00    +0.000 OA
ATOM     33  H   UNL     1      -4.780  -0.286 131.525  0.00  0.00    +0.000 HD
ENDBRANCH   8  32
TORSDOF 4
ENDMDL
MODEL 5
REMARK VINA RESULT:      -8.1      5.334      7.239
REMARK  Name = Ulipristal
REMARK  8 active torsions:
REMARK  status: ('A' for Active; 'I' for Inactive)
REMARK    1  A    between atoms: C_1  and  N_2
REMARK    2  A    between atoms: N_2  and  C_3
REMARK    3  A    between atoms: N_2  and  C_4
REMARK    4  A    between atoms: C_7  and  C_10
REMARK    5  A    between atoms: C_12  and  C_13
REMARK    6  A    between atoms: C_17  and  O_18
REMARK    7  A    between atoms: C_17  and  C_19
REMARK    8  A    between atoms: C_19  and  C_20
REMARK                            x       y       z     vdW  Elec       q    Type
REMARK                         _______ _______ _______ _____ _____    ______ ____
ROOT
ATOM      1  C   UNL     1      -8.220  -1.825 129.591  0.00  0.00    +0.000 C 
ATOM      2  C   UNL     1      -8.263  -0.396 130.219  0.00  0.00    +0.000 C 
ATOM      3  C   UNL     1      -6.975   0.474 130.171  0.00  0.00    +0.000 C 
ATOM      4  C   UNL     1      -7.431   1.817 130.990  0.00  0.00    +0.000 C 
ATOM      5  C   UNL     1      -6.444   0.500 128.723  0.00  0.00    +0.000 C 
ATOM      6  C   UNL     1      -5.025   1.140 128.739  0.00  0.00    +0.000 C 
ATOM      7  C   UNL     1      -5.163   1.891 130.010  0.00  0.00    +0.000 C 
ATOM      8  C   UNL     1      -5.698   0.432 130.935  0.00  0.00    +0.000 C 
ATOM      9  C   UNL     1      -6.300  -0.925 128.168  0.00  0.00    +0.000 C 
ATOM     10  C   UNL     1      -5.487  -0.758 126.896  0.00  0.00    +0.000 C 
ATOM     11  C   UNL     1      -6.071  -1.302 125.679  0.00  0.00    +0.000 C 
ATOM     12  C   UNL     1      -7.194  -2.142 125.917  0.00  0.00    +0.000 C 
ATOM     13  C   UNL     1      -6.997  -3.290 125.193  0.00  0.00    +0.000 C 
ATOM     14  C   UNL     1      -7.594  -2.805 123.954  0.00  0.00    +0.000 C 
ATOM     15  O   UNL     1      -6.961  -2.383 123.033  0.00  0.00    +0.000 OA
ATOM     16  C   UNL     1      -9.013  -3.287 124.138  0.00  0.00    +0.000 C 
ATOM     17  C   UNL     1      -9.360  -3.038 126.005  0.00  0.00    +0.000 C 
ATOM     18  C   UNL     1      -8.169  -2.202 126.915  0.00  0.00    +0.000 C 
ATOM     19  C   UNL     1      -7.694  -1.721 128.132  0.00  0.00    +0.000 C 
ENDROOT
BRANCH   1  23
ATOM     20  C   UNL     1      -5.627  -4.239 132.202  0.00  0.00    +0.000 A 
ATOM     21  C   UNL     1      -6.579  -3.353 132.726  0.00  0.00    +0.000 A 
ATOM     22  C   UNL     1      -7.498  -2.678 131.905  0.00  0.00    +0.000 A 
ATOM     23  C   UNL     1      -7.400  -2.757 130.510  0.00  0.00    +0.000 A 
ATOM     24  C   UNL     1      -6.462  -3.663 130.004  0.00  0.00    +0.000 A 
ATOM     25  C   UNL     1      -5.567  -4.349 130.820  0.00  0.00    +0.000 A 
BRANCH  20  27
ATOM     26  C   UNL     1      -5.411  -5.795 134.097  0.00  0.00    +0.000 C 
ATOM     27  N   UNL     1      -4.827  -5.010 133.025  0.00  0.00    +0.000 N 
ATOM     28  C   UNL     1      -3.388  -4.812 132.972  0.00  0.00    +0.000 C 
ENDBRANCH  20  27
ENDBRANCH   1  23
BRANCH   8  29
ATOM     29  C   UNL     1      -4.289   0.025 131.323  0.00  0.00    +0.000 C 
ATOM     30  C   UNL     1      -3.883  -1.285 130.697  0.00  0.00    +0.000 C 
ATOM     31  O   UNL     1      -3.569   0.529 132.181  0.00  0.00    +0.000 OA
ENDBRANCH   8  29
BRANCH   8  32
ATOM     32  O   UNL     1      -6.280   0.086 132.233  0.00  0.00    +0.000 OA
ATOM     33  H   UNL     1      -5.575  -0.221 132.853  0.00  0.00    +0.000 HD
ENDBRANCH   8  32
TORSDOF 4
ENDMDL
MODEL 6
REMARK VINA RESULT:      -8.0      6.674      8.342
REMARK  Name = Ulipristal
REMARK  8 active torsions:
REMARK  status: ('A' for Active; 'I' for Inactive)
REMARK    1  A    between atoms: C_1  and  N_2
REMARK    2  A    between atoms: N_2  and  C_3
REMARK    3  A    between atoms: N_2  and  C_4
REMARK    4  A    between atoms: C_7  and  C_10
REMARK    5  A    between atoms: C_12  and  C_13
REMARK    6  A    between atoms: C_17  and  O_18
REMARK    7  A    between atoms: C_17  and  C_19
REMARK    8  A    between atoms: C_19  and  C_20
REMARK                            x       y       z     vdW  Elec       q    Type
REMARK                         _______ _______ _______ _____ _____    ______ ____
ROOT
ATOM      1  C   UNL     1      -9.383   3.673 132.665  0.00  0.00    +0.000 C 
ATOM      2  C   UNL     1      -8.576   3.908 133.981  0.00  0.00    +0.000 C 
ATOM      3  C   UNL     1      -7.141   4.498 133.875  0.00  0.00    +0.000 C 
ATOM      4  C   UNL     1      -6.649   4.499 135.437  0.00  0.00    +0.000 C 
ATOM      5  C   UNL     1      -7.188   5.766 132.998  0.00  0.00    +0.000 C 
ATOM      6  C   UNL     1      -5.724   6.190 132.682  0.00  0.00    +0.000 C 
ATOM      7  C   UNL     1      -5.071   5.513 133.828  0.00  0.00    +0.000 C 
ATOM      8  C   UNL     1      -5.837   3.918 133.456  0.00  0.00    +0.000 C 
ATOM      9  C   UNL     1      -7.885   5.480 131.659  0.00  0.00    +0.000 C 
ATOM     10  C   UNL     1      -7.574   6.694 130.801  0.00  0.00    +0.000 C 
ATOM     11  C   UNL     1      -8.716   7.388 130.227  0.00  0.00    +0.000 C 
ATOM     12  C   UNL     1      -9.935   6.664 130.341  0.00  0.00    +0.000 C 
ATOM     13  C   UNL     1     -10.524   6.672 129.102  0.00  0.00    +0.000 C 
ATOM     14  C   UNL     1     -11.234   7.935 129.268  0.00  0.00    +0.000 C 
ATOM     15  O   UNL     1     -10.840   8.978 128.839  0.00  0.00    +0.000 OA
ATOM     16  C   UNL     1     -12.560   7.428 129.782  0.00  0.00    +0.000 C 
ATOM     17  C   UNL     1     -12.096   5.967 130.929  0.00  0.00    +0.000 C 
ATOM     18  C   UNL     1     -10.427   5.728 131.252  0.00  0.00    +0.000 C 
ATOM     19  C   UNL     1      -9.403   4.992 131.842  0.00  0.00    +0.000 C 
ENDROOT
BRANCH   1  23
ATOM     20  C   UNL     1      -8.031   0.069 130.532  0.00  0.00    +0.000 A 
ATOM     21  C   UNL     1      -8.375   1.244 129.847  0.00  0.00    +0.000 A 
ATOM     22  C   UNL     1      -8.681   2.437 130.525  0.00  0.00    +0.000 A 
ATOM     23  C   UNL     1      -8.795   2.454 131.921  0.00  0.00    +0.000 A 
ATOM     24  C   UNL     1      -8.426   1.283 132.589  0.00  0.00    +0.000 A 
ATOM     25  C   UNL     1      -8.100   0.108 131.918  0.00  0.00    +0.000 A 
BRANCH  20  27
ATOM     26  C   UNL     1      -7.335  -1.009 128.431  0.00  0.00    +0.000 C 
ATOM     27  N   UNL     1      -7.589  -1.055 129.860  0.00  0.00    +0.000 N 
ATOM     28  C   UNL     1      -7.639  -2.336 130.546  0.00  0.00    +0.000 C 
ENDBRANCH  20  27
ENDBRANCH   1  23
BRANCH   8  29
ATOM     29  C   UNL     1      -4.713   3.466 132.543  0.00  0.00    +0.000 C 
ATOM     30  C   UNL     1      -5.222   2.982 131.209  0.00  0.00    +0.000 C 
ATOM     31  O   UNL     1      -3.531   3.295 132.832  0.00  0.00    +0.000 OA
ENDBRANCH   8  29
BRANCH   8  32
ATOM     32  O   UNL     1      -6.026   2.601 134.068  0.00  0.00    +0.000 OA
ATOM     33  H   UNL     1      -5.202   2.063 133.981  0.00  0.00    +0.000 HD
ENDBRANCH   8  32
TORSDOF 4
ENDMDL
MODEL 7
REMARK VINA RESULT:      -7.9      6.837     11.146
REMARK  Name = Ulipristal
REMARK  8 active torsions:
REMARK  status: ('A' for Active; 'I' for Inactive)
REMARK    1  A    between atoms: C_1  and  N_2
REMARK    2  A    between atoms: N_2  and  C_3
REMARK    3  A    between atoms: N_2  and  C_4
REMARK    4  A    between atoms: C_7  and  C_10
REMARK    5  A    between atoms: C_12  and  C_13
REMARK    6  A    between atoms: C_17  and  O_18
REMARK    7  A    between atoms: C_17  and  C_19
REMARK    8  A    between atoms: C_19  and  C_20
REMARK                            x       y       z     vdW  Elec       q    Type
REMARK                         _______ _______ _______ _____ _____    ______ ____
ROOT
ATOM      1  C   UNL     1      -7.711  -2.659 131.759  0.00  0.00    +0.000 C 
ATOM      2  C   UNL     1      -8.049  -2.878 130.250  0.00  0.00    +0.000 C 
ATOM      3  C   UNL     1      -6.956  -2.563 129.191  0.00  0.00    +0.000 C 
ATOM      4  C   UNL     1      -7.742  -2.846 127.783  0.00  0.00    +0.000 C 
ATOM      5  C   UNL     1      -5.650  -3.278 129.595  0.00  0.00    +0.000 C 
ATOM      6  C   UNL     1      -4.504  -2.743 128.687  0.00  0.00    +0.000 C 
ATOM      7  C   UNL     1      -5.348  -2.270 127.564  0.00  0.00    +0.000 C 
ATOM      8  C   UNL     1      -6.417  -1.288 128.643  0.00  0.00    +0.000 C 
ATOM      9  C   UNL     1      -5.276  -2.953 131.049  0.00  0.00    +0.000 C 
ATOM     10  C   UNL     1      -3.847  -3.447 131.195  0.00  0.00    +0.000 C 
ATOM     11  C   UNL     1      -3.594  -4.384 132.278  0.00  0.00    +0.000 C 
ATOM     12  C   UNL     1      -4.673  -4.487 133.201  0.00  0.00    +0.000 C 
ATOM     13  C   UNL     1      -4.137  -4.371 134.459  0.00  0.00    +0.000 C 
ATOM     14  C   UNL     1      -3.825  -5.785 134.633  0.00  0.00    +0.000 C 
ATOM     15  O   UNL     1      -2.739  -6.250 134.458  0.00  0.00    +0.000 OA
ATOM     16  C   UNL     1      -5.084  -6.251 135.323  0.00  0.00    +0.000 C 
ATOM     17  C   UNL     1      -6.485  -5.261 134.472  0.00  0.00    +0.000 C 
ATOM     18  C   UNL     1      -6.055  -4.322 133.101  0.00  0.00    +0.000 C 
ATOM     19  C   UNL     1      -6.398  -3.419 132.098  0.00  0.00    +0.000 C 
ENDROOT
BRANCH   1  23
ATOM     20  C   UNL     1      -7.825   1.597 132.873  0.00  0.00    +0.000 A 
ATOM     21  C   UNL     1      -6.816   0.742 133.337  0.00  0.00    +0.000 A 
ATOM     22  C   UNL     1      -6.697  -0.583 132.884  0.00  0.00    +0.000 A 
ATOM     23  C   UNL     1      -7.677  -1.143 132.055  0.00  0.00    +0.000 A 
ATOM     24  C   UNL     1      -8.663  -0.272 131.581  0.00  0.00    +0.000 A 
ATOM     25  C   UNL     1      -8.767   1.047 132.014  0.00  0.00    +0.000 A 
BRANCH  20  27
ATOM     26  C   UNL     1      -9.071   3.560 133.684  0.00  0.00    +0.000 C 
ATOM     27  N   UNL     1      -7.847   2.938 133.210  0.00  0.00    +0.000 N 
ATOM     28  C   UNL     1      -6.713   3.764 132.831  0.00  0.00    +0.000 C 
ENDBRANCH  20  27
ENDBRANCH   1  23
BRANCH   8  29
ATOM     29  C   UNL     1      -5.564  -0.038 128.535  0.00  0.00    +0.000 C 
ATOM     30  C   UNL     1      -5.208   0.526 129.886  0.00  0.00    +0.000 C 
ATOM     31  O   UNL     1      -5.310   0.614 127.526  0.00  0.00    +0.000 OA
ENDBRANCH   8  29
BRANCH   8  32
ATOM     32  O   UNL     1      -7.689  -0.566 128.596  0.00  0.00    +0.000 OA
ATOM     33  H   UNL     1      -7.540   0.398 128.755  0.00  0.00    +0.000 HD
ENDBRANCH   8  32
TORSDOF 4
ENDMDL
MODEL 8
REMARK VINA RESULT:      -7.8      4.022      6.509
REMARK  Name = Ulipristal
REMARK  8 active torsions:
REMARK  status: ('A' for Active; 'I' for Inactive)
REMARK    1  A    between atoms: C_1  and  N_2
REMARK    2  A    between atoms: N_2  and  C_3
REMARK    3  A    between atoms: N_2  and  C_4
REMARK    4  A    between atoms: C_7  and  C_10
REMARK    5  A    between atoms: C_12  and  C_13
REMARK    6  A    between atoms: C_17  and  O_18
REMARK    7  A    between atoms: C_17  and  C_19
REMARK    8  A    between atoms: C_19  and  C_20
REMARK                            x       y       z     vdW  Elec       q    Type
REMARK                         _______ _______ _______ _____ _____    ______ ____
ROOT
ATOM      1  C   UNL     1      -8.234   2.140 127.082  0.00  0.00    +0.000 C 
ATOM      2  C   UNL     1      -7.593   3.409 126.436  0.00  0.00    +0.000 C 
ATOM      3  C   UNL     1      -6.044   3.543 126.443  0.00  0.00    +0.000 C 
ATOM      4  C   UNL     1      -5.818   5.015 125.761  0.00  0.00    +0.000 C 
ATOM      5  C   UNL     1      -5.428   2.244 125.885  0.00  0.00    +0.000 C 
ATOM      6  C   UNL     1      -3.894   2.284 126.146  0.00  0.00    +0.000 C 
ATOM      7  C   UNL     1      -3.754   3.754 126.271  0.00  0.00    +0.000 C 
ATOM      8  C   UNL     1      -5.063   3.879 127.511  0.00  0.00    +0.000 C 
ATOM      9  C   UNL     1      -5.989   1.015 126.617  0.00  0.00    +0.000 C 
ATOM     10  C   UNL     1      -5.079  -0.126 126.196  0.00  0.00    +0.000 C 
ATOM     11  C   UNL     1      -5.729  -1.289 125.611  0.00  0.00    +0.000 C 
ATOM     12  C   UNL     1      -7.143  -1.286 125.769  0.00  0.00    +0.000 C 
ATOM     13  C   UNL     1      -7.496  -2.524 126.245  0.00  0.00    +0.000 C 
ATOM     14  C   UNL     1      -7.620  -3.169 124.943  0.00  0.00    +0.000 C 
ATOM     15  O   UNL     1      -6.767  -3.849 124.456  0.00  0.00    +0.000 OA
ATOM     16  C   UNL     1      -9.093  -2.961 124.684  0.00  0.00    +0.000 C 
ATOM     17  C   UNL     1      -9.454  -1.212 125.376  0.00  0.00    +0.000 C 
ATOM     18  C   UNL     1      -8.105  -0.282 125.887  0.00  0.00    +0.000 C 
ATOM     19  C   UNL     1      -7.580   0.873 126.462  0.00  0.00    +0.000 C 
ENDROOT
BRANCH   1  23
ATOM     20  C   UNL     1      -8.254   2.381 131.475  0.00  0.00    +0.000 A 
ATOM     21  C   UNL     1      -8.018   1.172 130.806  0.00  0.00    +0.000 A 
ATOM     22  C   UNL     1      -7.880   1.110 129.409  0.00  0.00    +0.000 A 
ATOM     23  C   UNL     1      -8.119   2.241 128.618  0.00  0.00    +0.000 A 
ATOM     24  C   UNL     1      -8.329   3.444 129.301  0.00  0.00    +0.000 A 
ATOM     25  C   UNL     1      -8.443   3.508 130.687  0.00  0.00    +0.000 A 
BRANCH  20  27
ATOM     26  C   UNL     1      -9.224   3.260 133.561  0.00  0.00    +0.000 C 
ATOM     27  N   UNL     1      -8.241   2.457 132.856  0.00  0.00    +0.000 N 
ATOM     28  C   UNL     1      -7.080   1.945 133.566  0.00  0.00    +0.000 C 
ENDBRANCH  20  27
ENDBRANCH   1  23
BRANCH   8  29
ATOM     29  C   UNL     1      -4.121   3.686 128.685  0.00  0.00    +0.000 C 
ATOM     30  C   UNL     1      -4.586   2.593 129.614  0.00  0.00    +0.000 C 
ATOM     31  O   UNL     1      -3.185   4.405 129.025  0.00  0.00    +0.000 OA
ENDBRANCH   8  29
BRANCH   8  32
ATOM     32  O   UNL     1      -5.873   4.899 128.180  0.00  0.00    +0.000 OA
ATOM     33  H   UNL     1      -5.915   5.718 127.628  0.00  0.00    +0.000 HD
ENDBRANCH   8  32
TORSDOF 4
ENDMDL
MODEL 9
REMARK VINA RESULT:      -7.7      5.872      9.920
REMARK  Name = Ulipristal
REMARK  8 active torsions:
REMARK  status: ('A' for Active; 'I' for Inactive)
REMARK    1  A    between atoms: C_1  and  N_2
REMARK    2  A    between atoms: N_2  and  C_3
REMARK    3  A    between atoms: N_2  and  C_4
REMARK    4  A    between atoms: C_7  and  C_10
REMARK    5  A    between atoms: C_12  and  C_13
REMARK    6  A    between atoms: C_17  and  O_18
REMARK    7  A    between atoms: C_17  and  C_19
REMARK    8  A    between atoms: C_19  and  C_20
REMARK                            x       y       z     vdW  Elec       q    Type
REMARK                         _______ _______ _______ _____ _____    ______ ____
ROOT
ATOM      1  C   UNL     1      -5.026   1.304 132.460  0.00  0.00    +0.000 C 
ATOM      2  C   UNL     1      -6.159   2.058 133.226  0.00  0.00    +0.000 C 
ATOM      3  C   UNL     1      -7.602   2.012 132.650  0.00  0.00    +0.000 C 
ATOM      4  C   UNL     1      -8.425   2.972 133.691  0.00  0.00    +0.000 C 
ATOM      5  C   UNL     1      -7.980   0.542 132.370  0.00  0.00    +0.000 C 
ATOM      6  C   UNL     1      -9.304   0.531 131.552  0.00  0.00    +0.000 C 
ATOM      7  C   UNL     1      -9.797   1.869 131.956  0.00  0.00    +0.000 C 
ATOM      8  C   UNL     1      -8.253   2.691 131.497  0.00  0.00    +0.000 C 
ATOM      9  C   UNL     1      -6.904  -0.145 131.515  0.00  0.00    +0.000 C 
ATOM     10  C   UNL     1      -7.550  -1.443 131.062  0.00  0.00    +0.000 C 
ATOM     11  C   UNL     1      -6.822  -2.667 131.364  0.00  0.00    +0.000 C 
ATOM     12  C   UNL     1      -5.487  -2.438 131.802  0.00  0.00    +0.000 C 
ATOM     13  C   UNL     1      -4.678  -3.272 131.073  0.00  0.00    +0.000 C 
ATOM     14  C   UNL     1      -4.794  -4.425 131.959  0.00  0.00    +0.000 C 
ATOM     15  O   UNL     1      -5.535  -5.340 131.761  0.00  0.00    +0.000 OA
ATOM     16  C   UNL     1      -3.593  -4.200 132.845  0.00  0.00    +0.000 C 
ATOM     17  C   UNL     1      -3.528  -2.301 133.084  0.00  0.00    +0.000 C 
ATOM     18  C   UNL     1      -4.851  -1.393 132.474  0.00  0.00    +0.000 C 
ATOM     19  C   UNL     1      -5.466  -0.169 132.228  0.00  0.00    +0.000 C 
ENDROOT
BRANCH   1  23
ATOM     20  C   UNL     1      -3.698   3.503 128.887  0.00  0.00    +0.000 A 
ATOM     21  C   UNL     1      -3.914   2.117 128.860  0.00  0.00    +0.000 A 
ATOM     22  C   UNL     1      -4.461   1.429 129.956  0.00  0.00    +0.000 A 
ATOM     23  C   UNL     1      -4.678   2.086 131.174  0.00  0.00    +0.000 A 
ATOM     24  C   UNL     1      -4.482   3.471 131.177  0.00  0.00    +0.000 A 
ATOM     25  C   UNL     1      -3.960   4.156 130.083  0.00  0.00    +0.000 A 
BRANCH  20  27
ATOM     26  C   UNL     1      -3.180   3.513 126.480  0.00  0.00    +0.000 C 
ATOM     27  N   UNL     1      -3.299   4.193 127.757  0.00  0.00    +0.000 N 
ATOM     28  C   UNL     1      -2.748   5.528 127.921  0.00  0.00    +0.000 C 
ENDBRANCH  20  27
ENDBRANCH   1  23
BRANCH   8  29
ATOM     29  C   UNL     1      -8.690   2.956 130.069  0.00  0.00    +0.000 C 
ATOM     30  C   UNL     1      -7.671   2.483 129.064  0.00  0.00    +0.000 C 
ATOM     31  O   UNL     1      -9.639   3.635 129.685  0.00  0.00    +0.000 OA
ENDBRANCH   8  29
BRANCH   8  32
ATOM     32  O   UNL     1      -7.587   3.985 131.656  0.00  0.00    +0.000 OA
ATOM     33  H   UNL     1      -6.766   3.882 132.196  0.00  0.00    +0.000 HD
ENDBRANCH   8  32
TORSDOF 4
ENDMDL
