MODEL 1
REMARK VINA RESULT:      -8.8      0.000      0.000
REMARK  Name = Ulobetasol
REMARK  7 active torsions:
REMARK  status: ('A' for Active; 'I' for Inactive)
REMARK    1  A    between atoms: C_4  and  C_5
REMARK    2  A    between atoms: C_6  and  O_7
REMARK    3  A    between atoms: C_6  and  C_8
REMARK    4  A    between atoms: C_8  and  C_10
REMARK    5  A    between atoms: C_12  and  C_13
REMARK    6  A    between atoms: C_15  and  O_16
REMARK    7  A    between atoms: C_30  and  C_31
REMARK                            x       y       z     vdW  Elec       q    Type
REMARK                         _______ _______ _______ _____ _____    ______ ____
ROOT
ATOM      1  C   UNL     1      -5.863  -3.604 131.214  0.00  0.00    +0.000 C 
ATOM      2  C   UNL     1      -5.030  -4.431 130.424  0.00  0.00    +0.000 C 
ATOM      3  C   UNL     1      -4.558  -3.026 130.299  0.00  0.00    +0.000 C 
ATOM      4  C   UNL     1      -3.355  -3.687 129.057  0.00  0.00    +0.000 C 
ATOM      5  C   UNL     1      -5.408  -1.766 131.719  0.00  0.00    +0.000 C 
ATOM      6  C   UNL     1      -4.363  -2.602 131.802  0.00  0.00    +0.000 C 
ATOM      7  C   UNL     1      -3.717  -3.177 133.002  0.00  0.00    +0.000 C 
ATOM      8  C   UNL     1      -3.774  -1.141 130.815  0.00  0.00    +0.000 C 
ATOM      9  C   UNL     1      -5.147  -0.526 129.745  0.00  0.00    +0.000 C 
ATOM     10  C   UNL     1      -6.409  -1.616 129.139  0.00  0.00    +0.000 C 
ATOM     11  F   UNL     1      -5.764  -2.792 128.690  0.00  0.00    +0.000 F 
ATOM     12  C   UNL     1      -7.084  -2.638 130.223  0.00  0.00    +0.000 C 
ATOM     13  C   UNL     1      -7.787  -3.740 129.413  0.00  0.00    +0.000 C 
ATOM     14  C   UNL     1      -8.588  -3.184 128.285  0.00  0.00    +0.000 C 
ATOM     15  F   UNL     1      -9.263  -4.236 127.760  0.00  0.00    +0.000 F 
ATOM     16  C   UNL     1      -7.630  -2.667 127.244  0.00  0.00    +0.000 C 
ATOM     17  C   UNL     1      -7.750  -2.894 125.917  0.00  0.00    +0.000 C 
ATOM     18  C   UNL     1      -9.042  -2.233 125.796  0.00  0.00    +0.000 C 
ATOM     19  O   UNL     1     -10.117  -2.787 125.725  0.00  0.00    +0.000 OA
ATOM     20  C   UNL     1      -8.755  -0.762 125.825  0.00  0.00    +0.000 C 
ATOM     21  C   UNL     1      -7.733  -0.353 126.701  0.00  0.00    +0.000 C 
ATOM     22  C   UNL     1      -6.823  -1.419 127.560  0.00  0.00    +0.000 C 
ATOM     23  C   UNL     1      -5.382  -1.844 126.857  0.00  0.00    +0.000 C 
ENDROOT
BRANCH   5  24
ATOM     24  O   UNL     1      -6.404  -2.297 132.786  0.00  0.00    +0.000 OA
ATOM     25  H   UNL     1      -7.334  -2.373 132.546  0.00  0.00    +0.000 HD
ENDBRANCH   5  24
BRANCH   5  26
ATOM     26  C   UNL     1      -4.892  -0.525 133.008  0.00  0.00    +0.000 C 
ATOM     27  O   UNL     1      -5.719   0.217 133.558  0.00  0.00    +0.000 OA
BRANCH  26  28
ATOM     28  C   UNL     1      -3.369  -0.220 133.453  0.00  0.00    +0.000 C 
ATOM     29 CL   UNL     1      -3.050   1.599 133.152  0.00  0.00    +0.000 Cl
ENDBRANCH  26  28
ENDBRANCH   5  26
BRANCH   9  30
ATOM     30  O   UNL     1      -5.777   0.561 130.446  0.00  0.00    +0.000 OA
ATOM     31  H   UNL     1      -5.430   0.624 131.350  0.00  0.00    +0.000 HD
ENDBRANCH   9  30
TORSDOF 4
ENDMDL
MODEL 2
REMARK VINA RESULT:      -8.8      3.203      6.604
REMARK  Name = Ulobetasol
REMARK  7 active torsions:
REMARK  status: ('A' for Active; 'I' for Inactive)
REMARK    1  A    between atoms: C_4  and  C_5
REMARK    2  A    between atoms: C_6  and  O_7
REMARK    3  A    between atoms: C_6  and  C_8
REMARK    4  A    between atoms: C_8  and  C_10
REMARK    5  A    between atoms: C_12  and  C_13
REMARK    6  A    between atoms: C_15  and  O_16
REMARK    7  A    between atoms: C_30  and  C_31
REMARK                            x       y       z     vdW  Elec       q    Type
REMARK                         _______ _______ _______ _____ _____    ______ ____
ROOT
ATOM      1  C   UNL     1      -5.669  -1.542 125.271  0.00  0.00    +0.000 C 
ATOM      2  C   UNL     1      -6.011  -2.863 124.899  0.00  0.00    +0.000 C 
ATOM      3  C   UNL     1      -7.259  -2.130 125.243  0.00  0.00    +0.000 C 
ATOM      4  C   UNL     1      -8.117  -3.750 124.988  0.00  0.00    +0.000 C 
ATOM      5  C   UNL     1      -6.965  -0.077 125.398  0.00  0.00    +0.000 C 
ATOM      6  C   UNL     1      -7.163  -0.856 124.324  0.00  0.00    +0.000 C 
ATOM      7  C   UNL     1      -6.871  -0.581 122.901  0.00  0.00    +0.000 C 
ATOM      8  C   UNL     1      -8.814  -0.713 125.168  0.00  0.00    +0.000 C 
ATOM      9  C   UNL     1      -8.571  -0.680 126.997  0.00  0.00    +0.000 C 
ATOM     10  C   UNL     1      -7.197  -1.499 127.764  0.00  0.00    +0.000 C 
ATOM     11  F   UNL     1      -7.077  -2.770 127.155  0.00  0.00    +0.000 F 
ATOM     12  C   UNL     1      -5.726  -1.257 127.094  0.00  0.00    +0.000 C 
ATOM     13  C   UNL     1      -4.810  -2.374 127.623  0.00  0.00    +0.000 C 
ATOM     14  C   UNL     1      -4.957  -2.571 129.093  0.00  0.00    +0.000 C 
ATOM     15  F   UNL     1      -3.997  -3.463 129.443  0.00  0.00    +0.000 F 
ATOM     16  C   UNL     1      -6.303  -3.196 129.348  0.00  0.00    +0.000 C 
ATOM     17  C   UNL     1      -6.516  -4.236 130.185  0.00  0.00    +0.000 C 
ATOM     18  C   UNL     1      -6.045  -3.536 131.372  0.00  0.00    +0.000 C 
ATOM     19  O   UNL     1      -4.960  -3.674 131.892  0.00  0.00    +0.000 OA
ATOM     20  C   UNL     1      -7.151  -2.603 131.764  0.00  0.00    +0.000 C 
ATOM     21  C   UNL     1      -7.843  -1.990 130.703  0.00  0.00    +0.000 C 
ATOM     22  C   UNL     1      -7.546  -2.351 129.127  0.00  0.00    +0.000 C 
ATOM     23  C   UNL     1      -8.542  -3.503 128.467  0.00  0.00    +0.000 C 
ENDROOT
BRANCH   5  24
ATOM     24  O   UNL     1      -5.574   0.567 125.145  0.00  0.00    +0.000 OA
ATOM     25  H   UNL     1      -5.437   1.481 125.419  0.00  0.00    +0.000 HD
ENDBRANCH   5  24
BRANCH   5  26
ATOM     26  C   UNL     1      -7.675   1.514 124.739  0.00  0.00    +0.000 C 
ATOM     27  O   UNL     1      -7.336   2.613 125.201  0.00  0.00    +0.000 OA
BRANCH  26  28
ATOM     28  C   UNL     1      -8.835   1.625 123.619  0.00  0.00    +0.000 C 
ATOM     29 CL   UNL     1      -8.400   3.062 122.502  0.00  0.00    +0.000 Cl
ENDBRANCH  26  28
ENDBRANCH   5  26
BRANCH   9  30
ATOM     30  O   UNL     1      -8.564   0.702 127.399  0.00  0.00    +0.000 OA
ATOM     31  H   UNL     1      -9.018   0.808 128.249  0.00  0.00    +0.000 HD
ENDBRANCH   9  30
TORSDOF 4
ENDMDL
MODEL 3
REMARK VINA RESULT:      -8.4      6.650      9.459
REMARK  Name = Ulobetasol
REMARK  7 active torsions:
REMARK  status: ('A' for Active; 'I' for Inactive)
REMARK    1  A    between atoms: C_4  and  C_5
REMARK    2  A    between atoms: C_6  and  O_7
REMARK    3  A    between atoms: C_6  and  C_8
REMARK    4  A    between atoms: C_8  and  C_10
REMARK    5  A    between atoms: C_12  and  C_13
REMARK    6  A    between atoms: C_15  and  O_16
REMARK    7  A    between atoms: C_30  and  C_31
REMARK                            x       y       z     vdW  Elec       q    Type
REMARK                         _______ _______ _______ _____ _____    ______ ____
ROOT
ATOM      1  C   UNL     1      -8.217   3.223 130.779  0.00  0.00    +0.000 C 
ATOM      2  C   UNL     1      -8.507   2.693 132.059  0.00  0.00    +0.000 C 
ATOM      3  C   UNL     1      -8.727   4.164 132.094  0.00  0.00    +0.000 C 
ATOM      4  C   UNL     1      -9.050   3.933 133.902  0.00  0.00    +0.000 C 
ATOM      5  C   UNL     1      -8.752   5.016 130.197  0.00  0.00    +0.000 C 
ATOM      6  C   UNL     1      -9.713   4.384 130.888  0.00  0.00    +0.000 C 
ATOM      7  C   UNL     1     -10.964   3.765 130.400  0.00  0.00    +0.000 C 
ATOM      8  C   UNL     1      -9.534   6.061 131.670  0.00  0.00    +0.000 C 
ATOM      9  C   UNL     1      -7.759   6.566 131.650  0.00  0.00    +0.000 C 
ATOM     10  C   UNL     1      -6.454   5.365 131.704  0.00  0.00    +0.000 C 
ATOM     11  F   UNL     1      -6.807   4.410 132.687  0.00  0.00    +0.000 F 
ATOM     12  C   UNL     1      -6.587   4.084 130.696  0.00  0.00    +0.000 C 
ATOM     13  C   UNL     1      -5.626   3.005 131.222  0.00  0.00    +0.000 C 
ATOM     14  C   UNL     1      -4.289   3.567 131.572  0.00  0.00    +0.000 C 
ATOM     15  F   UNL     1      -3.508   2.500 131.871  0.00  0.00    +0.000 F 
ATOM     16  C   UNL     1      -4.446   4.404 132.815  0.00  0.00    +0.000 C 
ATOM     17  C   UNL     1      -3.608   4.362 133.874  0.00  0.00    +0.000 C 
ATOM     18  C   UNL     1      -2.436   4.782 133.120  0.00  0.00    +0.000 C 
ATOM     19  O   UNL     1      -1.553   4.056 132.721  0.00  0.00    +0.000 OA
ATOM     20  C   UNL     1      -2.587   6.260 132.916  0.00  0.00    +0.000 C 
ATOM     21  C   UNL     1      -3.896   6.714 132.668  0.00  0.00    +0.000 C 
ATOM     22  C   UNL     1      -5.202   5.718 132.711  0.00  0.00    +0.000 C 
ATOM     23  C   UNL     1      -6.012   5.678 134.159  0.00  0.00    +0.000 C 
ENDROOT
BRANCH   5  24
ATOM     24  O   UNL     1      -8.580   4.154 128.916  0.00  0.00    +0.000 OA
ATOM     25  H   UNL     1      -9.265   4.199 128.239  0.00  0.00    +0.000 HD
ENDBRANCH   5  24
BRANCH   5  26
ATOM     26  C   UNL     1      -9.825   6.122 129.150  0.00  0.00    +0.000 C 
ATOM     27  O   UNL     1      -9.716   6.147 127.916  0.00  0.00    +0.000 OA
BRANCH  26  28
ATOM     28  C   UNL     1     -10.890   7.197 129.717  0.00  0.00    +0.000 C 
ATOM     29 CL   UNL     1     -10.970   8.607 128.489  0.00  0.00    +0.000 Cl
ENDBRANCH  26  28
ENDBRANCH   5  26
BRANCH   9  30
ATOM     30  O   UNL     1      -7.568   7.399 130.492  0.00  0.00    +0.000 OA
ATOM     31  H   UNL     1      -6.679   7.786 130.499  0.00  0.00    +0.000 HD
ENDBRANCH   9  30
TORSDOF 4
ENDMDL
MODEL 4
REMARK VINA RESULT:      -8.2      2.594      4.264
REMARK  Name = Ulobetasol
REMARK  7 active torsions:
REMARK  status: ('A' for Active; 'I' for Inactive)
REMARK    1  A    between atoms: C_4  and  C_5
REMARK    2  A    between atoms: C_6  and  O_7
REMARK    3  A    between atoms: C_6  and  C_8
REMARK    4  A    between atoms: C_8  and  C_10
REMARK    5  A    between atoms: C_12  and  C_13
REMARK    6  A    between atoms: C_15  and  O_16
REMARK    7  A    between atoms: C_30  and  C_31
REMARK                            x       y       z     vdW  Elec       q    Type
REMARK                         _______ _______ _______ _____ _____    ______ ____
ROOT
ATOM      1  C   UNL     1      -5.130  -1.229 128.165  0.00  0.00    +0.000 C 
ATOM      2  C   UNL     1      -5.520   0.129 128.088  0.00  0.00    +0.000 C 
ATOM      3  C   UNL     1      -6.638  -0.653 128.682  0.00  0.00    +0.000 C 
ATOM      4  C   UNL     1      -7.591   0.933 128.630  0.00  0.00    +0.000 C 
ATOM      5  C   UNL     1      -6.064  -2.571 129.244  0.00  0.00    +0.000 C 
ATOM      6  C   UNL     1      -5.932  -1.395 129.876  0.00  0.00    +0.000 C 
ATOM      7  C   UNL     1      -5.022  -1.023 130.981  0.00  0.00    +0.000 C 
ATOM      8  C   UNL     1      -7.726  -1.858 130.022  0.00  0.00    +0.000 C 
ATOM      9  C   UNL     1      -8.275  -2.698 128.472  0.00  0.00    +0.000 C 
ATOM     10  C   UNL     1      -7.529  -2.329 126.905  0.00  0.00    +0.000 C 
ATOM     11  F   UNL     1      -7.399  -0.923 126.825  0.00  0.00    +0.000 F 
ATOM     12  C   UNL     1      -5.895  -2.284 126.858  0.00  0.00    +0.000 C 
ATOM     13  C   UNL     1      -5.510  -1.534 125.572  0.00  0.00    +0.000 C 
ATOM     14  C   UNL     1      -6.296  -2.001 124.394  0.00  0.00    +0.000 C 
ATOM     15  F   UNL     1      -5.756  -1.374 123.319  0.00  0.00    +0.000 F 
ATOM     16  C   UNL     1      -7.715  -1.521 124.560  0.00  0.00    +0.000 C 
ATOM     17  C   UNL     1      -8.447  -0.951 123.578  0.00  0.00    +0.000 C 
ATOM     18  C   UNL     1      -8.400  -2.111 122.700  0.00  0.00    +0.000 C 
ATOM     19  O   UNL     1      -7.681  -2.240 121.734  0.00  0.00    +0.000 OA
ATOM     20  C   UNL     1      -9.375  -3.097 123.269  0.00  0.00    +0.000 C 
ATOM     21  C   UNL     1      -9.430  -3.165 124.674  0.00  0.00    +0.000 C 
ATOM     22  C   UNL     1      -8.569  -2.155 125.644  0.00  0.00    +0.000 C 
ATOM     23  C   UNL     1      -9.388  -0.809 126.164  0.00  0.00    +0.000 C 
ENDROOT
BRANCH   5  24
ATOM     24  O   UNL     1      -4.604  -3.069 129.063  0.00  0.00    +0.000 OA
ATOM     25  H   UNL     1      -4.235  -3.659 129.731  0.00  0.00    +0.000 HD
ENDBRANCH   5  24
BRANCH   5  26
ATOM     26  C   UNL     1      -6.124  -3.694 130.729  0.00  0.00    +0.000 C 
ATOM     27  O   UNL     1      -5.814  -4.891 130.646  0.00  0.00    +0.000 OA
BRANCH  26  28
ATOM     28  C   UNL     1      -6.663  -3.277 132.194  0.00  0.00    +0.000 C 
ATOM     29 CL   UNL     1      -5.378  -3.824 133.441  0.00  0.00    +0.000 Cl
ENDBRANCH  26  28
ENDBRANCH   5  26
BRANCH   9  30
ATOM     30  O   UNL     1      -8.183  -4.115 128.702  0.00  0.00    +0.000 OA
ATOM     31  H   UNL     1      -7.613  -4.528 128.035  0.00  0.00    +0.000 HD
ENDBRANCH   9  30
TORSDOF 4
ENDMDL
MODEL 5
REMARK VINA RESULT:      -8.1      4.581      5.962
REMARK  Name = Ulobetasol
REMARK  7 active torsions:
REMARK  status: ('A' for Active; 'I' for Inactive)
REMARK    1  A    between atoms: C_4  and  C_5
REMARK    2  A    between atoms: C_6  and  O_7
REMARK    3  A    between atoms: C_6  and  C_8
REMARK    4  A    between atoms: C_8  and  C_10
REMARK    5  A    between atoms: C_12  and  C_13
REMARK    6  A    between atoms: C_15  and  O_16
REMARK    7  A    between atoms: C_30  and  C_31
REMARK                            x       y       z     vdW  Elec       q    Type
REMARK                         _______ _______ _______ _____ _____    ______ ____
ROOT
ATOM      1  C   UNL     1      -8.543   1.906 132.814  0.00  0.00    +0.000 C 
ATOM      2  C   UNL     1      -7.221   2.062 133.294  0.00  0.00    +0.000 C 
ATOM      3  C   UNL     1      -7.324   2.726 131.966  0.00  0.00    +0.000 C 
ATOM      4  C   UNL     1      -5.504   3.023 132.128  0.00  0.00    +0.000 C 
ATOM      5  C   UNL     1      -9.292   2.948 131.332  0.00  0.00    +0.000 C 
ATOM      6  C   UNL     1      -8.551   3.690 132.168  0.00  0.00    +0.000 C 
ATOM      7  C   UNL     1      -8.985   4.673 133.184  0.00  0.00    +0.000 C 
ATOM      8  C   UNL     1      -7.927   4.063 130.456  0.00  0.00    +0.000 C 
ATOM      9  C   UNL     1      -7.984   2.529 129.431  0.00  0.00    +0.000 C 
ATOM     10  C   UNL     1      -7.812   0.921 130.159  0.00  0.00    +0.000 C 
ATOM     11  F   UNL     1      -6.746   0.996 131.087  0.00  0.00    +0.000 F 
ATOM     12  C   UNL     1      -8.697   0.619 131.501  0.00  0.00    +0.000 C 
ATOM     13  C   UNL     1      -8.067  -0.610 132.179  0.00  0.00    +0.000 C 
ATOM     14  C   UNL     1      -7.764  -1.695 131.202  0.00  0.00    +0.000 C 
ATOM     15  F   UNL     1      -7.363  -2.756 131.946  0.00  0.00    +0.000 F 
ATOM     16  C   UNL     1      -6.605  -1.246 130.351  0.00  0.00    +0.000 C 
ATOM     17  C   UNL     1      -5.543  -2.020 130.039  0.00  0.00    +0.000 C 
ATOM     18  C   UNL     1      -6.326  -3.031 129.344  0.00  0.00    +0.000 C 
ATOM     19  O   UNL     1      -6.651  -4.108 129.793  0.00  0.00    +0.000 OA
ATOM     20  C   UNL     1      -6.668  -2.439 128.009  0.00  0.00    +0.000 C 
ATOM     21  C   UNL     1      -6.964  -1.064 128.006  0.00  0.00    +0.000 C 
ATOM     22  C   UNL     1      -6.835  -0.127 129.350  0.00  0.00    +0.000 C 
ATOM     23  C   UNL     1      -5.394   0.680 129.513  0.00  0.00    +0.000 C 
ENDROOT
BRANCH   5  24
ATOM     24  O   UNL     1     -10.487   2.475 132.206  0.00  0.00    +0.000 OA
ATOM     25  H   UNL     1     -11.208   2.000 131.778  0.00  0.00    +0.000 HD
ENDBRANCH   5  24
BRANCH   5  26
ATOM     26  C   UNL     1     -10.443   4.272 130.708  0.00  0.00    +0.000 C 
ATOM     27  O   UNL     1     -11.441   3.993 130.028  0.00  0.00    +0.000 OA
BRANCH  26  28
ATOM     28  C   UNL     1     -10.219   5.863 130.886  0.00  0.00    +0.000 C 
ATOM     29 CL   UNL     1     -11.738   6.552 131.734  0.00  0.00    +0.000 Cl
ENDBRANCH  26  28
ENDBRANCH   5  26
BRANCH   9  30
ATOM     30  O   UNL     1      -9.214   2.565 128.684  0.00  0.00    +0.000 OA
ATOM     31  H   UNL     1      -9.029   2.669 127.737  0.00  0.00    +0.000 HD
ENDBRANCH   9  30
TORSDOF 4
ENDMDL
MODEL 6
REMARK VINA RESULT:      -8.1      5.775      7.833
REMARK  Name = Ulobetasol
REMARK  7 active torsions:
REMARK  status: ('A' for Active; 'I' for Inactive)
REMARK    1  A    between atoms: C_4  and  C_5
REMARK    2  A    between atoms: C_6  and  O_7
REMARK    3  A    between atoms: C_6  and  C_8
REMARK    4  A    between atoms: C_8  and  C_10
REMARK    5  A    between atoms: C_12  and  C_13
REMARK    6  A    between atoms: C_15  and  O_16
REMARK    7  A    between atoms: C_30  and  C_31
REMARK                            x       y       z     vdW  Elec       q    Type
REMARK                         _______ _______ _______ _____ _____    ______ ____
ROOT
ATOM      1  C   UNL     1      -9.766   3.554 131.927  0.00  0.00    +0.000 C 
ATOM      2  C   UNL     1      -9.336   3.715 133.266  0.00  0.00    +0.000 C 
ATOM      3  C   UNL     1      -8.500   4.581 132.392  0.00  0.00    +0.000 C 
ATOM      4  C   UNL     1      -7.541   4.967 133.927  0.00  0.00    +0.000 C 
ATOM      5  C   UNL     1      -9.280   4.775 130.474  0.00  0.00    +0.000 C 
ATOM      6  C   UNL     1      -9.583   5.416 131.613  0.00  0.00    +0.000 C 
ATOM      7  C   UNL     1     -10.797   6.185 131.960  0.00  0.00    +0.000 C 
ATOM      8  C   UNL     1      -7.951   6.108 131.051  0.00  0.00    +0.000 C 
ATOM      9  C   UNL     1      -6.942   4.766 130.284  0.00  0.00    +0.000 C 
ATOM     10  C   UNL     1      -7.116   3.074 130.788  0.00  0.00    +0.000 C 
ATOM     11  F   UNL     1      -7.173   3.064 132.202  0.00  0.00    +0.000 F 
ATOM     12  C   UNL     1      -8.640   2.496 130.919  0.00  0.00    +0.000 C 
ATOM     13  C   UNL     1      -8.555   1.216 131.767  0.00  0.00    +0.000 C 
ATOM     14  C   UNL     1      -7.436   0.330 131.337  0.00  0.00    +0.000 C 
ATOM     15  F   UNL     1      -7.572  -0.811 132.057  0.00  0.00    +0.000 F 
ATOM     16  C   UNL     1      -6.140   0.989 131.732  0.00  0.00    +0.000 C 
ATOM     17  C   UNL     1      -5.109   0.350 132.325  0.00  0.00    +0.000 C 
ATOM     18  C   UNL     1      -4.893  -0.581 131.227  0.00  0.00    +0.000 C 
ATOM     19  O   UNL     1      -5.254  -1.736 131.196  0.00  0.00    +0.000 OA
ATOM     20  C   UNL     1      -4.189   0.201 130.159  0.00  0.00    +0.000 C 
ATOM     21  C   UNL     1      -4.605   1.536 129.999  0.00  0.00    +0.000 C 
ATOM     22  C   UNL     1      -5.711   2.242 130.989  0.00  0.00    +0.000 C 
ATOM     23  C   UNL     1      -5.076   3.104 132.256  0.00  0.00    +0.000 C 
ENDROOT
BRANCH   5  24
ATOM     24  O   UNL     1     -10.610   4.087 130.063  0.00  0.00    +0.000 OA
ATOM     25  H   UNL     1     -10.996   3.440 130.665  0.00  0.00    +0.000 HD
ENDBRANCH   5  24
BRANCH   5  26
ATOM     26  C   UNL     1      -9.746   6.106 129.258  0.00  0.00    +0.000 C 
ATOM     27  O   UNL     1      -9.572   5.959 128.040  0.00  0.00    +0.000 OA
BRANCH  26  28
ATOM     28  C   UNL     1     -10.304   7.573 129.647  0.00  0.00    +0.000 C 
ATOM     29 CL   UNL     1     -10.460   8.553 128.060  0.00  0.00    +0.000 Cl
ENDBRANCH  26  28
ENDBRANCH   5  26
BRANCH   9  30
ATOM     30  O   UNL     1      -7.144   4.845 128.861  0.00  0.00    +0.000 OA
ATOM     31  H   UNL     1      -7.996   5.264 128.665  0.00  0.00    +0.000 HD
ENDBRANCH   9  30
TORSDOF 4
ENDMDL
MODEL 7
REMARK VINA RESULT:      -8.1      6.002      9.152
REMARK  Name = Ulobetasol
REMARK  7 active torsions:
REMARK  status: ('A' for Active; 'I' for Inactive)
REMARK    1  A    between atoms: C_4  and  C_5
REMARK    2  A    between atoms: C_6  and  O_7
REMARK    3  A    between atoms: C_6  and  C_8
REMARK    4  A    between atoms: C_8  and  C_10
REMARK    5  A    between atoms: C_12  and  C_13
REMARK    6  A    between atoms: C_15  and  O_16
REMARK    7  A    between atoms: C_30  and  C_31
REMARK                            x       y       z     vdW  Elec       q    Type
REMARK                         _______ _______ _______ _____ _____    ______ ____
ROOT
ATOM      1  C   UNL     1      -4.588   3.393 126.119  0.00  0.00    +0.000 C 
ATOM      2  C   UNL     1      -3.979   2.254 126.696  0.00  0.00    +0.000 C 
ATOM      3  C   UNL     1      -5.357   2.384 127.243  0.00  0.00    +0.000 C 
ATOM      4  C   UNL     1      -4.913   0.949 128.325  0.00  0.00    +0.000 C 
ATOM      5  C   UNL     1      -6.514   3.749 126.184  0.00  0.00    +0.000 C 
ATOM      6  C   UNL     1      -6.230   2.462 125.937  0.00  0.00    +0.000 C 
ATOM      7  C   UNL     1      -6.331   1.707 124.669  0.00  0.00    +0.000 C 
ATOM      8  C   UNL     1      -7.459   2.459 127.332  0.00  0.00    +0.000 C 
ATOM      9  C   UNL     1      -7.138   3.900 128.440  0.00  0.00    +0.000 C 
ATOM     10  C   UNL     1      -5.509   4.578 128.629  0.00  0.00    +0.000 C 
ATOM     11  F   UNL     1      -4.618   3.489 128.770  0.00  0.00    +0.000 F 
ATOM     12  C   UNL     1      -4.656   4.843 127.259  0.00  0.00    +0.000 C 
ATOM     13  C   UNL     1      -3.184   4.993 127.677  0.00  0.00    +0.000 C 
ATOM     14  C   UNL     1      -3.025   5.886 128.861  0.00  0.00    +0.000 C 
ATOM     15  F   UNL     1      -1.688   6.048 129.023  0.00  0.00    +0.000 F 
ATOM     16  C   UNL     1      -3.565   5.162 130.067  0.00  0.00    +0.000 C 
ATOM     17  C   UNL     1      -2.943   5.105 131.265  0.00  0.00    +0.000 C 
ATOM     18  C   UNL     1      -2.963   6.544 131.482  0.00  0.00    +0.000 C 
ATOM     19  O   UNL     1      -2.028   7.298 131.323  0.00  0.00    +0.000 OA
ATOM     20  C   UNL     1      -4.367   6.879 131.888  0.00  0.00    +0.000 C 
ATOM     21  C   UNL     1      -5.383   6.160 131.232  0.00  0.00    +0.000 C 
ATOM     22  C   UNL     1      -5.065   4.947 130.169  0.00  0.00    +0.000 C 
ATOM     23  C   UNL     1      -5.076   3.419 130.817  0.00  0.00    +0.000 C 
ENDROOT
BRANCH   5  24
ATOM     24  O   UNL     1      -5.954   4.503 124.947  0.00  0.00    +0.000 OA
ATOM     25  H   UNL     1      -5.813   5.455 125.016  0.00  0.00    +0.000 HD
ENDBRANCH   5  24
BRANCH   5  26
ATOM     26  C   UNL     1      -8.168   3.852 125.333  0.00  0.00    +0.000 C 
ATOM     27  O   UNL     1      -8.898   4.845 125.458  0.00  0.00    +0.000 OA
BRANCH  26  28
ATOM     28  C   UNL     1      -8.847   2.668 124.467  0.00  0.00    +0.000 C 
ATOM     29 CL   UNL     1      -8.625   3.098 122.660  0.00  0.00    +0.000 Cl
ENDBRANCH  26  28
ENDBRANCH   5  26
BRANCH   9  30
ATOM     30  O   UNL     1      -8.029   4.954 128.033  0.00  0.00    +0.000 OA
ATOM     31  H   UNL     1      -7.597   5.528 127.383  0.00  0.00    +0.000 HD
ENDBRANCH   9  30
TORSDOF 4
ENDMDL
MODEL 8
REMARK VINA RESULT:      -8.0      3.890      7.484
REMARK  Name = Ulobetasol
REMARK  7 active torsions:
REMARK  status: ('A' for Active; 'I' for Inactive)
REMARK    1  A    between atoms: C_4  and  C_5
REMARK    2  A    between atoms: C_6  and  O_7
REMARK    3  A    between atoms: C_6  and  C_8
REMARK    4  A    between atoms: C_8  and  C_10
REMARK    5  A    between atoms: C_12  and  C_13
REMARK    6  A    between atoms: C_15  and  O_16
REMARK    7  A    between atoms: C_30  and  C_31
REMARK                            x       y       z     vdW  Elec       q    Type
REMARK                         _______ _______ _______ _____ _____    ______ ____
ROOT
ATOM      1  C   UNL     1      -7.855   2.464 126.000  0.00  0.00    +0.000 C 
ATOM      2  C   UNL     1      -6.513   2.864 126.204  0.00  0.00    +0.000 C 
ATOM      3  C   UNL     1      -6.539   1.397 125.957  0.00  0.00    +0.000 C 
ATOM      4  C   UNL     1      -4.722   1.447 126.307  0.00  0.00    +0.000 C 
ATOM      5  C   UNL     1      -8.372   0.738 125.228  0.00  0.00    +0.000 C 
ATOM      6  C   UNL     1      -7.327   1.298 124.600  0.00  0.00    +0.000 C 
ATOM      7  C   UNL     1      -7.276   1.964 123.280  0.00  0.00    +0.000 C 
ATOM      8  C   UNL     1      -6.820  -0.448 124.984  0.00  0.00    +0.000 C 
ATOM      9  C   UNL     1      -7.520  -0.950 126.616  0.00  0.00    +0.000 C 
ATOM     10  C   UNL     1      -7.825   0.239 127.898  0.00  0.00    +0.000 C 
ATOM     11  F   UNL     1      -6.697   1.091 127.953  0.00  0.00    +0.000 F 
ATOM     12  C   UNL     1      -8.595   1.614 127.462  0.00  0.00    +0.000 C 
ATOM     13  C   UNL     1      -8.350   2.634 128.586  0.00  0.00    +0.000 C 
ATOM     14  C   UNL     1      -8.554   2.039 129.938  0.00  0.00    +0.000 C 
ATOM     15  F   UNL     1      -8.457   3.071 130.813  0.00  0.00    +0.000 F 
ATOM     16  C   UNL     1      -7.421   1.082 130.203  0.00  0.00    +0.000 C 
ATOM     17  C   UNL     1      -6.733   1.018 131.364  0.00  0.00    +0.000 C 
ATOM     18  C   UNL     1      -7.892   0.674 132.175  0.00  0.00    +0.000 C 
ATOM     19  O   UNL     1      -8.511   1.436 132.885  0.00  0.00    +0.000 OA
ATOM     20  C   UNL     1      -8.165  -0.775 131.907  0.00  0.00    +0.000 C 
ATOM     21  C   UNL     1      -7.970  -1.202 130.581  0.00  0.00    +0.000 C 
ATOM     22  C   UNL     1      -7.370  -0.214 129.412  0.00  0.00    +0.000 C 
ATOM     23  C   UNL     1      -5.731  -0.318 129.172  0.00  0.00    +0.000 C 
ENDROOT
BRANCH   5  24
ATOM     24  O   UNL     1      -9.543   1.723 124.965  0.00  0.00    +0.000 OA
ATOM     25  H   UNL     1      -9.393   2.463 124.365  0.00  0.00    +0.000 HD
ENDBRANCH   5  24
BRANCH   5  26
ATOM     26  C   UNL     1      -9.064  -0.257 123.814  0.00  0.00    +0.000 C 
ATOM     27  O   UNL     1     -10.216  -0.071 123.397  0.00  0.00    +0.000 OA
BRANCH  26  28
ATOM     28  C   UNL     1      -8.312  -1.485 123.081  0.00  0.00    +0.000 C 
ATOM     29 CL   UNL     1      -9.385  -3.004 123.291  0.00  0.00    +0.000 Cl
ENDBRANCH  26  28
ENDBRANCH   5  26
BRANCH   9  30
ATOM     30  O   UNL     1      -8.742  -1.663 126.352  0.00  0.00    +0.000 OA
ATOM     31  H   UNL     1      -9.080  -2.065 127.168  0.00  0.00    +0.000 HD
ENDBRANCH   9  30
TORSDOF 4
ENDMDL
MODEL 9
REMARK VINA RESULT:      -7.7      3.723      5.234
REMARK  Name = Ulobetasol
REMARK  7 active torsions:
REMARK  status: ('A' for Active; 'I' for Inactive)
REMARK    1  A    between atoms: C_4  and  C_5
REMARK    2  A    between atoms: C_6  and  O_7
REMARK    3  A    between atoms: C_6  and  C_8
REMARK    4  A    between atoms: C_8  and  C_10
REMARK    5  A    between atoms: C_12  and  C_13
REMARK    6  A    between atoms: C_15  and  O_16
REMARK    7  A    between atoms: C_30  and  C_31
REMARK                            x       y       z     vdW  Elec       q    Type
REMARK                         _______ _______ _______ _____ _____    ______ ____
ROOT
ATOM      1  C   UNL     1      -7.930   2.587 127.978  0.00  0.00    +0.000 C 
ATOM      2  C   UNL     1      -8.419   1.968 129.153  0.00  0.00    +0.000 C 
ATOM      3  C   UNL     1      -6.977   1.630 129.004  0.00  0.00    +0.000 C 
ATOM      4  C   UNL     1      -7.220   0.549 130.486  0.00  0.00    +0.000 C 
ATOM      5  C   UNL     1      -6.024   2.800 127.572  0.00  0.00    +0.000 C 
ATOM      6  C   UNL     1      -6.314   3.049 128.858  0.00  0.00    +0.000 C 
ATOM      7  C   UNL     1      -6.390   4.346 129.565  0.00  0.00    +0.000 C 
ATOM      8  C   UNL     1      -4.888   1.856 128.874  0.00  0.00    +0.000 C 
ATOM      9  C   UNL     1      -5.069   0.659 127.480  0.00  0.00    +0.000 C 
ATOM     10  C   UNL     1      -6.665   0.201 126.854  0.00  0.00    +0.000 C 
ATOM     11  F   UNL     1      -7.500  -0.031 127.972  0.00  0.00    +0.000 F 
ATOM     12  C   UNL     1      -7.722   1.416 126.567  0.00  0.00    +0.000 C 
ATOM     13  C   UNL     1      -9.116   0.775 126.471  0.00  0.00    +0.000 C 
ATOM     14  C   UNL     1      -9.113  -0.452 125.624  0.00  0.00    +0.000 C 
ATOM     15  F   UNL     1     -10.413  -0.820 125.504  0.00  0.00    +0.000 F 
ATOM     16  C   UNL     1      -8.381  -1.535 126.373  0.00  0.00    +0.000 C 
ATOM     17  C   UNL     1      -8.813  -2.810 126.488  0.00  0.00    +0.000 C 
ATOM     18  C   UNL     1      -8.792  -3.075 125.057  0.00  0.00    +0.000 C 
ATOM     19  O   UNL     1      -9.756  -3.088 124.324  0.00  0.00    +0.000 OA
ATOM     20  C   UNL     1      -7.350  -3.277 124.698  0.00  0.00    +0.000 C 
ATOM     21  C   UNL     1      -6.429  -2.449 125.366  0.00  0.00    +0.000 C 
ATOM     22  C   UNL     1      -6.878  -1.401 126.550  0.00  0.00    +0.000 C 
ATOM     23  C   UNL     1      -6.736  -1.982 128.098  0.00  0.00    +0.000 C 
ENDROOT
BRANCH   5  24
ATOM     24  O   UNL     1      -6.782   3.909 126.792  0.00  0.00    +0.000 OA
ATOM     25  H   UNL     1      -6.533   4.076 125.876  0.00  0.00    +0.000 HD
ENDBRANCH   5  24
BRANCH   5  26
ATOM     26  C   UNL     1      -4.522   3.885 127.395  0.00  0.00    +0.000 C 
ATOM     27  O   UNL     1      -4.467   4.776 126.535  0.00  0.00    +0.000 OA
BRANCH  26  28
ATOM     28  C   UNL     1      -3.149   3.723 128.232  0.00  0.00    +0.000 C 
ATOM     29 CL   UNL     1      -1.808   3.235 127.021  0.00  0.00    +0.000 Cl
ENDBRANCH  26  28
ENDBRANCH   5  26
BRANCH   9  30
ATOM     30  O   UNL     1      -4.273   1.156 126.389  0.00  0.00    +0.000 OA
ATOM     31  H   UNL     1      -4.792   1.161 125.569  0.00  0.00    +0.000 HD
ENDBRANCH   9  30
TORSDOF 4
ENDMDL
