MODEL 1
REMARK VINA RESULT:     -11.6      0.000      0.000
REMARK  Name = Umbralisib
REMARK  9 active torsions:
REMARK  status: ('A' for Active; 'I' for Inactive)
REMARK    1  A    between atoms: C_1  and  C_2
REMARK    2  A    between atoms: C_2  and  C_3
REMARK    3  A    between atoms: C_2  and  O_4
REMARK    4  A    between atoms: O_4  and  C_5
REMARK    5  A    between atoms: C_9  and  C_12
REMARK    6  A    between atoms: N_14  and  C_15
REMARK    7  A    between atoms: C_15  and  C_16
REMARK    8  A    between atoms: C_15  and  C_17
REMARK    9  A    between atoms: C_18  and  C_19
REMARK                            x       y       z     vdW  Elec       q    Type
REMARK                         _______ _______ _______ _____ _____    ______ ____
ROOT
ATOM      1  C   UNL     1      -8.968   3.430 130.120  0.00  0.00    +0.000 A 
ATOM      2  N   UNL     1      -8.542   3.008 128.908  0.00  0.00    +0.000 NA
ATOM      3  N   UNL     1      -7.760   1.849 129.150  0.00  0.00    +0.000 N 
ATOM      4  C   UNL     1      -7.717   1.589 130.485  0.00  0.00    +0.000 A 
ATOM      5  C   UNL     1      -8.542   2.514 131.125  0.00  0.00    +0.000 A 
ATOM      6  C   UNL     1      -8.764   2.332 132.500  0.00  0.00    +0.000 A 
ATOM      7  N   UNL     1      -9.588   3.117 133.279  0.00  0.00    +0.000 N 
ATOM      8  N   UNL     1      -8.149   1.295 133.103  0.00  0.00    +0.000 NA
ATOM      9  C   UNL     1      -7.339   0.505 132.367  0.00  0.00    +0.000 A 
ATOM     10  N   UNL     1      -7.056   0.584 131.060  0.00  0.00    +0.000 NA
ATOM     11  H   UNL     1     -10.192   3.822 132.890  0.00  0.00    +0.000 HD
ATOM     12  H   UNL     1      -9.732   2.836 134.237  0.00  0.00    +0.000 HD
ENDROOT
BRANCH   1  17
ATOM     13  C   UNL     1     -11.449   7.016 130.443  0.00  0.00    +0.000 A 
ATOM     14  C   UNL     1     -11.924   5.800 129.961  0.00  0.00    +0.000 A 
ATOM     15  F   UNL     1     -13.061   5.729 129.257  0.00  0.00    +0.000 F 
ATOM     16  C   UNL     1     -11.173   4.620 130.014  0.00  0.00    +0.000 A 
ATOM     17  C   UNL     1      -9.815   4.639 130.358  0.00  0.00    +0.000 A 
ATOM     18  C   UNL     1      -9.278   5.890 130.707  0.00  0.00    +0.000 A 
ATOM     19  C   UNL     1     -10.087   7.061 130.767  0.00  0.00    +0.000 A 
BRANCH  13  20
ATOM     20  O   UNL     1     -12.184   8.180 130.462  0.00  0.00    +0.000 OA
BRANCH  20  22
ATOM     21  C   UNL     1     -13.179  10.108 129.367  0.00  0.00    +0.000 C 
ATOM     22  C   UNL     1     -12.705   8.656 129.191  0.00  0.00    +0.000 C 
ATOM     23  C   UNL     1     -11.685   8.694 128.056  0.00  0.00    +0.000 C 
ENDBRANCH  20  22
ENDBRANCH  13  20
ENDBRANCH   1  17
BRANCH   3  24
ATOM     24  C   UNL     1      -6.950   1.215 127.975  0.00  0.00    +0.000 C 
ATOM     25  C   UNL     1      -5.498   1.429 128.688  0.00  0.00    +0.000 C 
BRANCH  24  26
ATOM     26  C   UNL     1      -7.188  -0.419 127.267  0.00  0.00    +0.000 A 
ATOM     27  C   UNL     1      -6.689  -0.294 126.043  0.00  0.00    +0.000 A 
ATOM     28  C   UNL     1      -6.284  -1.693 125.827  0.00  0.00    +0.000 A 
ATOM     29  O   UNL     1      -5.579  -2.424 126.480  0.00  0.00    +0.000 OA
ATOM     30  C   UNL     1      -7.245  -2.260 124.983  0.00  0.00    +0.000 A 
ATOM     31  C   UNL     1      -7.249  -1.924 123.619  0.00  0.00    +0.000 A 
ATOM     32  C   UNL     1      -8.234  -2.388 122.806  0.00  0.00    +0.000 A 
ATOM     33  F   UNL     1      -8.184  -2.109 121.496  0.00  0.00    +0.000 F 
ATOM     34  C   UNL     1      -9.173  -3.210 123.398  0.00  0.00    +0.000 A 
ATOM     35  C   UNL     1      -9.306  -3.256 124.876  0.00  0.00    +0.000 A 
ATOM     36  C   UNL     1      -8.332  -2.620 125.736  0.00  0.00    +0.000 A 
ATOM     37  O   UNL     1      -8.484  -1.539 127.024  0.00  0.00    +0.000 OA
BRANCH  27  38
ATOM     38  C   UNL     1      -7.684   0.477 125.153  0.00  0.00    +0.000 A 
ATOM     39  C   UNL     1      -7.062   1.060 124.063  0.00  0.00    +0.000 A 
ATOM     40  C   UNL     1      -7.710   2.003 123.283  0.00  0.00    +0.000 A 
ATOM     41  C   UNL     1      -9.088   2.124 123.349  0.00  0.00    +0.000 A 
ATOM     42  C   UNL     1      -9.781   1.398 124.298  0.00  0.00    +0.000 A 
ATOM     43  F   UNL     1     -11.120   1.366 124.260  0.00  0.00    +0.000 F 
ATOM     44  C   UNL     1      -9.092   0.668 125.263  0.00  0.00    +0.000 A 
ENDBRANCH  27  38
ENDBRANCH  24  26
ENDBRANCH   3  24
TORSDOF 6
ENDMDL
MODEL 2
REMARK VINA RESULT:     -10.9      2.483      3.366
REMARK  Name = Umbralisib
REMARK  9 active torsions:
REMARK  status: ('A' for Active; 'I' for Inactive)
REMARK    1  A    between atoms: C_1  and  C_2
REMARK    2  A    between atoms: C_2  and  C_3
REMARK    3  A    between atoms: C_2  and  O_4
REMARK    4  A    between atoms: O_4  and  C_5
REMARK    5  A    between atoms: C_9  and  C_12
REMARK    6  A    between atoms: N_14  and  C_15
REMARK    7  A    between atoms: C_15  and  C_16
REMARK    8  A    between atoms: C_15  and  C_17
REMARK    9  A    between atoms: C_18  and  C_19
REMARK                            x       y       z     vdW  Elec       q    Type
REMARK                         _______ _______ _______ _____ _____    ______ ____
ROOT
ATOM      1  C   UNL     1      -8.507   3.265 129.481  0.00  0.00    +0.000 A 
ATOM      2  N   UNL     1      -8.599   2.313 128.524  0.00  0.00    +0.000 NA
ATOM      3  N   UNL     1      -7.433   1.514 128.653  0.00  0.00    +0.000 N 
ATOM      4  C   UNL     1      -6.657   1.986 129.666  0.00  0.00    +0.000 A 
ATOM      5  C   UNL     1      -7.343   3.038 130.273  0.00  0.00    +0.000 A 
ATOM      6  C   UNL     1      -6.788   3.575 131.445  0.00  0.00    +0.000 A 
ATOM      7  N   UNL     1      -7.354   4.580 132.200  0.00  0.00    +0.000 N 
ATOM      8  N   UNL     1      -5.625   3.055 131.884  0.00  0.00    +0.000 NA
ATOM      9  C   UNL     1      -5.045   2.066 131.168  0.00  0.00    +0.000 A 
ATOM     10  N   UNL     1      -5.483   1.481 130.045  0.00  0.00    +0.000 NA
ATOM     11  H   UNL     1      -8.282   4.931 132.029  0.00  0.00    +0.000 HD
ATOM     12  H   UNL     1      -6.901   4.825 133.068  0.00  0.00    +0.000 HD
ENDROOT
BRANCH   1  17
ATOM     13  C   UNL     1     -11.208   6.574 130.411  0.00  0.00    +0.000 A 
ATOM     14  C   UNL     1     -10.023   6.733 129.697  0.00  0.00    +0.000 A 
ATOM     15  F   UNL     1      -9.465   7.940 129.539  0.00  0.00    +0.000 F 
ATOM     16  C   UNL     1      -9.250   5.650 129.264  0.00  0.00    +0.000 A 
ATOM     17  C   UNL     1      -9.511   4.348 129.711  0.00  0.00    +0.000 A 
ATOM     18  C   UNL     1     -10.623   4.190 130.556  0.00  0.00    +0.000 A 
ATOM     19  C   UNL     1     -11.472   5.285 130.888  0.00  0.00    +0.000 A 
BRANCH  13  20
ATOM     20  O   UNL     1     -12.022   7.615 130.797  0.00  0.00    +0.000 OA
BRANCH  20  22
ATOM     21  C   UNL     1     -12.774   9.349 129.269  0.00  0.00    +0.000 C 
ATOM     22  C   UNL     1     -13.101   7.983 129.894  0.00  0.00    +0.000 C 
ATOM     23  C   UNL     1     -13.302   7.032 128.717  0.00  0.00    +0.000 C 
ENDBRANCH  20  22
ENDBRANCH  13  20
ENDBRANCH   1  17
BRANCH   3  24
ATOM     24  C   UNL     1      -7.125   0.432 127.569  0.00  0.00    +0.000 C 
ATOM     25  C   UNL     1      -7.710  -0.808 128.453  0.00  0.00    +0.000 C 
BRANCH  24  26
ATOM     26  C   UNL     1      -7.675   0.440 125.859  0.00  0.00    +0.000 A 
ATOM     27  C   UNL     1      -6.639   0.958 125.211  0.00  0.00    +0.000 A 
ATOM     28  C   UNL     1      -6.850   0.309 123.906  0.00  0.00    +0.000 A 
ATOM     29  O   UNL     1      -6.973  -0.854 123.610  0.00  0.00    +0.000 OA
ATOM     30  C   UNL     1      -7.398   1.282 123.062  0.00  0.00    +0.000 A 
ATOM     31  C   UNL     1      -6.573   2.301 122.558  0.00  0.00    +0.000 A 
ATOM     32  C   UNL     1      -7.109   3.307 121.818  0.00  0.00    +0.000 A 
ATOM     33  F   UNL     1      -6.296   4.234 121.292  0.00  0.00    +0.000 F 
ATOM     34  C   UNL     1      -8.468   3.231 121.583  0.00  0.00    +0.000 A 
ATOM     35  C   UNL     1      -9.324   2.336 122.403  0.00  0.00    +0.000 A 
ATOM     36  C   UNL     1      -8.743   1.371 123.311  0.00  0.00    +0.000 A 
ATOM     37  O   UNL     1      -9.017   1.034 124.942  0.00  0.00    +0.000 OA
BRANCH  27  38
ATOM     38  C   UNL     1      -6.595   2.483 125.434  0.00  0.00    +0.000 A 
ATOM     39  C   UNL     1      -5.300   2.967 125.462  0.00  0.00    +0.000 A 
ATOM     40  C   UNL     1      -5.020   4.250 125.903  0.00  0.00    +0.000 A 
ATOM     41  C   UNL     1      -6.035   5.188 125.985  0.00  0.00    +0.000 A 
ATOM     42  C   UNL     1      -7.338   4.789 125.761  0.00  0.00    +0.000 A 
ATOM     43  F   UNL     1      -8.305   5.711 125.661  0.00  0.00    +0.000 F 
ATOM     44  C   UNL     1      -7.640   3.440 125.597  0.00  0.00    +0.000 A 
ENDBRANCH  27  38
ENDBRANCH  24  26
ENDBRANCH   3  24
TORSDOF 6
ENDMDL
MODEL 3
REMARK VINA RESULT:     -10.8      3.023      4.592
REMARK  Name = Umbralisib
REMARK  9 active torsions:
REMARK  status: ('A' for Active; 'I' for Inactive)
REMARK    1  A    between atoms: C_1  and  C_2
REMARK    2  A    between atoms: C_2  and  C_3
REMARK    3  A    between atoms: C_2  and  O_4
REMARK    4  A    between atoms: O_4  and  C_5
REMARK    5  A    between atoms: C_9  and  C_12
REMARK    6  A    between atoms: N_14  and  C_15
REMARK    7  A    between atoms: C_15  and  C_16
REMARK    8  A    between atoms: C_15  and  C_17
REMARK    9  A    between atoms: C_18  and  C_19
REMARK                            x       y       z     vdW  Elec       q    Type
REMARK                         _______ _______ _______ _____ _____    ______ ____
ROOT
ATOM      1  C   UNL     1      -6.972  -0.338 129.832  0.00  0.00    +0.000 A 
ATOM      2  N   UNL     1      -7.778  -0.900 128.903  0.00  0.00    +0.000 NA
ATOM      3  N   UNL     1      -7.027  -1.950 128.316  0.00  0.00    +0.000 N 
ATOM      4  C   UNL     1      -5.792  -2.010 128.882  0.00  0.00    +0.000 A 
ATOM      5  C   UNL     1      -5.748  -1.065 129.907  0.00  0.00    +0.000 A 
ATOM      6  C   UNL     1      -4.609  -1.062 130.729  0.00  0.00    +0.000 A 
ATOM      7  N   UNL     1      -4.420  -0.235 131.816  0.00  0.00    +0.000 N 
ATOM      8  N   UNL     1      -3.635  -1.952 130.454  0.00  0.00    +0.000 NA
ATOM      9  C   UNL     1      -3.791  -2.780 129.398  0.00  0.00    +0.000 A 
ATOM     10  N   UNL     1      -4.827  -2.871 128.554  0.00  0.00    +0.000 NA
ATOM     11  H   UNL     1      -5.147   0.360 132.178  0.00  0.00    +0.000 HD
ATOM     12  H   UNL     1      -3.596  -0.383 132.378  0.00  0.00    +0.000 HD
ENDROOT
BRANCH   1  17
ATOM     13  C   UNL     1      -8.311   3.149 132.103  0.00  0.00    +0.000 A 
ATOM     14  C   UNL     1      -9.037   1.964 132.025  0.00  0.00    +0.000 A 
ATOM     15  F   UNL     1     -10.335   1.923 132.353  0.00  0.00    +0.000 F 
ATOM     16  C   UNL     1      -8.527   0.802 131.434  0.00  0.00    +0.000 A 
ATOM     17  C   UNL     1      -7.338   0.827 130.694  0.00  0.00    +0.000 A 
ATOM     18  C   UNL     1      -6.663   2.058 130.640  0.00  0.00    +0.000 A 
ATOM     19  C   UNL     1      -7.132   3.201 131.350  0.00  0.00    +0.000 A 
BRANCH  13  20
ATOM     20  O   UNL     1      -8.759   4.289 132.731  0.00  0.00    +0.000 OA
BRANCH  20  22
ATOM     21  C   UNL     1     -10.420   6.049 132.510  0.00  0.00    +0.000 C 
ATOM     22  C   UNL     1      -9.181   5.392 131.882  0.00  0.00    +0.000 C 
ATOM     23  C   UNL     1      -8.155   6.512 131.732  0.00  0.00    +0.000 C 
ENDBRANCH  20  22
ENDBRANCH  13  20
ENDBRANCH   1  17
BRANCH   3  24
ATOM     24  C   UNL     1      -7.596  -2.687 127.060  0.00  0.00    +0.000 C 
ATOM     25  C   UNL     1      -8.661  -3.585 127.909  0.00  0.00    +0.000 C 
BRANCH  24  26
ATOM     26  C   UNL     1      -8.287  -1.922 125.590  0.00  0.00    +0.000 A 
ATOM     27  C   UNL     1      -7.227  -1.372 125.009  0.00  0.00    +0.000 A 
ATOM     28  C   UNL     1      -7.693  -1.415 123.613  0.00  0.00    +0.000 A 
ATOM     29  O   UNL     1      -8.093  -2.333 122.940  0.00  0.00    +0.000 OA
ATOM     30  C   UNL     1      -8.092  -0.114 123.286  0.00  0.00    +0.000 A 
ATOM     31  C   UNL     1      -7.115   0.869 123.056  0.00  0.00    +0.000 A 
ATOM     32  C   UNL     1      -7.485   2.157 122.835  0.00  0.00    +0.000 A 
ATOM     33  F   UNL     1      -6.541   3.067 122.553  0.00  0.00    +0.000 F 
ATOM     34  C   UNL     1      -8.843   2.406 122.820  0.00  0.00    +0.000 A 
ATOM     35  C   UNL     1      -9.794   1.417 123.390  0.00  0.00    +0.000 A 
ATOM     36  C   UNL     1      -9.356   0.093 123.773  0.00  0.00    +0.000 A 
ATOM     37  O   UNL     1      -9.545  -0.803 125.191  0.00  0.00    +0.000 OA
BRANCH  27  38
ATOM     38  C   UNL     1      -6.832  -0.085 125.761  0.00  0.00    +0.000 A 
ATOM     39  C   UNL     1      -5.460   0.081 125.823  0.00  0.00    +0.000 A 
ATOM     40  C   UNL     1      -4.885   1.019 126.664  0.00  0.00    +0.000 A 
ATOM     41  C   UNL     1      -5.657   2.042 127.187  0.00  0.00    +0.000 A 
ATOM     42  C   UNL     1      -7.022   2.029 126.975  0.00  0.00    +0.000 A 
ATOM     43  F   UNL     1      -7.756   3.096 127.318  0.00  0.00    +0.000 F 
ATOM     44  C   UNL     1      -7.627   0.931 126.369  0.00  0.00    +0.000 A 
ENDBRANCH  27  38
ENDBRANCH  24  26
ENDBRANCH   3  24
TORSDOF 6
ENDMDL
MODEL 4
REMARK VINA RESULT:     -10.8      5.660      9.017
REMARK  Name = Umbralisib
REMARK  9 active torsions:
REMARK  status: ('A' for Active; 'I' for Inactive)
REMARK    1  A    between atoms: C_1  and  C_2
REMARK    2  A    between atoms: C_2  and  C_3
REMARK    3  A    between atoms: C_2  and  O_4
REMARK    4  A    between atoms: O_4  and  C_5
REMARK    5  A    between atoms: C_9  and  C_12
REMARK    6  A    between atoms: N_14  and  C_15
REMARK    7  A    between atoms: C_15  and  C_16
REMARK    8  A    between atoms: C_15  and  C_17
REMARK    9  A    between atoms: C_18  and  C_19
REMARK                            x       y       z     vdW  Elec       q    Type
REMARK                         _______ _______ _______ _____ _____    ______ ____
ROOT
ATOM      1  C   UNL     1      -8.125   4.700 130.968  0.00  0.00    +0.000 A 
ATOM      2  N   UNL     1      -7.008   5.038 130.285  0.00  0.00    +0.000 NA
ATOM      3  N   UNL     1      -5.989   4.163 130.743  0.00  0.00    +0.000 N 
ATOM      4  C   UNL     1      -6.490   3.322 131.687  0.00  0.00    +0.000 A 
ATOM      5  C   UNL     1      -7.858   3.569 131.794  0.00  0.00    +0.000 A 
ATOM      6  C   UNL     1      -8.605   2.702 132.608  0.00  0.00    +0.000 A 
ATOM      7  N   UNL     1      -9.971   2.767 132.789  0.00  0.00    +0.000 N 
ATOM      8  N   UNL     1      -7.946   1.713 133.242  0.00  0.00    +0.000 NA
ATOM      9  C   UNL     1      -6.608   1.620 133.084  0.00  0.00    +0.000 A 
ATOM     10  N   UNL     1      -5.799   2.384 132.337  0.00  0.00    +0.000 NA
ATOM     11  H   UNL     1     -10.561   3.380 132.250  0.00  0.00    +0.000 HD
ATOM     12  H   UNL     1     -10.406   2.037 133.333  0.00  0.00    +0.000 HD
ENDROOT
BRANCH   1  17
ATOM     13  C   UNL     1     -11.827   6.958 130.410  0.00  0.00    +0.000 A 
ATOM     14  C   UNL     1     -11.100   6.411 129.357  0.00  0.00    +0.000 A 
ATOM     15  F   UNL     1     -11.295   6.816 128.095  0.00  0.00    +0.000 F 
ATOM     16  C   UNL     1     -10.011   5.554 129.554  0.00  0.00    +0.000 A 
ATOM     17  C   UNL     1      -9.453   5.371 130.825  0.00  0.00    +0.000 A 
ATOM     18  C   UNL     1     -10.089   6.037 131.887  0.00  0.00    +0.000 A 
ATOM     19  C   UNL     1     -11.271   6.807 131.687  0.00  0.00    +0.000 A 
BRANCH  13  20
ATOM     20  O   UNL     1     -12.939   7.753 130.251  0.00  0.00    +0.000 OA
BRANCH  20  22
ATOM     21  C   UNL     1     -13.508   9.100 128.309  0.00  0.00    +0.000 C 
ATOM     22  C   UNL     1     -12.740   9.058 129.640  0.00  0.00    +0.000 C 
ATOM     23  C   UNL     1     -13.271  10.233 130.457  0.00  0.00    +0.000 C 
ENDBRANCH  20  22
ENDBRANCH  13  20
ENDBRANCH   1  17
BRANCH   3  24
ATOM     24  C   UNL     1      -4.512   4.410 130.296  0.00  0.00    +0.000 C 
ATOM     25  C   UNL     1      -4.843   4.324 128.701  0.00  0.00    +0.000 C 
BRANCH  24  26
ATOM     26  C   UNL     1      -3.471   5.799 130.757  0.00  0.00    +0.000 A 
ATOM     27  C   UNL     1      -2.676   5.285 131.688  0.00  0.00    +0.000 A 
ATOM     28  C   UNL     1      -1.510   6.162 131.491  0.00  0.00    +0.000 A 
ATOM     29  O   UNL     1      -0.866   6.414 130.501  0.00  0.00    +0.000 OA
ATOM     30  C   UNL     1      -1.529   7.091 132.538  0.00  0.00    +0.000 A 
ATOM     31  C   UNL     1      -1.154   6.681 133.828  0.00  0.00    +0.000 A 
ATOM     32  C   UNL     1      -1.261   7.543 134.874  0.00  0.00    +0.000 A 
ATOM     33  F   UNL     1      -0.838   7.154 136.085  0.00  0.00    +0.000 F 
ATOM     34  C   UNL     1      -1.715   8.811 134.572  0.00  0.00    +0.000 A 
ATOM     35  C   UNL     1      -2.399   9.077 133.280  0.00  0.00    +0.000 A 
ATOM     36  C   UNL     1      -2.416   8.087 132.226  0.00  0.00    +0.000 A 
ATOM     37  O   UNL     1      -3.667   7.430 131.301  0.00  0.00    +0.000 OA
BRANCH  27  38
ATOM     38  C   UNL     1      -3.451   5.143 133.013  0.00  0.00    +0.000 A 
ATOM     39  C   UNL     1      -2.987   4.087 133.776  0.00  0.00    +0.000 A 
ATOM     40  C   UNL     1      -3.698   3.622 134.871  0.00  0.00    +0.000 A 
ATOM     41  C   UNL     1      -4.686   4.410 135.437  0.00  0.00    +0.000 A 
ATOM     42  C   UNL     1      -5.044   5.589 134.813  0.00  0.00    +0.000 A 
ATOM     43  F   UNL     1      -5.866   6.445 135.437  0.00  0.00    +0.000 F 
ATOM     44  C   UNL     1      -4.523   5.907 133.562  0.00  0.00    +0.000 A 
ENDBRANCH  27  38
ENDBRANCH  24  26
ENDBRANCH   3  24
TORSDOF 6
ENDMDL
MODEL 5
REMARK VINA RESULT:     -10.6      3.099      8.933
REMARK  Name = Umbralisib
REMARK  9 active torsions:
REMARK  status: ('A' for Active; 'I' for Inactive)
REMARK    1  A    between atoms: C_1  and  C_2
REMARK    2  A    between atoms: C_2  and  C_3
REMARK    3  A    between atoms: C_2  and  O_4
REMARK    4  A    between atoms: O_4  and  C_5
REMARK    5  A    between atoms: C_9  and  C_12
REMARK    6  A    between atoms: N_14  and  C_15
REMARK    7  A    between atoms: C_15  and  C_16
REMARK    8  A    between atoms: C_15  and  C_17
REMARK    9  A    between atoms: C_18  and  C_19
REMARK                            x       y       z     vdW  Elec       q    Type
REMARK                         _______ _______ _______ _____ _____    ______ ____
ROOT
ATOM      1  C   UNL     1      -6.192  -0.386 130.339  0.00  0.00    +0.000 A 
ATOM      2  N   UNL     1      -5.494   0.651 130.856  0.00  0.00    +0.000 NA
ATOM      3  N   UNL     1      -5.613   0.539 132.265  0.00  0.00    +0.000 N 
ATOM      4  C   UNL     1      -6.374  -0.543 132.582  0.00  0.00    +0.000 A 
ATOM      5  C   UNL     1      -6.686  -1.206 131.395  0.00  0.00    +0.000 A 
ATOM      6  C   UNL     1      -7.342  -2.442 131.504  0.00  0.00    +0.000 A 
ATOM      7  N   UNL     1      -7.681  -3.255 130.442  0.00  0.00    +0.000 N 
ATOM      8  N   UNL     1      -7.644  -2.886 132.740  0.00  0.00    +0.000 NA
ATOM      9  C   UNL     1      -7.323  -2.116 133.802  0.00  0.00    +0.000 A 
ATOM     10  N   UNL     1      -6.700  -0.930 133.816  0.00  0.00    +0.000 NA
ATOM     11  H   UNL     1      -7.374  -3.073 129.500  0.00  0.00    +0.000 HD
ATOM     12  H   UNL     1      -8.076  -4.159 130.652  0.00  0.00    +0.000 HD
ENDROOT
BRANCH   1  17
ATOM     13  C   UNL     1      -6.984  -1.404 126.161  0.00  0.00    +0.000 A 
ATOM     14  C   UNL     1      -7.772  -0.522 126.895  0.00  0.00    +0.000 A 
ATOM     15  F   UNL     1      -9.004  -0.188 126.487  0.00  0.00    +0.000 F 
ATOM     16  C   UNL     1      -7.420  -0.077 128.174  0.00  0.00    +0.000 A 
ATOM     17  C   UNL     1      -6.361  -0.662 128.880  0.00  0.00    +0.000 A 
ATOM     18  C   UNL     1      -5.641  -1.663 128.205  0.00  0.00    +0.000 A 
ATOM     19  C   UNL     1      -5.936  -2.018 126.857  0.00  0.00    +0.000 A 
BRANCH  13  20
ATOM     20  O   UNL     1      -7.270  -1.811 124.878  0.00  0.00    +0.000 OA
BRANCH  20  22
ATOM     21  C   UNL     1      -9.007  -2.454 123.304  0.00  0.00    +0.000 C 
ATOM     22  C   UNL     1      -8.414  -2.692 124.702  0.00  0.00    +0.000 C 
ATOM     23  C   UNL     1      -8.089  -4.182 124.762  0.00  0.00    +0.000 C 
ENDBRANCH  20  22
ENDBRANCH  13  20
ENDBRANCH   1  17
BRANCH   3  24
ATOM     24  C   UNL     1      -5.082   1.696 133.171  0.00  0.00    +0.000 C 
ATOM     25  C   UNL     1      -3.512   1.289 132.994  0.00  0.00    +0.000 C 
BRANCH  24  26
ATOM     26  C   UNL     1      -5.413   3.450 132.974  0.00  0.00    +0.000 A 
ATOM     27  C   UNL     1      -6.648   3.579 133.446  0.00  0.00    +0.000 A 
ATOM     28  C   UNL     1      -6.567   4.979 133.894  0.00  0.00    +0.000 A 
ATOM     29  O   UNL     1      -5.791   5.531 134.635  0.00  0.00    +0.000 OA
ATOM     30  C   UNL     1      -7.245   5.743 132.936  0.00  0.00    +0.000 A 
ATOM     31  C   UNL     1      -8.648   5.710 132.895  0.00  0.00    +0.000 A 
ATOM     32  C   UNL     1      -9.317   6.367 131.911  0.00  0.00    +0.000 A 
ATOM     33  F   UNL     1     -10.657   6.377 131.928  0.00  0.00    +0.000 F 
ATOM     34  C   UNL     1      -8.538   7.068 131.012  0.00  0.00    +0.000 A 
ATOM     35  C   UNL     1      -7.081   6.797 130.907  0.00  0.00    +0.000 A 
ATOM     36  C   UNL     1      -6.405   5.962 131.876  0.00  0.00    +0.000 A 
ATOM     37  O   UNL     1      -5.377   4.633 131.712  0.00  0.00    +0.000 OA
BRANCH  27  38
ATOM     38  C   UNL     1      -7.659   3.047 132.410  0.00  0.00    +0.000 A 
ATOM     39  C   UNL     1      -8.730   2.411 133.008  0.00  0.00    +0.000 A 
ATOM     40  C   UNL     1      -9.615   1.641 132.271  0.00  0.00    +0.000 A 
ATOM     41  C   UNL     1      -9.663   1.775 130.894  0.00  0.00    +0.000 A 
ATOM     42  C   UNL     1      -8.727   2.572 130.263  0.00  0.00    +0.000 A 
ATOM     43  F   UNL     1      -8.867   2.853 128.960  0.00  0.00    +0.000 F 
ATOM     44  C   UNL     1      -7.669   3.116 130.986  0.00  0.00    +0.000 A 
ENDBRANCH  27  38
ENDBRANCH  24  26
ENDBRANCH   3  24
TORSDOF 6
ENDMDL
MODEL 6
REMARK VINA RESULT:     -10.5      4.795      6.751
REMARK  Name = Umbralisib
REMARK  9 active torsions:
REMARK  status: ('A' for Active; 'I' for Inactive)
REMARK    1  A    between atoms: C_1  and  C_2
REMARK    2  A    between atoms: C_2  and  C_3
REMARK    3  A    between atoms: C_2  and  O_4
REMARK    4  A    between atoms: O_4  and  C_5
REMARK    5  A    between atoms: C_9  and  C_12
REMARK    6  A    between atoms: N_14  and  C_15
REMARK    7  A    between atoms: C_15  and  C_16
REMARK    8  A    between atoms: C_15  and  C_17
REMARK    9  A    between atoms: C_18  and  C_19
REMARK                            x       y       z     vdW  Elec       q    Type
REMARK                         _______ _______ _______ _____ _____    ______ ____
ROOT
ATOM      1  C   UNL     1      -6.318   4.047 129.719  0.00  0.00    +0.000 A 
ATOM      2  N   UNL     1      -6.297   3.224 128.645  0.00  0.00    +0.000 NA
ATOM      3  N   UNL     1      -7.621   2.736 128.499  0.00  0.00    +0.000 N 
ATOM      4  C   UNL     1      -8.417   3.255 129.473  0.00  0.00    +0.000 A 
ATOM      5  C   UNL     1      -7.652   4.158 130.211  0.00  0.00    +0.000 A 
ATOM      6  C   UNL     1      -8.320   4.926 131.178  0.00  0.00    +0.000 A 
ATOM      7  N   UNL     1      -7.734   5.898 131.960  0.00  0.00    +0.000 N 
ATOM      8  N   UNL     1      -9.642   4.720 131.338  0.00  0.00    +0.000 NA
ATOM      9  C   UNL     1     -10.248   3.777 130.585  0.00  0.00    +0.000 A 
ATOM     10  N   UNL     1      -9.714   2.992 129.640  0.00  0.00    +0.000 NA
ATOM     11  H   UNL     1      -6.790   6.216 131.814  0.00  0.00    +0.000 HD
ATOM     12  H   UNL     1      -8.336   6.441 132.562  0.00  0.00    +0.000 HD
ENDROOT
BRANCH   1  17
ATOM     13  C   UNL     1      -2.643   5.998 131.059  0.00  0.00    +0.000 A 
ATOM     14  C   UNL     1      -3.259   6.282 129.843  0.00  0.00    +0.000 A 
ATOM     15  F   UNL     1      -2.600   6.914 128.863  0.00  0.00    +0.000 F 
ATOM     16  C   UNL     1      -4.516   5.776 129.496  0.00  0.00    +0.000 A 
ATOM     17  C   UNL     1      -5.133   4.778 130.262  0.00  0.00    +0.000 A 
ATOM     18  C   UNL     1      -4.453   4.372 131.422  0.00  0.00    +0.000 A 
ATOM     19  C   UNL     1      -3.232   4.986 131.827  0.00  0.00    +0.000 A 
BRANCH  13  20
ATOM     20  O   UNL     1      -1.437   6.529 131.457  0.00  0.00    +0.000 OA
BRANCH  20  22
ATOM     21  C   UNL     1       0.033   7.683 133.011  0.00  0.00    +0.000 C 
ATOM     22  C   UNL     1      -1.411   7.242 132.724  0.00  0.00    +0.000 C 
ATOM     23  C   UNL     1      -2.244   8.521 132.754  0.00  0.00    +0.000 C 
ENDBRANCH  20  22
ENDBRANCH  13  20
ENDBRANCH   1  17
BRANCH   3  24
ATOM     24  C   UNL     1      -7.908   1.602 127.464  0.00  0.00    +0.000 C 
ATOM     25  C   UNL     1      -7.579   2.529 126.162  0.00  0.00    +0.000 C 
BRANCH  24  26
ATOM     26  C   UNL     1      -7.149  -0.025 127.419  0.00  0.00    +0.000 A 
ATOM     27  C   UNL     1      -7.821  -0.698 128.346  0.00  0.00    +0.000 A 
ATOM     28  C   UNL     1      -7.672  -2.052 127.787  0.00  0.00    +0.000 A 
ATOM     29  O   UNL     1      -7.937  -2.492 126.695  0.00  0.00    +0.000 OA
ATOM     30  C   UNL     1      -6.692  -2.693 128.554  0.00  0.00    +0.000 A 
ATOM     31  C   UNL     1      -7.008  -3.132 129.850  0.00  0.00    +0.000 A 
ATOM     32  C   UNL     1      -6.043  -3.666 130.643  0.00  0.00    +0.000 A 
ATOM     33  F   UNL     1      -6.379  -4.138 131.851  0.00  0.00    +0.000 F 
ATOM     34  C   UNL     1      -4.785  -3.771 130.082  0.00  0.00    +0.000 A 
ATOM     35  C   UNL     1      -4.441  -3.000 128.859  0.00  0.00    +0.000 A 
ATOM     36  C   UNL     1      -5.458  -2.299 128.107  0.00  0.00    +0.000 A 
ATOM     37  O   UNL     1      -5.565  -0.710 127.544  0.00  0.00    +0.000 OA
BRANCH  27  38
ATOM     38  C   UNL     1      -7.342  -0.271 129.748  0.00  0.00    +0.000 A 
ATOM     39  C   UNL     1      -8.359  -0.323 130.683  0.00  0.00    +0.000 A 
ATOM     40  C   UNL     1      -8.219   0.257 131.933  0.00  0.00    +0.000 A 
ATOM     41  C   UNL     1      -6.959   0.584 132.405  0.00  0.00    +0.000 A 
ATOM     42  C   UNL     1      -5.872   0.457 131.561  0.00  0.00    +0.000 A 
ATOM     43  F   UNL     1      -4.633   0.597 132.052  0.00  0.00    +0.000 F 
ATOM     44  C   UNL     1      -6.061   0.142 130.218  0.00  0.00    +0.000 A 
ENDBRANCH  27  38
ENDBRANCH  24  26
ENDBRANCH   3  24
TORSDOF 6
ENDMDL
MODEL 7
REMARK VINA RESULT:     -10.5      3.058      8.891
REMARK  Name = Umbralisib
REMARK  9 active torsions:
REMARK  status: ('A' for Active; 'I' for Inactive)
REMARK    1  A    between atoms: C_1  and  C_2
REMARK    2  A    between atoms: C_2  and  C_3
REMARK    3  A    between atoms: C_2  and  O_4
REMARK    4  A    between atoms: O_4  and  C_5
REMARK    5  A    between atoms: C_9  and  C_12
REMARK    6  A    between atoms: N_14  and  C_15
REMARK    7  A    between atoms: C_15  and  C_16
REMARK    8  A    between atoms: C_15  and  C_17
REMARK    9  A    between atoms: C_18  and  C_19
REMARK                            x       y       z     vdW  Elec       q    Type
REMARK                         _______ _______ _______ _____ _____    ______ ____
ROOT
ATOM      1  C   UNL     1      -5.256   0.932 128.074  0.00  0.00    +0.000 A 
ATOM      2  N   UNL     1      -4.821   2.209 128.174  0.00  0.00    +0.000 NA
ATOM      3  N   UNL     1      -4.229   2.321 129.458  0.00  0.00    +0.000 N 
ATOM      4  C   UNL     1      -4.313   1.133 130.114  0.00  0.00    +0.000 A 
ATOM      5  C   UNL     1      -4.876   0.203 129.239  0.00  0.00    +0.000 A 
ATOM      6  C   UNL     1      -4.916  -1.135 129.662  0.00  0.00    +0.000 A 
ATOM      7  N   UNL     1      -5.389  -2.189 128.910  0.00  0.00    +0.000 N 
ATOM      8  N   UNL     1      -4.432  -1.419 130.888  0.00  0.00    +0.000 NA
ATOM      9  C   UNL     1      -3.958  -0.410 131.649  0.00  0.00    +0.000 A 
ATOM     10  N   UNL     1      -3.871   0.893 131.349  0.00  0.00    +0.000 NA
ATOM     11  H   UNL     1      -5.639  -2.094 127.939  0.00  0.00    +0.000 HD
ATOM     12  H   UNL     1      -5.289  -3.118 129.292  0.00  0.00    +0.000 HD
ENDROOT
BRANCH   1  17
ATOM     13  C   UNL     1      -7.454  -1.019 124.837  0.00  0.00    +0.000 A 
ATOM     14  C   UNL     1      -8.075  -0.321 125.869  0.00  0.00    +0.000 A 
ATOM     15  F   UNL     1      -9.379  -0.479 126.128  0.00  0.00    +0.000 F 
ATOM     16  C   UNL     1      -7.362   0.436 126.806  0.00  0.00    +0.000 A 
ATOM     17  C   UNL     1      -5.966   0.358 126.890  0.00  0.00    +0.000 A 
ATOM     18  C   UNL     1      -5.329  -0.462 125.943  0.00  0.00    +0.000 A 
ATOM     19  C   UNL     1      -6.061  -1.129 124.918  0.00  0.00    +0.000 A 
BRANCH  13  20
ATOM     20  O   UNL     1      -8.129  -1.721 123.865  0.00  0.00    +0.000 OA
BRANCH  20  22
ATOM     21  C   UNL     1      -9.764  -3.353 123.108  0.00  0.00    +0.000 C 
ATOM     22  C   UNL     1      -8.930  -2.854 124.300  0.00  0.00    +0.000 C 
ATOM     23  C   UNL     1      -8.125  -4.063 124.770  0.00  0.00    +0.000 C 
ENDBRANCH  20  22
ENDBRANCH  13  20
ENDBRANCH   1  17
BRANCH   3  24
ATOM     24  C   UNL     1      -3.795   3.730 129.978  0.00  0.00    +0.000 C 
ATOM     25  C   UNL     1      -2.893   4.080 128.665  0.00  0.00    +0.000 C 
BRANCH  24  26
ATOM     26  C   UNL     1      -4.881   5.060 130.502  0.00  0.00    +0.000 A 
ATOM     27  C   UNL     1      -5.445   4.576 131.602  0.00  0.00    +0.000 A 
ATOM     28  C   UNL     1      -5.707   5.848 132.294  0.00  0.00    +0.000 A 
ATOM     29  O   UNL     1      -4.971   6.760 132.584  0.00  0.00    +0.000 OA
ATOM     30  C   UNL     1      -7.075   6.107 132.146  0.00  0.00    +0.000 A 
ATOM     31  C   UNL     1      -8.002   5.368 132.898  0.00  0.00    +0.000 A 
ATOM     32  C   UNL     1      -9.334   5.537 132.695  0.00  0.00    +0.000 A 
ATOM     33  F   UNL     1     -10.202   4.870 133.468  0.00  0.00    +0.000 F 
ATOM     34  C   UNL     1      -9.689   6.482 131.752  0.00  0.00    +0.000 A 
ATOM     35  C   UNL     1      -8.690   6.978 130.772  0.00  0.00    +0.000 A 
ATOM     36  C   UNL     1      -7.286   6.658 130.909  0.00  0.00    +0.000 A 
ATOM     37  O   UNL     1      -6.152   6.023 129.830  0.00  0.00    +0.000 OA
BRANCH  27  38
ATOM     38  C   UNL     1      -6.528   3.547 131.220  0.00  0.00    +0.000 A 
ATOM     39  C   UNL     1      -6.733   2.613 132.219  0.00  0.00    +0.000 A 
ATOM     40  C   UNL     1      -7.464   1.459 131.989  0.00  0.00    +0.000 A 
ATOM     41  C   UNL     1      -8.296   1.379 130.885  0.00  0.00    +0.000 A 
ATOM     42  C   UNL     1      -8.275   2.398 129.953  0.00  0.00    +0.000 A 
ATOM     43  F   UNL     1      -9.194   2.423 128.979  0.00  0.00    +0.000 F 
ATOM     44  C   UNL     1      -7.330   3.417 130.049  0.00  0.00    +0.000 A 
ENDBRANCH  27  38
ENDBRANCH  24  26
ENDBRANCH   3  24
TORSDOF 6
ENDMDL
MODEL 8
REMARK VINA RESULT:     -10.4      4.092      5.214
REMARK  Name = Umbralisib
REMARK  9 active torsions:
REMARK  status: ('A' for Active; 'I' for Inactive)
REMARK    1  A    between atoms: C_1  and  C_2
REMARK    2  A    between atoms: C_2  and  C_3
REMARK    3  A    between atoms: C_2  and  O_4
REMARK    4  A    between atoms: O_4  and  C_5
REMARK    5  A    between atoms: C_9  and  C_12
REMARK    6  A    between atoms: N_14  and  C_15
REMARK    7  A    between atoms: C_15  and  C_16
REMARK    8  A    between atoms: C_15  and  C_17
REMARK    9  A    between atoms: C_18  and  C_19
REMARK                            x       y       z     vdW  Elec       q    Type
REMARK                         _______ _______ _______ _____ _____    ______ ____
ROOT
ATOM      1  C   UNL     1      -6.134   4.724 130.391  0.00  0.00    +0.000 A 
ATOM      2  N   UNL     1      -5.697   4.217 129.216  0.00  0.00    +0.000 NA
ATOM      3  N   UNL     1      -6.800   3.525 128.653  0.00  0.00    +0.000 N 
ATOM      4  C   UNL     1      -7.875   3.615 129.481  0.00  0.00    +0.000 A 
ATOM      5  C   UNL     1      -7.522   4.439 130.549  0.00  0.00    +0.000 A 
ATOM      6  C   UNL     1      -8.539   4.792 131.451  0.00  0.00    +0.000 A 
ATOM      7  N   UNL     1      -8.381   5.635 132.531  0.00  0.00    +0.000 N 
ATOM      8  N   UNL     1      -9.771   4.291 131.235  0.00  0.00    +0.000 NA
ATOM      9  C   UNL     1      -9.960   3.464 130.184  0.00  0.00    +0.000 A 
ATOM     10  N   UNL     1      -9.070   3.063 129.265  0.00  0.00    +0.000 NA
ATOM     11  H   UNL     1      -7.538   6.163 132.689  0.00  0.00    +0.000 HD
ATOM     12  H   UNL     1      -9.206   5.878 133.059  0.00  0.00    +0.000 HD
ENDROOT
BRANCH   1  17
ATOM     13  C   UNL     1      -3.406   6.976 132.960  0.00  0.00    +0.000 A 
ATOM     14  C   UNL     1      -3.820   7.423 131.709  0.00  0.00    +0.000 A 
ATOM     15  F   UNL     1      -3.160   8.396 131.066  0.00  0.00    +0.000 F 
ATOM     16  C   UNL     1      -4.816   6.778 130.967  0.00  0.00    +0.000 A 
ATOM     17  C   UNL     1      -5.302   5.520 131.344  0.00  0.00    +0.000 A 
ATOM     18  C   UNL     1      -4.784   4.983 132.536  0.00  0.00    +0.000 A 
ATOM     19  C   UNL     1      -3.861   5.708 133.344  0.00  0.00    +0.000 A 
BRANCH  13  20
ATOM     20  O   UNL     1      -2.474   7.621 133.741  0.00  0.00    +0.000 OA
BRANCH  20  22
ATOM     21  C   UNL     1      -0.299   7.186 132.748  0.00  0.00    +0.000 C 
ATOM     22  C   UNL     1      -1.208   6.940 133.963  0.00  0.00    +0.000 C 
ATOM     23  C   UNL     1      -0.419   7.435 135.172  0.00  0.00    +0.000 C 
ENDBRANCH  20  22
ENDBRANCH  13  20
ENDBRANCH   1  17
BRANCH   3  24
ATOM     24  C   UNL     1      -6.582   2.651 127.376  0.00  0.00    +0.000 C 
ATOM     25  C   UNL     1      -5.031   3.110 127.168  0.00  0.00    +0.000 C 
BRANCH  24  26
ATOM     26  C   UNL     1      -6.852   0.881 127.230  0.00  0.00    +0.000 A 
ATOM     27  C   UNL     1      -6.488   0.622 125.980  0.00  0.00    +0.000 A 
ATOM     28  C   UNL     1      -6.073  -0.779 126.157  0.00  0.00    +0.000 A 
ATOM     29  O   UNL     1      -5.284  -1.281 126.921  0.00  0.00    +0.000 OA
ATOM     30  C   UNL     1      -7.103  -1.569 125.635  0.00  0.00    +0.000 A 
ATOM     31  C   UNL     1      -7.259  -1.666 124.243  0.00  0.00    +0.000 A 
ATOM     32  C   UNL     1      -8.312  -2.348 123.721  0.00  0.00    +0.000 A 
ATOM     33  F   UNL     1      -8.407  -2.483 122.391  0.00  0.00    +0.000 F 
ATOM     34  C   UNL     1      -9.162  -2.943 124.633  0.00  0.00    +0.000 A 
ATOM     35  C   UNL     1      -9.138  -2.534 126.061  0.00  0.00    +0.000 A 
ATOM     36  C   UNL     1      -8.095  -1.674 126.575  0.00  0.00    +0.000 A 
ATOM     37  O   UNL     1      -8.138  -0.249 127.481  0.00  0.00    +0.000 OA
BRANCH  27  38
ATOM     38  C   UNL     1      -7.591   1.092 125.009  0.00  0.00    +0.000 A 
ATOM     39  C   UNL     1      -7.074   1.493 123.791  0.00  0.00    +0.000 A 
ATOM     40  C   UNL     1      -7.847   2.187 122.874  0.00  0.00    +0.000 A 
ATOM     41  C   UNL     1      -9.226   2.186 122.993  0.00  0.00    +0.000 A 
ATOM     42  C   UNL     1      -9.804   1.609 124.108  0.00  0.00    +0.000 A 
ATOM     43  F   UNL     1     -11.132   1.441 124.153  0.00  0.00    +0.000 F 
ATOM     44  C   UNL     1      -9.007   1.165 125.160  0.00  0.00    +0.000 A 
ENDBRANCH  27  38
ENDBRANCH  24  26
ENDBRANCH   3  24
TORSDOF 6
ENDMDL
MODEL 9
REMARK VINA RESULT:     -10.4      4.819      9.580
REMARK  Name = Umbralisib
REMARK  9 active torsions:
REMARK  status: ('A' for Active; 'I' for Inactive)
REMARK    1  A    between atoms: C_1  and  C_2
REMARK    2  A    between atoms: C_2  and  C_3
REMARK    3  A    between atoms: C_2  and  O_4
REMARK    4  A    between atoms: O_4  and  C_5
REMARK    5  A    between atoms: C_9  and  C_12
REMARK    6  A    between atoms: N_14  and  C_15
REMARK    7  A    between atoms: C_15  and  C_16
REMARK    8  A    between atoms: C_15  and  C_17
REMARK    9  A    between atoms: C_18  and  C_19
REMARK                            x       y       z     vdW  Elec       q    Type
REMARK                         _______ _______ _______ _____ _____    ______ ____
ROOT
ATOM      1  C   UNL     1      -6.451  -0.778 130.162  0.00  0.00    +0.000 A 
ATOM      2  N   UNL     1      -6.719   0.320 130.906  0.00  0.00    +0.000 NA
ATOM      3  N   UNL     1      -5.647   0.439 131.827  0.00  0.00    +0.000 N 
ATOM      4  C   UNL     1      -4.757  -0.572 131.638  0.00  0.00    +0.000 A 
ATOM      5  C   UNL     1      -5.184  -1.313 130.536  0.00  0.00    +0.000 A 
ATOM      6  C   UNL     1      -4.325  -2.321 130.069  0.00  0.00    +0.000 A 
ATOM      7  N   UNL     1      -4.561  -3.113 128.965  0.00  0.00    +0.000 N 
ATOM      8  N   UNL     1      -3.167  -2.516 130.731  0.00  0.00    +0.000 NA
ATOM      9  C   UNL     1      -2.904  -1.754 131.815  0.00  0.00    +0.000 A 
ATOM     10  N   UNL     1      -3.643  -0.771 132.345  0.00  0.00    +0.000 NA
ATOM     11  H   UNL     1      -5.327  -2.948 128.332  0.00  0.00    +0.000 HD
ATOM     12  H   UNL     1      -3.830  -3.748 128.680  0.00  0.00    +0.000 HD
ENDROOT
BRANCH   1  17
ATOM     13  C   UNL     1      -8.722  -2.559 126.878  0.00  0.00    +0.000 A 
ATOM     14  C   UNL     1      -8.486  -3.211 128.085  0.00  0.00    +0.000 A 
ATOM     15  F   UNL     1      -8.644  -4.536 128.200  0.00  0.00    +0.000 F 
ATOM     16  C   UNL     1      -7.902  -2.575 129.187  0.00  0.00    +0.000 A 
ATOM     17  C   UNL     1      -7.322  -1.305 129.068  0.00  0.00    +0.000 A 
ATOM     18  C   UNL     1      -7.422  -0.689 127.809  0.00  0.00    +0.000 A 
ATOM     19  C   UNL     1      -8.128  -1.299 126.732  0.00  0.00    +0.000 A 
BRANCH  13  20
ATOM     20  O   UNL     1      -9.350  -3.136 125.798  0.00  0.00    +0.000 OA
BRANCH  20  22
ATOM     21  C   UNL     1      -7.506  -3.882 124.400  0.00  0.00    +0.000 C 
ATOM     22  C   UNL     1      -8.729  -2.955 124.495  0.00  0.00    +0.000 C 
ATOM     23  C   UNL     1      -9.615  -3.324 123.308  0.00  0.00    +0.000 C 
ENDBRANCH  20  22
ENDBRANCH  13  20
ENDBRANCH   1  17
BRANCH   3  24
ATOM     24  C   UNL     1      -5.738   1.498 132.973  0.00  0.00    +0.000 C 
ATOM     25  C   UNL     1      -6.023   0.398 134.144  0.00  0.00    +0.000 C 
BRANCH  24  26
ATOM     26  C   UNL     1      -4.497   2.724 133.401  0.00  0.00    +0.000 A 
ATOM     27  C   UNL     1      -5.029   3.858 132.963  0.00  0.00    +0.000 A 
ATOM     28  C   UNL     1      -4.383   4.784 133.908  0.00  0.00    +0.000 A 
ATOM     29  O   UNL     1      -4.351   4.791 135.114  0.00  0.00    +0.000 OA
ATOM     30  C   UNL     1      -3.354   5.419 133.202  0.00  0.00    +0.000 A 
ATOM     31  C   UNL     1      -3.674   6.412 132.262  0.00  0.00    +0.000 A 
ATOM     32  C   UNL     1      -2.697   6.968 131.499  0.00  0.00    +0.000 A 
ATOM     33  F   UNL     1      -3.014   7.958 130.654  0.00  0.00    +0.000 F 
ATOM     34  C   UNL     1      -1.412   6.521 131.737  0.00  0.00    +0.000 A 
ATOM     35  C   UNL     1      -1.182   5.260 132.488  0.00  0.00    +0.000 A 
ATOM     36  C   UNL     1      -2.266   4.587 133.169  0.00  0.00    +0.000 A 
ATOM     37  O   UNL     1      -2.806   2.987 133.145  0.00  0.00    +0.000 OA
BRANCH  27  38
ATOM     38  C   UNL     1      -4.894   3.937 131.429  0.00  0.00    +0.000 A 
ATOM     39  C   UNL     1      -5.916   4.671 130.854  0.00  0.00    +0.000 A 
ATOM     40  C   UNL     1      -6.135   4.653 129.486  0.00  0.00    +0.000 A 
ATOM     41  C   UNL     1      -5.141   4.200 128.635  0.00  0.00    +0.000 A 
ATOM     42  C   UNL     1      -3.999   3.639 129.173  0.00  0.00    +0.000 A 
ATOM     43  F   UNL     1      -2.959   3.361 128.376  0.00  0.00    +0.000 F 
ATOM     44  C   UNL     1      -3.913   3.404 130.543  0.00  0.00    +0.000 A 
ENDBRANCH  27  38
ENDBRANCH  24  26
ENDBRANCH   3  24
TORSDOF 6
ENDMDL
