MODEL 1
REMARK VINA RESULT:      -9.5      0.000      0.000
REMARK  Name = Umeclidinium
REMARK  9 active torsions:
REMARK  status: ('A' for Active; 'I' for Inactive)
REMARK    1  A    between atoms: O_1  and  C_2
REMARK    2  A    between atoms: C_2  and  C_3
REMARK    3  A    between atoms: C_2  and  C_9
REMARK    4  A    between atoms: C_2  and  C_15
REMARK    5  A    between atoms: N_18  and  C_19
REMARK    6  A    between atoms: C_19  and  C_20
REMARK    7  A    between atoms: C_20  and  O_21
REMARK    8  A    between atoms: O_21  and  C_22
REMARK    9  A    between atoms: C_22  and  C_23
REMARK                            x       y       z     vdW  Elec       q    Type
REMARK                         _______ _______ _______ _____ _____    ______ ____
ROOT
ATOM      1  C   UNL     1      -7.833   0.081 125.430  0.00  0.00    +0.000 C 
ATOM      2  C   UNL     1      -8.396   0.867 124.227  0.00  0.00    +0.000 C 
ATOM      3  C   UNL     1      -8.120   2.340 124.286  0.00  0.00    +0.000 C 
ATOM      4  N   UNL     1      -7.296   2.645 125.520  0.00  0.00    +0.000 N 
ATOM      5  C   UNL     1      -5.997   1.832 125.524  0.00  0.00    +0.000 C 
ATOM      6  C   UNL     1      -6.307   0.350 125.469  0.00  0.00    +0.000 C 
ATOM      7  C   UNL     1      -8.116   2.268 126.744  0.00  0.00    +0.000 C 
ATOM      8  C   UNL     1      -8.428   0.781 126.686  0.00  0.00    +0.000 C 
ENDROOT
BRANCH   1   9
ATOM      9  C   UNL     1      -8.114  -1.496 125.324  0.00  0.00    +0.000 C 
BRANCH   9  10
ATOM     10  C   UNL     1      -8.347  -2.204 126.677  0.00  0.00    +0.000 A 
ATOM     11  C   UNL     1      -7.663  -1.769 127.834  0.00  0.00    +0.000 A 
ATOM     12  C   UNL     1      -7.618  -2.548 128.991  0.00  0.00    +0.000 A 
ATOM     13  C   UNL     1      -8.397  -3.685 129.079  0.00  0.00    +0.000 A 
ATOM     14  C   UNL     1      -9.214  -4.049 128.016  0.00  0.00    +0.000 A 
ATOM     15  C   UNL     1      -9.198  -3.297 126.841  0.00  0.00    +0.000 A 
ENDBRANCH   9  10
BRANCH   9  16
ATOM     16  C   UNL     1      -7.020  -2.114 124.429  0.00  0.00    +0.000 A 
ATOM     17  C   UNL     1      -6.057  -3.002 124.966  0.00  0.00    +0.000 A 
ATOM     18  C   UNL     1      -5.010  -3.508 124.205  0.00  0.00    +0.000 A 
ATOM     19  C   UNL     1      -4.903  -3.133 122.879  0.00  0.00    +0.000 A 
ATOM     20  C   UNL     1      -5.811  -2.229 122.328  0.00  0.00    +0.000 A 
ATOM     21  C   UNL     1      -6.859  -1.717 123.097  0.00  0.00    +0.000 A 
ENDBRANCH   9  16
BRANCH   9  22
ATOM     22  O   UNL     1      -9.387  -1.638 124.659  0.00  0.00    +0.000 OA
ATOM     23  H   UNL     1      -9.304  -1.176 123.803  0.00  0.00    +0.000 HD
ENDBRANCH   9  22
ENDBRANCH   1   9
BRANCH   4  24
ATOM     24  C   UNL     1      -6.997   4.141 125.570  0.00  0.00    +0.000 C 
BRANCH  24  25
ATOM     25  C   UNL     1      -5.645   4.438 124.938  0.00  0.00    +0.000 C 
BRANCH  25  26
ATOM     26  O   UNL     1      -5.810   4.973 123.649  0.00  0.00    +0.000 OA
BRANCH  26  27
ATOM     27  C   UNL     1      -5.038   4.180 122.753  0.00  0.00    +0.000 C 
BRANCH  27  28
ATOM     28  C   UNL     1      -5.596   4.331 121.386  0.00  0.00    +0.000 A 
ATOM     29  C   UNL     1      -4.932   5.131 120.453  0.00  0.00    +0.000 A 
ATOM     30  C   UNL     1      -5.551   5.433 119.248  0.00  0.00    +0.000 A 
ATOM     31  C   UNL     1      -6.799   4.884 118.949  0.00  0.00    +0.000 A 
ATOM     32  C   UNL     1      -7.433   4.034 119.853  0.00  0.00    +0.000 A 
ATOM     33  C   UNL     1      -6.835   3.760 121.074  0.00  0.00    +0.000 A 
ENDBRANCH  27  28
ENDBRANCH  26  27
ENDBRANCH  25  26
ENDBRANCH  24  25
ENDBRANCH   4  24
TORSDOF 9
ENDMDL
MODEL 2
REMARK VINA RESULT:      -9.0      3.353      5.524
REMARK  Name = Umeclidinium
REMARK  9 active torsions:
REMARK  status: ('A' for Active; 'I' for Inactive)
REMARK    1  A    between atoms: O_1  and  C_2
REMARK    2  A    between atoms: C_2  and  C_3
REMARK    3  A    between atoms: C_2  and  C_9
REMARK    4  A    between atoms: C_2  and  C_15
REMARK    5  A    between atoms: N_18  and  C_19
REMARK    6  A    between atoms: C_19  and  C_20
REMARK    7  A    between atoms: C_20  and  O_21
REMARK    8  A    between atoms: O_21  and  C_22
REMARK    9  A    between atoms: C_22  and  C_23
REMARK                            x       y       z     vdW  Elec       q    Type
REMARK                         _______ _______ _______ _____ _____    ______ ____
ROOT
ATOM      1  C   UNL     1      -7.847   0.112 125.951  0.00  0.00    +0.000 C 
ATOM      2  C   UNL     1      -8.374   0.509 127.346  0.00  0.00    +0.000 C 
ATOM      3  C   UNL     1      -8.263   1.976 127.639  0.00  0.00    +0.000 C 
ATOM      4  N   UNL     1      -7.697   2.686 126.427  0.00  0.00    +0.000 N 
ATOM      5  C   UNL     1      -8.562   2.426 125.189  0.00  0.00    +0.000 C 
ATOM      6  C   UNL     1      -8.651   0.939 124.916  0.00  0.00    +0.000 C 
ATOM      7  C   UNL     1      -6.298   2.147 126.171  0.00  0.00    +0.000 C 
ATOM      8  C   UNL     1      -6.389   0.655 125.899  0.00  0.00    +0.000 C 
ENDROOT
BRANCH   1   9
ATOM      9  C   UNL     1      -8.008  -1.456 125.652  0.00  0.00    +0.000 C 
BRANCH   9  10
ATOM     10  C   UNL     1      -8.062  -2.353 126.908  0.00  0.00    +0.000 A 
ATOM     11  C   UNL     1      -8.998  -3.408 126.989  0.00  0.00    +0.000 A 
ATOM     12  C   UNL     1      -9.278  -4.043 128.199  0.00  0.00    +0.000 A 
ATOM     13  C   UNL     1      -8.506  -3.766 129.311  0.00  0.00    +0.000 A 
ATOM     14  C   UNL     1      -7.464  -2.853 129.219  0.00  0.00    +0.000 A 
ATOM     15  C   UNL     1      -7.240  -2.176 128.021  0.00  0.00    +0.000 A 
ENDBRANCH   9  10
BRANCH   9  16
ATOM     16  C   UNL     1      -6.952  -1.849 124.598  0.00  0.00    +0.000 A 
ATOM     17  C   UNL     1      -7.146  -1.550 123.227  0.00  0.00    +0.000 A 
ATOM     18  C   UNL     1      -6.255  -1.965 122.246  0.00  0.00    +0.000 A 
ATOM     19  C   UNL     1      -5.141  -2.695 122.616  0.00  0.00    +0.000 A 
ATOM     20  C   UNL     1      -4.940  -3.042 123.952  0.00  0.00    +0.000 A 
ATOM     21  C   UNL     1      -5.840  -2.628 124.937  0.00  0.00    +0.000 A 
ENDBRANCH   9  16
BRANCH   9  22
ATOM     22  O   UNL     1      -9.319  -1.626 125.073  0.00  0.00    +0.000 OA
ATOM     23  H   UNL     1      -9.867  -2.060 125.754  0.00  0.00    +0.000 HD
ENDBRANCH   9  22
ENDBRANCH   1   9
BRANCH   4  24
ATOM     24  C   UNL     1      -7.603   4.182 126.717  0.00  0.00    +0.000 C 
BRANCH  24  25
ATOM     25  C   UNL     1      -8.067   4.483 128.134  0.00  0.00    +0.000 C 
BRANCH  25  26
ATOM     26  O   UNL     1      -9.009   5.526 128.132  0.00  0.00    +0.000 OA
BRANCH  26  27
ATOM     27  C   UNL     1      -9.456   5.703 129.473  0.00  0.00    +0.000 C 
BRANCH  27  28
ATOM     28  C   UNL     1     -10.619   6.625 129.466  0.00  0.00    +0.000 A 
ATOM     29  C   UNL     1     -10.670   7.664 128.534  0.00  0.00    +0.000 A 
ATOM     30  C   UNL     1     -11.650   8.640 128.652  0.00  0.00    +0.000 A 
ATOM     31  C   UNL     1     -12.614   8.542 129.657  0.00  0.00    +0.000 A 
ATOM     32  C   UNL     1     -12.601   7.470 130.547  0.00  0.00    +0.000 A 
ATOM     33  C   UNL     1     -11.601   6.513 130.456  0.00  0.00    +0.000 A 
ENDBRANCH  27  28
ENDBRANCH  26  27
ENDBRANCH  25  26
ENDBRANCH  24  25
ENDBRANCH   4  24
TORSDOF 9
ENDMDL
MODEL 3
REMARK VINA RESULT:      -8.8      4.548      6.319
REMARK  Name = Umeclidinium
REMARK  9 active torsions:
REMARK  status: ('A' for Active; 'I' for Inactive)
REMARK    1  A    between atoms: O_1  and  C_2
REMARK    2  A    between atoms: C_2  and  C_3
REMARK    3  A    between atoms: C_2  and  C_9
REMARK    4  A    between atoms: C_2  and  C_15
REMARK    5  A    between atoms: N_18  and  C_19
REMARK    6  A    between atoms: C_19  and  C_20
REMARK    7  A    between atoms: C_20  and  O_21
REMARK    8  A    between atoms: O_21  and  C_22
REMARK    9  A    between atoms: C_22  and  C_23
REMARK                            x       y       z     vdW  Elec       q    Type
REMARK                         _______ _______ _______ _____ _____    ______ ____
ROOT
ATOM      1  C   UNL     1      -7.002  -0.302 128.108  0.00  0.00    +0.000 C 
ATOM      2  C   UNL     1      -8.044   0.398 127.210  0.00  0.00    +0.000 C 
ATOM      3  C   UNL     1      -8.573   1.679 127.783  0.00  0.00    +0.000 C 
ATOM      4  N   UNL     1      -7.877   1.963 129.098  0.00  0.00    +0.000 N 
ATOM      5  C   UNL     1      -6.357   2.019 128.909  0.00  0.00    +0.000 C 
ATOM      6  C   UNL     1      -5.852   0.712 128.334  0.00  0.00    +0.000 C 
ATOM      7  C   UNL     1      -8.211   0.837 130.065  0.00  0.00    +0.000 C 
ATOM      8  C   UNL     1      -7.705  -0.474 129.486  0.00  0.00    +0.000 C 
ENDROOT
BRANCH   1   9
ATOM      9  C   UNL     1      -6.430  -1.652 127.455  0.00  0.00    +0.000 C 
BRANCH   9  10
ATOM     10  C   UNL     1      -7.385  -2.345 126.459  0.00  0.00    +0.000 A 
ATOM     11  C   UNL     1      -6.969  -2.595 125.132  0.00  0.00    +0.000 A 
ATOM     12  C   UNL     1      -7.882  -2.943 124.135  0.00  0.00    +0.000 A 
ATOM     13  C   UNL     1      -9.190  -3.224 124.476  0.00  0.00    +0.000 A 
ATOM     14  C   UNL     1      -9.591  -3.151 125.804  0.00  0.00    +0.000 A 
ATOM     15  C   UNL     1      -8.685  -2.737 126.779  0.00  0.00    +0.000 A 
ENDBRANCH   9  10
BRANCH   9  16
ATOM     16  C   UNL     1      -5.897  -2.542 128.597  0.00  0.00    +0.000 A 
ATOM     17  C   UNL     1      -4.506  -2.667 128.833  0.00  0.00    +0.000 A 
ATOM     18  C   UNL     1      -3.993  -3.526 129.798  0.00  0.00    +0.000 A 
ATOM     19  C   UNL     1      -4.867  -4.285 130.553  0.00  0.00    +0.000 A 
ATOM     20  C   UNL     1      -6.241  -4.217 130.320  0.00  0.00    +0.000 A 
ATOM     21  C   UNL     1      -6.754  -3.356 129.345  0.00  0.00    +0.000 A 
ENDBRANCH   9  16
BRANCH   9  22
ATOM     22  O   UNL     1      -5.318  -1.260 126.622  0.00  0.00    +0.000 OA
ATOM     23  H   UNL     1      -5.237  -1.943 125.931  0.00  0.00    +0.000 HD
ENDBRANCH   9  22
ENDBRANCH   1   9
BRANCH   4  24
ATOM     24  C   UNL     1      -8.399   3.277 129.672  0.00  0.00    +0.000 C 
BRANCH  24  25
ATOM     25  C   UNL     1      -7.915   4.455 128.840  0.00  0.00    +0.000 C 
BRANCH  25  26
ATOM     26  O   UNL     1      -8.995   5.279 128.478  0.00  0.00    +0.000 OA
BRANCH  26  27
ATOM     27  C   UNL     1      -9.705   5.603 129.670  0.00  0.00    +0.000 C 
BRANCH  27  28
ATOM     28  C   UNL     1     -10.782   6.566 129.330  0.00  0.00    +0.000 A 
ATOM     29  C   UNL     1     -12.118   6.197 129.502  0.00  0.00    +0.000 A 
ATOM     30  C   UNL     1     -13.123   7.014 129.001  0.00  0.00    +0.000 A 
ATOM     31  C   UNL     1     -12.796   8.226 128.393  0.00  0.00    +0.000 A 
ATOM     32  C   UNL     1     -11.466   8.626 128.280  0.00  0.00    +0.000 A 
ATOM     33  C   UNL     1     -10.457   7.795 128.744  0.00  0.00    +0.000 A 
ENDBRANCH  27  28
ENDBRANCH  26  27
ENDBRANCH  25  26
ENDBRANCH  24  25
ENDBRANCH   4  24
TORSDOF 9
ENDMDL
MODEL 4
REMARK VINA RESULT:      -8.7      2.245      3.653
REMARK  Name = Umeclidinium
REMARK  9 active torsions:
REMARK  status: ('A' for Active; 'I' for Inactive)
REMARK    1  A    between atoms: O_1  and  C_2
REMARK    2  A    between atoms: C_2  and  C_3
REMARK    3  A    between atoms: C_2  and  C_9
REMARK    4  A    between atoms: C_2  and  C_15
REMARK    5  A    between atoms: N_18  and  C_19
REMARK    6  A    between atoms: C_19  and  C_20
REMARK    7  A    between atoms: C_20  and  O_21
REMARK    8  A    between atoms: O_21  and  C_22
REMARK    9  A    between atoms: C_22  and  C_23
REMARK                            x       y       z     vdW  Elec       q    Type
REMARK                         _______ _______ _______ _____ _____    ______ ____
ROOT
ATOM      1  C   UNL     1      -6.716  -0.354 127.669  0.00  0.00    +0.000 C 
ATOM      2  C   UNL     1      -7.916   0.490 127.187  0.00  0.00    +0.000 C 
ATOM      3  C   UNL     1      -7.570   1.920 126.896  0.00  0.00    +0.000 C 
ATOM      4  N   UNL     1      -6.085   2.128 127.111  0.00  0.00    +0.000 N 
ATOM      5  C   UNL     1      -5.267   1.166 126.242  0.00  0.00    +0.000 C 
ATOM      6  C   UNL     1      -5.634  -0.268 126.563  0.00  0.00    +0.000 C 
ATOM      7  C   UNL     1      -5.774   1.855 128.575  0.00  0.00    +0.000 C 
ATOM      8  C   UNL     1      -6.145   0.416 128.894  0.00  0.00    +0.000 C 
ENDROOT
BRANCH   1   9
ATOM      9  C   UNL     1      -7.108  -1.887 127.941  0.00  0.00    +0.000 C 
BRANCH   9  10
ATOM     10  C   UNL     1      -6.042  -2.701 128.706  0.00  0.00    +0.000 A 
ATOM     11  C   UNL     1      -6.421  -3.540 129.778  0.00  0.00    +0.000 A 
ATOM     12  C   UNL     1      -5.480  -4.055 130.669  0.00  0.00    +0.000 A 
ATOM     13  C   UNL     1      -4.133  -3.896 130.407  0.00  0.00    +0.000 A 
ATOM     14  C   UNL     1      -3.725  -3.218 129.265  0.00  0.00    +0.000 A 
ATOM     15  C   UNL     1      -4.678  -2.650 128.420  0.00  0.00    +0.000 A 
ENDBRANCH   9  10
BRANCH   9  16
ATOM     16  C   UNL     1      -7.584  -2.499 126.607  0.00  0.00    +0.000 A 
ATOM     17  C   UNL     1      -6.658  -2.834 125.589  0.00  0.00    +0.000 A 
ATOM     18  C   UNL     1      -7.062  -3.307 124.347  0.00  0.00    +0.000 A 
ATOM     19  C   UNL     1      -8.412  -3.456 124.093  0.00  0.00    +0.000 A 
ATOM     20  C   UNL     1      -9.353  -3.099 125.058  0.00  0.00    +0.000 A 
ATOM     21  C   UNL     1      -8.945  -2.618 126.305  0.00  0.00    +0.000 A 
ENDBRANCH   9  16
BRANCH   9  22
ATOM     22  O   UNL     1      -8.221  -1.864 128.859  0.00  0.00    +0.000 OA
ATOM     23  H   UNL     1      -8.124  -2.648 129.431  0.00  0.00    +0.000 HD
ENDBRANCH   9  22
ENDBRANCH   1   9
BRANCH   4  24
ATOM     24  C   UNL     1      -5.728   3.578 126.795  0.00  0.00    +0.000 C 
BRANCH  24  25
ATOM     25  C   UNL     1      -5.276   3.716 125.349  0.00  0.00    +0.000 C 
BRANCH  25  26
ATOM     26  O   UNL     1      -6.337   4.164 124.542  0.00  0.00    +0.000 OA
BRANCH  26  27
ATOM     27  C   UNL     1      -6.275   3.445 123.314  0.00  0.00    +0.000 C 
BRANCH  27  28
ATOM     28  C   UNL     1      -7.335   2.405 123.323  0.00  0.00    +0.000 A 
ATOM     29  C   UNL     1      -8.671   2.781 123.476  0.00  0.00    +0.000 A 
ATOM     30  C   UNL     1      -9.637   1.806 123.684  0.00  0.00    +0.000 A 
ATOM     31  C   UNL     1      -9.278   0.458 123.671  0.00  0.00    +0.000 A 
ATOM     32  C   UNL     1      -7.955   0.079 123.454  0.00  0.00    +0.000 A 
ATOM     33  C   UNL     1      -6.981   1.051 123.285  0.00  0.00    +0.000 A 
ENDBRANCH  27  28
ENDBRANCH  26  27
ENDBRANCH  25  26
ENDBRANCH  24  25
ENDBRANCH   4  24
TORSDOF 9
ENDMDL
MODEL 5
REMARK VINA RESULT:      -8.6      3.754      6.606
REMARK  Name = Umeclidinium
REMARK  9 active torsions:
REMARK  status: ('A' for Active; 'I' for Inactive)
REMARK    1  A    between atoms: O_1  and  C_2
REMARK    2  A    between atoms: C_2  and  C_3
REMARK    3  A    between atoms: C_2  and  C_9
REMARK    4  A    between atoms: C_2  and  C_15
REMARK    5  A    between atoms: N_18  and  C_19
REMARK    6  A    between atoms: C_19  and  C_20
REMARK    7  A    between atoms: C_20  and  O_21
REMARK    8  A    between atoms: O_21  and  C_22
REMARK    9  A    between atoms: C_22  and  C_23
REMARK                            x       y       z     vdW  Elec       q    Type
REMARK                         _______ _______ _______ _____ _____    ______ ____
ROOT
ATOM      1  C   UNL     1      -6.661   0.244 126.810  0.00  0.00    +0.000 C 
ATOM      2  C   UNL     1      -5.558   1.242 126.399  0.00  0.00    +0.000 C 
ATOM      3  C   UNL     1      -5.926   2.678 126.627  0.00  0.00    +0.000 C 
ATOM      4  N   UNL     1      -7.297   2.746 127.266  0.00  0.00    +0.000 N 
ATOM      5  C   UNL     1      -7.332   1.945 128.572  0.00  0.00    +0.000 C 
ATOM      6  C   UNL     1      -6.961   0.500 128.309  0.00  0.00    +0.000 C 
ATOM      7  C   UNL     1      -8.304   2.148 126.295  0.00  0.00    +0.000 C 
ATOM      8  C   UNL     1      -7.929   0.699 126.032  0.00  0.00    +0.000 C 
ENDROOT
BRANCH   1   9
ATOM      9  C   UNL     1      -6.228  -1.285 126.586  0.00  0.00    +0.000 C 
BRANCH   9  10
ATOM     10  C   UNL     1      -5.905  -1.658 125.122  0.00  0.00    +0.000 A 
ATOM     11  C   UNL     1      -6.491  -0.936 124.058  0.00  0.00    +0.000 A 
ATOM     12  C   UNL     1      -6.463  -1.415 122.749  0.00  0.00    +0.000 A 
ATOM     13  C   UNL     1      -5.698  -2.525 122.444  0.00  0.00    +0.000 A 
ATOM     14  C   UNL     1      -4.971  -3.160 123.443  0.00  0.00    +0.000 A 
ATOM     15  C   UNL     1      -5.064  -2.709 124.760  0.00  0.00    +0.000 A 
ENDBRANCH   9  10
BRANCH   9  16
ATOM     16  C   UNL     1      -7.269  -2.181 127.287  0.00  0.00    +0.000 A 
ATOM     17  C   UNL     1      -7.114  -2.550 128.646  0.00  0.00    +0.000 A 
ATOM     18  C   UNL     1      -7.989  -3.423 129.281  0.00  0.00    +0.000 A 
ATOM     19  C   UNL     1      -9.046  -3.952 128.565  0.00  0.00    +0.000 A 
ATOM     20  C   UNL     1      -9.206  -3.642 127.215  0.00  0.00    +0.000 A 
ATOM     21  C   UNL     1      -8.322  -2.768 126.577  0.00  0.00    +0.000 A 
ENDBRANCH   9  16
BRANCH   9  22
ATOM     22  O   UNL     1      -4.958  -1.449 127.252  0.00  0.00    +0.000 OA
ATOM     23  H   UNL     1      -4.271  -1.323 126.571  0.00  0.00    +0.000 HD
ENDBRANCH   9  22
ENDBRANCH   1   9
BRANCH   4  24
ATOM     24  C   UNL     1      -7.664   4.206 127.518  0.00  0.00    +0.000 C 
BRANCH  24  25
ATOM     25  C   UNL     1      -8.224   4.383 128.922  0.00  0.00    +0.000 C 
BRANCH  25  26
ATOM     26  O   UNL     1      -9.376   5.187 128.895  0.00  0.00    +0.000 OA
BRANCH  26  27
ATOM     27  C   UNL     1      -9.431   5.900 130.127  0.00  0.00    +0.000 C 
BRANCH  27  28
ATOM     28  C   UNL     1     -10.530   6.895 130.048  0.00  0.00    +0.000 A 
ATOM     29  C   UNL     1     -11.573   6.847 130.975  0.00  0.00    +0.000 A 
ATOM     30  C   UNL     1     -12.694   7.643 130.785  0.00  0.00    +0.000 A 
ATOM     31  C   UNL     1     -12.742   8.532 129.711  0.00  0.00    +0.000 A 
ATOM     32  C   UNL     1     -11.673   8.628 128.822  0.00  0.00    +0.000 A 
ATOM     33  C   UNL     1     -10.568   7.806 128.986  0.00  0.00    +0.000 A 
ENDBRANCH  27  28
ENDBRANCH  26  27
ENDBRANCH  25  26
ENDBRANCH  24  25
ENDBRANCH   4  24
TORSDOF 9
ENDMDL
MODEL 6
REMARK VINA RESULT:      -8.6      1.807      7.754
REMARK  Name = Umeclidinium
REMARK  9 active torsions:
REMARK  status: ('A' for Active; 'I' for Inactive)
REMARK    1  A    between atoms: O_1  and  C_2
REMARK    2  A    between atoms: C_2  and  C_3
REMARK    3  A    between atoms: C_2  and  C_9
REMARK    4  A    between atoms: C_2  and  C_15
REMARK    5  A    between atoms: N_18  and  C_19
REMARK    6  A    between atoms: C_19  and  C_20
REMARK    7  A    between atoms: C_20  and  O_21
REMARK    8  A    between atoms: O_21  and  C_22
REMARK    9  A    between atoms: C_22  and  C_23
REMARK                            x       y       z     vdW  Elec       q    Type
REMARK                         _______ _______ _______ _____ _____    ______ ____
ROOT
ATOM      1  C   UNL     1      -7.832   1.574 124.189  0.00  0.00    +0.000 C 
ATOM      2  C   UNL     1      -8.940   1.390 123.131  0.00  0.00    +0.000 C 
ATOM      3  C   UNL     1      -9.458  -0.015 123.035  0.00  0.00    +0.000 C 
ATOM      4  N   UNL     1      -8.764  -0.874 124.071  0.00  0.00    +0.000 N 
ATOM      5  C   UNL     1      -8.963  -0.299 125.478  0.00  0.00    +0.000 C 
ATOM      6  C   UNL     1      -8.427   1.116 125.546  0.00  0.00    +0.000 C 
ATOM      7  C   UNL     1      -7.277  -0.894 123.753  0.00  0.00    +0.000 C 
ATOM      8  C   UNL     1      -6.742   0.527 123.820  0.00  0.00    +0.000 C 
ENDROOT
BRANCH   1   9
ATOM      9  C   UNL     1      -7.321   3.092 124.293  0.00  0.00    +0.000 C 
BRANCH   9  10
ATOM     10  C   UNL     1      -6.653   3.639 123.013  0.00  0.00    +0.000 A 
ATOM     11  C   UNL     1      -7.286   3.484 121.759  0.00  0.00    +0.000 A 
ATOM     12  C   UNL     1      -6.598   3.694 120.564  0.00  0.00    +0.000 A 
ATOM     13  C   UNL     1      -5.326   4.234 120.594  0.00  0.00    +0.000 A 
ATOM     14  C   UNL     1      -4.740   4.556 121.811  0.00  0.00    +0.000 A 
ATOM     15  C   UNL     1      -5.414   4.277 123.000  0.00  0.00    +0.000 A 
ENDBRANCH   9  10
BRANCH   9  16
ATOM     16  C   UNL     1      -6.491   3.225 125.587  0.00  0.00    +0.000 A 
ATOM     17  C   UNL     1      -6.938   4.040 126.656  0.00  0.00    +0.000 A 
ATOM     18  C   UNL     1      -6.173   4.247 127.798  0.00  0.00    +0.000 A 
ATOM     19  C   UNL     1      -4.936   3.641 127.896  0.00  0.00    +0.000 A 
ATOM     20  C   UNL     1      -4.448   2.864 126.845  0.00  0.00    +0.000 A 
ATOM     21  C   UNL     1      -5.216   2.661 125.695  0.00  0.00    +0.000 A 
ENDBRANCH   9  16
BRANCH   9  22
ATOM     22  O   UNL     1      -8.503   3.910 124.419  0.00  0.00    +0.000 OA
ATOM     23  H   UNL     1      -8.522   4.490 123.636  0.00  0.00    +0.000 HD
ENDBRANCH   9  22
ENDBRANCH   1   9
BRANCH   4  24
ATOM     24  C   UNL     1      -9.305  -2.299 123.989  0.00  0.00    +0.000 C 
BRANCH  24  25
ATOM     25  C   UNL     1      -9.536  -2.866 125.382  0.00  0.00    +0.000 C 
BRANCH  25  26
ATOM     26  O   UNL     1      -8.418  -3.605 125.805  0.00  0.00    +0.000 OA
BRANCH  26  27
ATOM     27  C   UNL     1      -8.367  -3.529 127.226  0.00  0.00    +0.000 C 
BRANCH  27  28
ATOM     28  C   UNL     1      -7.426  -2.445 127.606  0.00  0.00    +0.000 A 
ATOM     29  C   UNL     1      -7.769  -1.560 128.631  0.00  0.00    +0.000 A 
ATOM     30  C   UNL     1      -6.988  -0.434 128.852  0.00  0.00    +0.000 A 
ATOM     31  C   UNL     1      -5.832  -0.229 128.098  0.00  0.00    +0.000 A 
ATOM     32  C   UNL     1      -5.454  -1.146 127.119  0.00  0.00    +0.000 A 
ATOM     33  C   UNL     1      -6.253  -2.252 126.869  0.00  0.00    +0.000 A 
ENDBRANCH  27  28
ENDBRANCH  26  27
ENDBRANCH  25  26
ENDBRANCH  24  25
ENDBRANCH   4  24
TORSDOF 9
ENDMDL
MODEL 7
REMARK VINA RESULT:      -8.5      2.454      4.526
REMARK  Name = Umeclidinium
REMARK  9 active torsions:
REMARK  status: ('A' for Active; 'I' for Inactive)
REMARK    1  A    between atoms: O_1  and  C_2
REMARK    2  A    between atoms: C_2  and  C_3
REMARK    3  A    between atoms: C_2  and  C_9
REMARK    4  A    between atoms: C_2  and  C_15
REMARK    5  A    between atoms: N_18  and  C_19
REMARK    6  A    between atoms: C_19  and  C_20
REMARK    7  A    between atoms: C_20  and  O_21
REMARK    8  A    between atoms: O_21  and  C_22
REMARK    9  A    between atoms: C_22  and  C_23
REMARK                            x       y       z     vdW  Elec       q    Type
REMARK                         _______ _______ _______ _____ _____    ______ ____
ROOT
ATOM      1  C   UNL     1      -6.126  -0.510 127.400  0.00  0.00    +0.000 C 
ATOM      2  C   UNL     1      -7.464   0.236 127.222  0.00  0.00    +0.000 C 
ATOM      3  C   UNL     1      -7.327   1.730 127.208  0.00  0.00    +0.000 C 
ATOM      4  N   UNL     1      -5.862   2.097 127.324  0.00  0.00    +0.000 N 
ATOM      5  C   UNL     1      -5.046   1.449 126.200  0.00  0.00    +0.000 C 
ATOM      6  C   UNL     1      -5.201  -0.057 126.242  0.00  0.00    +0.000 C 
ATOM      7  C   UNL     1      -5.348   1.586 128.662  0.00  0.00    +0.000 C 
ATOM      8  C   UNL     1      -5.506   0.075 128.703  0.00  0.00    +0.000 C 
ENDROOT
BRANCH   1   9
ATOM      9  C   UNL     1      -6.299  -2.106 127.378  0.00  0.00    +0.000 C 
BRANCH   9  10
ATOM     10  C   UNL     1      -7.350  -2.629 126.375  0.00  0.00    +0.000 A 
ATOM     11  C   UNL     1      -6.963  -3.000 125.068  0.00  0.00    +0.000 A 
ATOM     12  C   UNL     1      -7.903  -3.193 124.055  0.00  0.00    +0.000 A 
ATOM     13  C   UNL     1      -9.249  -3.197 124.365  0.00  0.00    +0.000 A 
ATOM     14  C   UNL     1      -9.657  -3.002 125.679  0.00  0.00    +0.000 A 
ATOM     15  C   UNL     1      -8.709  -2.744 126.668  0.00  0.00    +0.000 A 
ENDBRANCH   9  10
BRANCH   9  16
ATOM     16  C   UNL     1      -6.472  -2.585 128.834  0.00  0.00    +0.000 A 
ATOM     17  C   UNL     1      -7.590  -2.179 129.605  0.00  0.00    +0.000 A 
ATOM     18  C   UNL     1      -7.730  -2.525 130.944  0.00  0.00    +0.000 A 
ATOM     19  C   UNL     1      -6.749  -3.288 131.546  0.00  0.00    +0.000 A 
ATOM     20  C   UNL     1      -5.615  -3.671 130.828  0.00  0.00    +0.000 A 
ATOM     21  C   UNL     1      -5.474  -3.318 129.484  0.00  0.00    +0.000 A 
ENDBRANCH   9  16
BRANCH   9  22
ATOM     22  O   UNL     1      -5.062  -2.641 126.863  0.00  0.00    +0.000 OA
ATOM     23  H   UNL     1      -4.460  -2.730 127.626  0.00  0.00    +0.000 HD
ENDBRANCH   9  22
ENDBRANCH   1   9
BRANCH   4  24
ATOM     24  C   UNL     1      -5.718   3.616 127.290  0.00  0.00    +0.000 C 
BRANCH  24  25
ATOM     25  C   UNL     1      -5.428   4.095 125.875  0.00  0.00    +0.000 C 
BRANCH  25  26
ATOM     26  O   UNL     1      -6.624   4.416 125.209  0.00  0.00    +0.000 OA
BRANCH  26  27
ATOM     27  C   UNL     1      -6.535   3.885 123.890  0.00  0.00    +0.000 C 
BRANCH  27  28
ATOM     28  C   UNL     1      -7.469   2.736 123.780  0.00  0.00    +0.000 A 
ATOM     29  C   UNL     1      -8.794   2.880 124.196  0.00  0.00    +0.000 A 
ATOM     30  C   UNL     1      -9.610   1.760 124.280  0.00  0.00    +0.000 A 
ATOM     31  C   UNL     1      -9.123   0.513 123.888  0.00  0.00    +0.000 A 
ATOM     32  C   UNL     1      -7.820   0.379 123.412  0.00  0.00    +0.000 A 
ATOM     33  C   UNL     1      -6.990   1.489 123.362  0.00  0.00    +0.000 A 
ENDBRANCH  27  28
ENDBRANCH  26  27
ENDBRANCH  25  26
ENDBRANCH  24  25
ENDBRANCH   4  24
TORSDOF 9
ENDMDL
MODEL 8
REMARK VINA RESULT:      -8.5      4.592      6.145
REMARK  Name = Umeclidinium
REMARK  9 active torsions:
REMARK  status: ('A' for Active; 'I' for Inactive)
REMARK    1  A    between atoms: O_1  and  C_2
REMARK    2  A    between atoms: C_2  and  C_3
REMARK    3  A    between atoms: C_2  and  C_9
REMARK    4  A    between atoms: C_2  and  C_15
REMARK    5  A    between atoms: N_18  and  C_19
REMARK    6  A    between atoms: C_19  and  C_20
REMARK    7  A    between atoms: C_20  and  O_21
REMARK    8  A    between atoms: O_21  and  C_22
REMARK    9  A    between atoms: C_22  and  C_23
REMARK                            x       y       z     vdW  Elec       q    Type
REMARK                         _______ _______ _______ _____ _____    ______ ____
ROOT
ATOM      1  C   UNL     1      -7.357  -0.702 128.521  0.00  0.00    +0.000 C 
ATOM      2  C   UNL     1      -6.013   0.055 128.573  0.00  0.00    +0.000 C 
ATOM      3  C   UNL     1      -6.156   1.523 128.849  0.00  0.00    +0.000 C 
ATOM      4  N   UNL     1      -7.620   1.851 129.058  0.00  0.00    +0.000 N 
ATOM      5  C   UNL     1      -8.213   1.007 130.193  0.00  0.00    +0.000 C 
ATOM      6  C   UNL     1      -8.058  -0.468 129.883  0.00  0.00    +0.000 C 
ATOM      7  C   UNL     1      -8.366   1.536 127.770  0.00  0.00    +0.000 C 
ATOM      8  C   UNL     1      -8.208   0.056 127.461  0.00  0.00    +0.000 C 
ENDROOT
BRANCH   1   9
ATOM      9  C   UNL     1      -7.171  -2.274 128.257  0.00  0.00    +0.000 C 
BRANCH   9  10
ATOM     10  C   UNL     1      -5.994  -2.924 129.018  0.00  0.00    +0.000 A 
ATOM     11  C   UNL     1      -6.237  -3.704 130.170  0.00  0.00    +0.000 A 
ATOM     12  C   UNL     1      -5.206  -4.058 131.042  0.00  0.00    +0.000 A 
ATOM     13  C   UNL     1      -3.896  -3.798 130.691  0.00  0.00    +0.000 A 
ATOM     14  C   UNL     1      -3.614  -3.180 129.479  0.00  0.00    +0.000 A 
ATOM     15  C   UNL     1      -4.658  -2.772 128.650  0.00  0.00    +0.000 A 
ENDBRANCH   9  10
BRANCH   9  16
ATOM     16  C   UNL     1      -7.186  -2.504 126.732  0.00  0.00    +0.000 A 
ATOM     17  C   UNL     1      -8.264  -3.180 126.109  0.00  0.00    +0.000 A 
ATOM     18  C   UNL     1      -8.267  -3.477 124.751  0.00  0.00    +0.000 A 
ATOM     19  C   UNL     1      -7.183  -3.102 123.981  0.00  0.00    +0.000 A 
ATOM     20  C   UNL     1      -6.087  -2.470 124.568  0.00  0.00    +0.000 A 
ATOM     21  C   UNL     1      -6.084  -2.178 125.935  0.00  0.00    +0.000 A 
ENDBRANCH   9  16
BRANCH   9  22
ATOM     22  O   UNL     1      -8.327  -2.921 128.830  0.00  0.00    +0.000 OA
ATOM     23  H   UNL     1      -8.767  -3.396 128.101  0.00  0.00    +0.000 HD
ENDBRANCH   9  22
ENDBRANCH   1   9
BRANCH   4  24
ATOM     24  C   UNL     1      -7.766   3.340 129.359  0.00  0.00    +0.000 C 
BRANCH  24  25
ATOM     25  C   UNL     1      -9.013   3.599 130.191  0.00  0.00    +0.000 C 
BRANCH  25  26
ATOM     26  O   UNL     1      -9.921   4.403 129.481  0.00  0.00    +0.000 OA
BRANCH  26  27
ATOM     27  C   UNL     1     -10.473   5.340 130.400  0.00  0.00    +0.000 C 
BRANCH  27  28
ATOM     28  C   UNL     1     -11.081   6.454 129.629  0.00  0.00    +0.000 A 
ATOM     29  C   UNL     1     -12.433   6.397 129.282  0.00  0.00    +0.000 A 
ATOM     30  C   UNL     1     -12.952   7.333 128.398  0.00  0.00    +0.000 A 
ATOM     31  C   UNL     1     -12.140   8.361 127.916  0.00  0.00    +0.000 A 
ATOM     32  C   UNL     1     -10.808   8.456 128.313  0.00  0.00    +0.000 A 
ATOM     33  C   UNL     1     -10.275   7.500 129.166  0.00  0.00    +0.000 A 
ENDBRANCH  27  28
ENDBRANCH  26  27
ENDBRANCH  25  26
ENDBRANCH  24  25
ENDBRANCH   4  24
TORSDOF 9
ENDMDL
MODEL 9
REMARK VINA RESULT:      -8.2      6.692     10.112
REMARK  Name = Umeclidinium
REMARK  9 active torsions:
REMARK  status: ('A' for Active; 'I' for Inactive)
REMARK    1  A    between atoms: O_1  and  C_2
REMARK    2  A    between atoms: C_2  and  C_3
REMARK    3  A    between atoms: C_2  and  C_9
REMARK    4  A    between atoms: C_2  and  C_15
REMARK    5  A    between atoms: N_18  and  C_19
REMARK    6  A    between atoms: C_19  and  C_20
REMARK    7  A    between atoms: C_20  and  O_21
REMARK    8  A    between atoms: O_21  and  C_22
REMARK    9  A    between atoms: C_22  and  C_23
REMARK                            x       y       z     vdW  Elec       q    Type
REMARK                         _______ _______ _______ _____ _____    ______ ____
ROOT
ATOM      1  C   UNL     1      -8.353   3.895 132.172  0.00  0.00    +0.000 C 
ATOM      2  C   UNL     1      -7.545   3.098 133.217  0.00  0.00    +0.000 C 
ATOM      3  C   UNL     1      -7.459   1.630 132.924  0.00  0.00    +0.000 C 
ATOM      4  N   UNL     1      -8.166   1.340 131.616  0.00  0.00    +0.000 N 
ATOM      5  C   UNL     1      -7.571   2.174 130.476  0.00  0.00    +0.000 C 
ATOM      6  C   UNL     1      -7.677   3.650 130.799  0.00  0.00    +0.000 C 
ATOM      7  C   UNL     1      -9.634   1.705 131.779  0.00  0.00    +0.000 C 
ATOM      8  C   UNL     1      -9.737   3.186 132.104  0.00  0.00    +0.000 C 
ENDROOT
BRANCH   1   9
ATOM      9  C   UNL     1      -8.401   5.466 132.493  0.00  0.00    +0.000 C 
BRANCH   9  10
ATOM     10  C   UNL     1      -9.505   6.247 131.746  0.00  0.00    +0.000 A 
ATOM     11  C   UNL     1     -10.814   6.309 132.276  0.00  0.00    +0.000 A 
ATOM     12  C   UNL     1     -11.892   6.743 131.504  0.00  0.00    +0.000 A 
ATOM     13  C   UNL     1     -11.664   7.291 130.257  0.00  0.00    +0.000 A 
ATOM     14  C   UNL     1     -10.365   7.399 129.777  0.00  0.00    +0.000 A 
ATOM     15  C   UNL     1      -9.303   6.899 130.530  0.00  0.00    +0.000 A 
ENDBRANCH   9  10
BRANCH   9  16
ATOM     16  C   UNL     1      -6.971   6.025 132.340  0.00  0.00    +0.000 A 
ATOM     17  C   UNL     1      -6.559   6.649 131.137  0.00  0.00    +0.000 A 
ATOM     18  C   UNL     1      -5.255   7.086 130.938  0.00  0.00    +0.000 A 
ATOM     19  C   UNL     1      -4.327   6.907 131.946  0.00  0.00    +0.000 A 
ATOM     20  C   UNL     1      -4.688   6.261 133.129  0.00  0.00    +0.000 A 
ATOM     21  C   UNL     1      -5.999   5.817 133.324  0.00  0.00    +0.000 A 
ENDBRANCH   9  16
BRANCH   9  22
ATOM     22  O   UNL     1      -8.795   5.587 133.876  0.00  0.00    +0.000 OA
ATOM     23  H   UNL     1      -7.971   5.627 134.396  0.00  0.00    +0.000 HD
ENDBRANCH   9  22
ENDBRANCH   1   9
BRANCH   4  24
ATOM     24  C   UNL     1      -8.061  -0.151 131.306  0.00  0.00    +0.000 C 
BRANCH  24  25
ATOM     25  C   UNL     1      -6.938  -0.414 130.314  0.00  0.00    +0.000 C 
BRANCH  25  26
ATOM     26  O   UNL     1      -5.748  -0.732 130.990  0.00  0.00    +0.000 OA
BRANCH  26  27
ATOM     27  C   UNL     1      -4.665  -0.452 130.108  0.00  0.00    +0.000 C 
BRANCH  27  28
ATOM     28  C   UNL     1      -4.251   0.960 130.303  0.00  0.00    +0.000 A 
ATOM     29  C   UNL     1      -4.064   1.452 131.597  0.00  0.00    +0.000 A 
ATOM     30  C   UNL     1      -3.873   2.814 131.789  0.00  0.00    +0.000 A 
ATOM     31  C   UNL     1      -3.800   3.669 130.689  0.00  0.00    +0.000 A 
ATOM     32  C   UNL     1      -3.921   3.169 129.394  0.00  0.00    +0.000 A 
ATOM     33  C   UNL     1      -4.151   1.815 129.199  0.00  0.00    +0.000 A 
ENDBRANCH  27  28
ENDBRANCH  26  27
ENDBRANCH  25  26
ENDBRANCH  24  25
ENDBRANCH   4  24
TORSDOF 9
ENDMDL
