MODEL 1
REMARK VINA RESULT:      -5.0      0.000      0.000
REMARK  Name = Undecylenic acid
REMARK  10 active torsions:
REMARK  status: ('A' for Active; 'I' for Inactive)
REMARK    1  A    between atoms: O_1  and  C_2
REMARK    2  A    between atoms: C_2  and  C_4
REMARK    3  A    between atoms: C_4  and  C_5
REMARK    4  A    between atoms: C_5  and  C_6
REMARK    5  A    between atoms: C_6  and  C_7
REMARK    6  A    between atoms: C_7  and  C_8
REMARK    7  A    between atoms: C_8  and  C_9
REMARK    8  A    between atoms: C_9  and  C_10
REMARK    9  A    between atoms: C_10  and  C_11
REMARK   10  A    between atoms: C_11  and  C_12
REMARK                            x       y       z     vdW  Elec       q    Type
REMARK                         _______ _______ _______ _____ _____    ______ ____
ROOT
ATOM      1  C   UNL     1     -13.143   7.553 129.177  0.00  0.00    +0.000 C 
ENDROOT
BRANCH   1   2
ATOM      2  C   UNL     1     -12.623   8.400 128.024  0.00  0.00    +0.000 C 
BRANCH   2   3
ATOM      3  C   UNL     1     -11.108   8.280 127.854  0.00  0.00    +0.000 C 
BRANCH   3   4
ATOM      4  C   UNL     1     -10.788   7.119 126.939  0.00  0.00    +0.000 C 
ATOM      5  O   UNL     1      -9.745   6.479 126.968  0.00  0.00    +0.000 OA
BRANCH   4   6
ATOM      6  O   UNL     1     -11.769   6.832 126.056  0.00  0.00    +0.000 OA
ATOM      7  H   UNL     1     -12.637   6.623 126.448  0.00  0.00    +0.000 HD
ENDBRANCH   4   6
ENDBRANCH   3   4
ENDBRANCH   2   3
ENDBRANCH   1   2
BRANCH   1   8
ATOM      8  C   UNL     1     -12.529   8.018 130.493  0.00  0.00    +0.000 C 
BRANCH   8   9
ATOM      9  C   UNL     1     -12.399   6.850 131.458  0.00  0.00    +0.000 C 
BRANCH   9  10
ATOM     10  C   UNL     1     -10.935   6.489 131.664  0.00  0.00    +0.000 C 
BRANCH  10  11
ATOM     11  C   UNL     1     -10.502   5.445 130.644  0.00  0.00    +0.000 C 
BRANCH  11  12
ATOM     12  C   UNL     1      -9.045   5.661 130.247  0.00  0.00    +0.000 C 
BRANCH  12  13
ATOM     13  C   UNL     1      -8.427   6.776 131.033  0.00  0.00    +0.000 C 
ATOM     14  C   UNL     1      -7.103   6.952 131.099  0.00  0.00    +0.000 C 
ENDBRANCH  12  13
ENDBRANCH  11  12
ENDBRANCH  10  11
ENDBRANCH   9  10
ENDBRANCH   8   9
ENDBRANCH   1   8
TORSDOF 10
ENDMDL
MODEL 2
REMARK VINA RESULT:      -4.8      9.506     10.749
REMARK  Name = Undecylenic acid
REMARK  10 active torsions:
REMARK  status: ('A' for Active; 'I' for Inactive)
REMARK    1  A    between atoms: O_1  and  C_2
REMARK    2  A    between atoms: C_2  and  C_4
REMARK    3  A    between atoms: C_4  and  C_5
REMARK    4  A    between atoms: C_5  and  C_6
REMARK    5  A    between atoms: C_6  and  C_7
REMARK    6  A    between atoms: C_7  and  C_8
REMARK    7  A    between atoms: C_8  and  C_9
REMARK    8  A    between atoms: C_9  and  C_10
REMARK    9  A    between atoms: C_10  and  C_11
REMARK   10  A    between atoms: C_11  and  C_12
REMARK                            x       y       z     vdW  Elec       q    Type
REMARK                         _______ _______ _______ _____ _____    ______ ____
ROOT
ATOM      1  C   UNL     1      -8.777  -1.772 122.628  0.00  0.00    +0.000 C 
ENDROOT
BRANCH   1   2
ATOM      2  C   UNL     1      -9.616  -0.534 122.912  0.00  0.00    +0.000 C 
BRANCH   2   3
ATOM      3  C   UNL     1      -8.815   0.558 123.621  0.00  0.00    +0.000 C 
BRANCH   3   4
ATOM      4  C   UNL     1      -9.760   1.520 124.306  0.00  0.00    +0.000 C 
ATOM      5  O   UNL     1      -9.414   2.396 125.087  0.00  0.00    +0.000 OA
BRANCH   4   6
ATOM      6  O   UNL     1     -11.058   1.335 123.983  0.00  0.00    +0.000 OA
ATOM      7  H   UNL     1     -11.474   0.538 124.361  0.00  0.00    +0.000 HD
ENDBRANCH   4   6
ENDBRANCH   3   4
ENDBRANCH   2   3
ENDBRANCH   1   2
BRANCH   1   8
ATOM      8  C   UNL     1      -9.424  -3.004 123.252  0.00  0.00    +0.000 C 
BRANCH   8   9
ATOM      9  C   UNL     1      -9.131  -3.057 124.743  0.00  0.00    +0.000 C 
BRANCH   9  10
ATOM     10  C   UNL     1      -7.753  -3.651 124.995  0.00  0.00    +0.000 C 
BRANCH  10  11
ATOM     11  C   UNL     1      -6.827  -2.597 125.587  0.00  0.00    +0.000 C 
BRANCH  11  12
ATOM     12  C   UNL     1      -5.639  -2.353 124.663  0.00  0.00    +0.000 C 
BRANCH  12  13
ATOM     13  C   UNL     1      -5.426  -3.509 123.735  0.00  0.00    +0.000 C 
ATOM     14  C   UNL     1      -4.262  -4.163 123.668  0.00  0.00    +0.000 C 
ENDBRANCH  12  13
ENDBRANCH  11  12
ENDBRANCH  10  11
ENDBRANCH   9  10
ENDBRANCH   8   9
ENDBRANCH   1   8
TORSDOF 10
ENDMDL
MODEL 3
REMARK VINA RESULT:      -4.8     10.722     12.225
REMARK  Name = Undecylenic acid
REMARK  10 active torsions:
REMARK  status: ('A' for Active; 'I' for Inactive)
REMARK    1  A    between atoms: O_1  and  C_2
REMARK    2  A    between atoms: C_2  and  C_4
REMARK    3  A    between atoms: C_4  and  C_5
REMARK    4  A    between atoms: C_5  and  C_6
REMARK    5  A    between atoms: C_6  and  C_7
REMARK    6  A    between atoms: C_7  and  C_8
REMARK    7  A    between atoms: C_8  and  C_9
REMARK    8  A    between atoms: C_9  and  C_10
REMARK    9  A    between atoms: C_10  and  C_11
REMARK   10  A    between atoms: C_11  and  C_12
REMARK                            x       y       z     vdW  Elec       q    Type
REMARK                         _______ _______ _______ _____ _____    ______ ____
ROOT
ATOM      1  C   UNL     1      -8.528  -3.757 125.458  0.00  0.00    +0.000 C 
ENDROOT
BRANCH   1   2
ATOM      2  C   UNL     1      -8.294  -2.986 126.750  0.00  0.00    +0.000 C 
BRANCH   2   3
ATOM      3  C   UNL     1      -8.689  -3.794 127.986  0.00  0.00    +0.000 C 
BRANCH   3   4
ATOM      4  C   UNL     1      -7.869  -3.342 129.174  0.00  0.00    +0.000 C 
ATOM      5  O   UNL     1      -6.972  -3.996 129.689  0.00  0.00    +0.000 OA
BRANCH   4   6
ATOM      6  O   UNL     1      -8.213  -2.123 129.643  0.00  0.00    +0.000 OA
ATOM      7  H   UNL     1      -7.473  -1.572 129.958  0.00  0.00    +0.000 HD
ENDBRANCH   4   6
ENDBRANCH   3   4
ENDBRANCH   2   3
ENDBRANCH   1   2
BRANCH   1   8
ATOM      8  C   UNL     1      -9.319  -2.906 124.470  0.00  0.00    +0.000 C 
BRANCH   8   9
ATOM      9  C   UNL     1      -8.594  -2.832 123.136  0.00  0.00    +0.000 C 
BRANCH   9  10
ATOM     10  C   UNL     1      -7.642  -1.645 123.112  0.00  0.00    +0.000 C 
BRANCH  10  11
ATOM     11  C   UNL     1      -6.262  -2.088 122.644  0.00  0.00    +0.000 C 
BRANCH  11  12
ATOM     12  C   UNL     1      -5.377  -2.425 123.839  0.00  0.00    +0.000 C 
BRANCH  12  13
ATOM     13  C   UNL     1      -5.190  -3.905 123.976  0.00  0.00    +0.000 C 
ATOM     14  C   UNL     1      -4.093  -4.528 123.531  0.00  0.00    +0.000 C 
ENDBRANCH  12  13
ENDBRANCH  11  12
ENDBRANCH  10  11
ENDBRANCH   9  10
ENDBRANCH   8   9
ENDBRANCH   1   8
TORSDOF 10
ENDMDL
MODEL 4
REMARK VINA RESULT:      -4.8      1.651      2.131
REMARK  Name = Undecylenic acid
REMARK  10 active torsions:
REMARK  status: ('A' for Active; 'I' for Inactive)
REMARK    1  A    between atoms: O_1  and  C_2
REMARK    2  A    between atoms: C_2  and  C_4
REMARK    3  A    between atoms: C_4  and  C_5
REMARK    4  A    between atoms: C_5  and  C_6
REMARK    5  A    between atoms: C_6  and  C_7
REMARK    6  A    between atoms: C_7  and  C_8
REMARK    7  A    between atoms: C_8  and  C_9
REMARK    8  A    between atoms: C_9  and  C_10
REMARK    9  A    between atoms: C_10  and  C_11
REMARK   10  A    between atoms: C_11  and  C_12
REMARK                            x       y       z     vdW  Elec       q    Type
REMARK                         _______ _______ _______ _____ _____    ______ ____
ROOT
ATOM      1  C   UNL     1     -12.385   7.977 130.122  0.00  0.00    +0.000 C 
ENDROOT
BRANCH   1   2
ATOM      2  C   UNL     1     -12.532   8.074 128.611  0.00  0.00    +0.000 C 
BRANCH   2   3
ATOM      3  C   UNL     1     -11.198   8.352 127.916  0.00  0.00    +0.000 C 
BRANCH   3   4
ATOM      4  C   UNL     1     -10.790   7.149 127.095  0.00  0.00    +0.000 C 
ATOM      5  O   UNL     1      -9.736   6.543 127.228  0.00  0.00    +0.000 OA
BRANCH   4   6
ATOM      6  O   UNL     1     -11.705   6.782 126.171  0.00  0.00    +0.000 OA
ATOM      7  H   UNL     1     -11.568   5.902 125.774  0.00  0.00    +0.000 HD
ENDBRANCH   4   6
ENDBRANCH   3   4
ENDBRANCH   2   3
ENDBRANCH   1   2
BRANCH   1   8
ATOM      8  C   UNL     1     -12.035   6.548 130.529  0.00  0.00    +0.000 C 
BRANCH   8   9
ATOM      9  C   UNL     1     -10.907   6.550 131.548  0.00  0.00    +0.000 C 
BRANCH   9  10
ATOM     10  C   UNL     1      -9.557   6.631 130.851  0.00  0.00    +0.000 C 
BRANCH  10  11
ATOM     11  C   UNL     1      -8.442   6.260 131.819  0.00  0.00    +0.000 C 
BRANCH  11  12
ATOM     12  C   UNL     1      -9.019   5.902 133.184  0.00  0.00    +0.000 C 
BRANCH  12  13
ATOM     13  C   UNL     1      -8.521   4.570 133.653  0.00  0.00    +0.000 C 
ATOM     14  C   UNL     1      -9.252   3.456 133.536  0.00  0.00    +0.000 C 
ENDBRANCH  12  13
ENDBRANCH  11  12
ENDBRANCH  10  11
ENDBRANCH   9  10
ENDBRANCH   8   9
ENDBRANCH   1   8
TORSDOF 10
ENDMDL
MODEL 5
REMARK VINA RESULT:      -4.6      9.294     10.527
REMARK  Name = Undecylenic acid
REMARK  10 active torsions:
REMARK  status: ('A' for Active; 'I' for Inactive)
REMARK    1  A    between atoms: O_1  and  C_2
REMARK    2  A    between atoms: C_2  and  C_4
REMARK    3  A    between atoms: C_4  and  C_5
REMARK    4  A    between atoms: C_5  and  C_6
REMARK    5  A    between atoms: C_6  and  C_7
REMARK    6  A    between atoms: C_7  and  C_8
REMARK    7  A    between atoms: C_8  and  C_9
REMARK    8  A    between atoms: C_9  and  C_10
REMARK    9  A    between atoms: C_10  and  C_11
REMARK   10  A    between atoms: C_11  and  C_12
REMARK                            x       y       z     vdW  Elec       q    Type
REMARK                         _______ _______ _______ _____ _____    ______ ____
ROOT
ATOM      1  C   UNL     1      -8.397  -1.279 126.507  0.00  0.00    +0.000 C 
ENDROOT
BRANCH   1   2
ATOM      2  C   UNL     1      -9.297  -0.269 125.810  0.00  0.00    +0.000 C 
BRANCH   2   3
ATOM      3  C   UNL     1      -8.509   0.690 124.918  0.00  0.00    +0.000 C 
BRANCH   3   4
ATOM      4  C   UNL     1      -9.319   1.945 124.677  0.00  0.00    +0.000 C 
ATOM      5  O   UNL     1      -8.974   3.070 125.015  0.00  0.00    +0.000 OA
BRANCH   4   6
ATOM      6  O   UNL     1     -10.491   1.726 124.043  0.00  0.00    +0.000 OA
ATOM      7  H   UNL     1     -10.660   2.294 123.268  0.00  0.00    +0.000 HD
ENDBRANCH   4   6
ENDBRANCH   3   4
ENDBRANCH   2   3
ENDBRANCH   1   2
BRANCH   1   8
ATOM      8  C   UNL     1      -8.962  -2.688 126.350  0.00  0.00    +0.000 C 
BRANCH   8   9
ATOM      9  C   UNL     1      -9.077  -3.050 124.878  0.00  0.00    +0.000 C 
BRANCH   9  10
ATOM     10  C   UNL     1      -7.787  -3.688 124.383  0.00  0.00    +0.000 C 
BRANCH  10  11
ATOM     11  C   UNL     1      -6.928  -2.653 123.669  0.00  0.00    +0.000 C 
BRANCH  11  12
ATOM     12  C   UNL     1      -5.510  -2.661 124.227  0.00  0.00    +0.000 C 
BRANCH  12  13
ATOM     13  C   UNL     1      -4.586  -3.456 123.356  0.00  0.00    +0.000 C 
ATOM     14  C   UNL     1      -4.281  -4.731 123.619  0.00  0.00    +0.000 C 
ENDBRANCH  12  13
ENDBRANCH  11  12
ENDBRANCH  10  11
ENDBRANCH   9  10
ENDBRANCH   8   9
ENDBRANCH   1   8
TORSDOF 10
ENDMDL
MODEL 6
REMARK VINA RESULT:      -4.6      9.091     10.634
REMARK  Name = Undecylenic acid
REMARK  10 active torsions:
REMARK  status: ('A' for Active; 'I' for Inactive)
REMARK    1  A    between atoms: O_1  and  C_2
REMARK    2  A    between atoms: C_2  and  C_4
REMARK    3  A    between atoms: C_4  and  C_5
REMARK    4  A    between atoms: C_5  and  C_6
REMARK    5  A    between atoms: C_6  and  C_7
REMARK    6  A    between atoms: C_7  and  C_8
REMARK    7  A    between atoms: C_8  and  C_9
REMARK    8  A    between atoms: C_9  and  C_10
REMARK    9  A    between atoms: C_10  and  C_11
REMARK   10  A    between atoms: C_11  and  C_12
REMARK                            x       y       z     vdW  Elec       q    Type
REMARK                         _______ _______ _______ _____ _____    ______ ____
ROOT
ATOM      1  C   UNL     1      -7.643  -0.286 123.152  0.00  0.00    +0.000 C 
ENDROOT
BRANCH   1   2
ATOM      2  C   UNL     1      -7.572   0.428 124.494  0.00  0.00    +0.000 C 
BRANCH   2   3
ATOM      3  C   UNL     1      -8.913   0.416 125.229  0.00  0.00    +0.000 C 
BRANCH   3   4
ATOM      4  C   UNL     1      -9.859   1.401 124.579  0.00  0.00    +0.000 C 
ATOM      5  O   UNL     1     -10.825   1.089 123.896  0.00  0.00    +0.000 OA
BRANCH   4   6
ATOM      6  O   UNL     1      -9.549   2.694 124.815  0.00  0.00    +0.000 OA
ATOM      7  H   UNL     1      -9.952   3.083 125.613  0.00  0.00    +0.000 HD
ENDBRANCH   4   6
ENDBRANCH   3   4
ENDBRANCH   2   3
ENDBRANCH   1   2
BRANCH   1   8
ATOM      8  C   UNL     1      -6.488  -1.273 123.016  0.00  0.00    +0.000 C 
BRANCH   8   9
ATOM      9  C   UNL     1      -5.837  -1.515 124.369  0.00  0.00    +0.000 C 
BRANCH   9  10
ATOM     10  C   UNL     1      -5.722  -3.007 124.647  0.00  0.00    +0.000 C 
BRANCH  10  11
ATOM     11  C   UNL     1      -7.026  -3.710 124.292  0.00  0.00    +0.000 C 
BRANCH  11  12
ATOM     12  C   UNL     1      -8.082  -3.442 125.359  0.00  0.00    +0.000 C 
BRANCH  12  13
ATOM     13  C   UNL     1      -9.425  -3.193 124.744  0.00  0.00    +0.000 C 
ATOM     14  C   UNL     1      -9.661  -3.398 123.444  0.00  0.00    +0.000 C 
ENDBRANCH  12  13
ENDBRANCH  11  12
ENDBRANCH  10  11
ENDBRANCH   9  10
ENDBRANCH   8   9
ENDBRANCH   1   8
TORSDOF 10
ENDMDL
MODEL 7
REMARK VINA RESULT:      -4.6      9.465     10.724
REMARK  Name = Undecylenic acid
REMARK  10 active torsions:
REMARK  status: ('A' for Active; 'I' for Inactive)
REMARK    1  A    between atoms: O_1  and  C_2
REMARK    2  A    between atoms: C_2  and  C_4
REMARK    3  A    between atoms: C_4  and  C_5
REMARK    4  A    between atoms: C_5  and  C_6
REMARK    5  A    between atoms: C_6  and  C_7
REMARK    6  A    between atoms: C_7  and  C_8
REMARK    7  A    between atoms: C_8  and  C_9
REMARK    8  A    between atoms: C_9  and  C_10
REMARK    9  A    between atoms: C_10  and  C_11
REMARK   10  A    between atoms: C_11  and  C_12
REMARK                            x       y       z     vdW  Elec       q    Type
REMARK                         _______ _______ _______ _____ _____    ______ ____
ROOT
ATOM      1  C   UNL     1      -9.810  -0.187 122.675  0.00  0.00    +0.000 C 
ENDROOT
BRANCH   1   2
ATOM      2  C   UNL     1      -9.961   1.326 122.606  0.00  0.00    +0.000 C 
BRANCH   2   3
ATOM      3  C   UNL     1      -8.885   2.052 123.413  0.00  0.00    +0.000 C 
BRANCH   3   4
ATOM      4  C   UNL     1      -8.031   2.890 122.487  0.00  0.00    +0.000 C 
ATOM      5  O   UNL     1      -6.817   2.783 122.375  0.00  0.00    +0.000 OA
BRANCH   4   6
ATOM      6  O   UNL     1      -8.729   3.796 121.769  0.00  0.00    +0.000 OA
ATOM      7  H   UNL     1      -9.441   4.254 122.253  0.00  0.00    +0.000 HD
ENDBRANCH   4   6
ENDBRANCH   3   4
ENDBRANCH   2   3
ENDBRANCH   1   2
BRANCH   1   8
ATOM      8  C   UNL     1      -8.595  -0.559 123.518  0.00  0.00    +0.000 C 
BRANCH   8   9
ATOM      9  C   UNL     1      -7.885  -1.763 122.919  0.00  0.00    +0.000 C 
BRANCH   9  10
ATOM     10  C   UNL     1      -8.066  -2.985 123.806  0.00  0.00    +0.000 C 
BRANCH  10  11
ATOM     11  C   UNL     1      -6.714  -3.479 124.305  0.00  0.00    +0.000 C 
BRANCH  11  12
ATOM     12  C   UNL     1      -5.587  -2.661 123.682  0.00  0.00    +0.000 C 
BRANCH  12  13
ATOM     13  C   UNL     1      -4.389  -3.514 123.399  0.00  0.00    +0.000 C 
ATOM     14  C   UNL     1      -4.395  -4.837 123.596  0.00  0.00    +0.000 C 
ENDBRANCH  12  13
ENDBRANCH  11  12
ENDBRANCH  10  11
ENDBRANCH   9  10
ENDBRANCH   8   9
ENDBRANCH   1   8
TORSDOF 10
ENDMDL
MODEL 8
REMARK VINA RESULT:      -4.6     10.205     11.489
REMARK  Name = Undecylenic acid
REMARK  10 active torsions:
REMARK  status: ('A' for Active; 'I' for Inactive)
REMARK    1  A    between atoms: O_1  and  C_2
REMARK    2  A    between atoms: C_2  and  C_4
REMARK    3  A    between atoms: C_4  and  C_5
REMARK    4  A    between atoms: C_5  and  C_6
REMARK    5  A    between atoms: C_6  and  C_7
REMARK    6  A    between atoms: C_7  and  C_8
REMARK    7  A    between atoms: C_8  and  C_9
REMARK    8  A    between atoms: C_9  and  C_10
REMARK    9  A    between atoms: C_10  and  C_11
REMARK   10  A    between atoms: C_11  and  C_12
REMARK                            x       y       z     vdW  Elec       q    Type
REMARK                         _______ _______ _______ _____ _____    ______ ____
ROOT
ATOM      1  C   UNL     1      -9.123  -1.694 125.810  0.00  0.00    +0.000 C 
ENDROOT
BRANCH   1   2
ATOM      2  C   UNL     1      -8.821  -3.161 126.077  0.00  0.00    +0.000 C 
BRANCH   2   3
ATOM      3  C   UNL     1      -8.404  -3.907 124.809  0.00  0.00    +0.000 C 
BRANCH   3   4
ATOM      4  C   UNL     1      -8.973  -3.207 123.595  0.00  0.00    +0.000 C 
ATOM      5  O   UNL     1      -8.343  -2.446 122.873  0.00  0.00    +0.000 OA
BRANCH   4   6
ATOM      6  O   UNL     1     -10.273  -3.491 123.359  0.00  0.00    +0.000 OA
ATOM      7  H   UNL     1     -10.910  -3.065 123.961  0.00  0.00    +0.000 HD
ENDBRANCH   4   6
ENDBRANCH   3   4
ENDBRANCH   2   3
ENDBRANCH   1   2
BRANCH   1   8
ATOM      8  C   UNL     1      -8.159  -0.805 126.589  0.00  0.00    +0.000 C 
BRANCH   8   9
ATOM      9  C   UNL     1      -6.870  -1.555 126.887  0.00  0.00    +0.000 C 
BRANCH   9  10
ATOM     10  C   UNL     1      -5.693  -0.891 126.187  0.00  0.00    +0.000 C 
BRANCH  10  11
ATOM     11  C   UNL     1      -5.502  -1.487 124.799  0.00  0.00    +0.000 C 
BRANCH  11  12
ATOM     12  C   UNL     1      -5.213  -2.981 124.897  0.00  0.00    +0.000 C 
BRANCH  12  13
ATOM     13  C   UNL     1      -4.811  -3.546 123.569  0.00  0.00    +0.000 C 
ATOM     14  C   UNL     1      -4.252  -4.755 123.449  0.00  0.00    +0.000 C 
ENDBRANCH  12  13
ENDBRANCH  11  12
ENDBRANCH  10  11
ENDBRANCH   9  10
ENDBRANCH   8   9
ENDBRANCH   1   8
TORSDOF 10
ENDMDL
MODEL 9
REMARK VINA RESULT:      -4.5     10.267     10.996
REMARK  Name = Undecylenic acid
REMARK  10 active torsions:
REMARK  status: ('A' for Active; 'I' for Inactive)
REMARK    1  A    between atoms: O_1  and  C_2
REMARK    2  A    between atoms: C_2  and  C_4
REMARK    3  A    between atoms: C_4  and  C_5
REMARK    4  A    between atoms: C_5  and  C_6
REMARK    5  A    between atoms: C_6  and  C_7
REMARK    6  A    between atoms: C_7  and  C_8
REMARK    7  A    between atoms: C_8  and  C_9
REMARK    8  A    between atoms: C_9  and  C_10
REMARK    9  A    between atoms: C_10  and  C_11
REMARK   10  A    between atoms: C_11  and  C_12
REMARK                            x       y       z     vdW  Elec       q    Type
REMARK                         _______ _______ _______ _____ _____    ______ ____
ROOT
ATOM      1  C   UNL     1      -8.358  -2.433 126.570  0.00  0.00    +0.000 C 
ENDROOT
BRANCH   1   2
ATOM      2  C   UNL     1      -7.408  -2.744 125.423  0.00  0.00    +0.000 C 
BRANCH   2   3
ATOM      3  C   UNL     1      -8.004  -3.747 124.434  0.00  0.00    +0.000 C 
BRANCH   3   4
ATOM      4  C   UNL     1      -8.892  -3.023 123.446  0.00  0.00    +0.000 C 
ATOM      5  O   UNL     1      -8.523  -2.111 122.719  0.00  0.00    +0.000 OA
BRANCH   4   6
ATOM      6  O   UNL     1     -10.166  -3.472 123.425  0.00  0.00    +0.000 OA
ATOM      7  H   UNL     1     -10.539  -3.632 122.539  0.00  0.00    +0.000 HD
ENDBRANCH   4   6
ENDBRANCH   3   4
ENDBRANCH   2   3
ENDBRANCH   1   2
BRANCH   1   8
ATOM      8  C   UNL     1      -9.010  -3.714 127.079  0.00  0.00    +0.000 C 
BRANCH   8   9
ATOM      9  C   UNL     1      -8.792  -3.860 128.577  0.00  0.00    +0.000 C 
BRANCH   9  10
ATOM     10  C   UNL     1      -8.016  -2.670 129.121  0.00  0.00    +0.000 C 
BRANCH  10  11
ATOM     11  C   UNL     1      -7.260  -3.067 130.381  0.00  0.00    +0.000 C 
BRANCH  11  12
ATOM     12  C   UNL     1      -6.009  -3.861 130.024  0.00  0.00    +0.000 C 
BRANCH  12  13
ATOM     13  C   UNL     1      -5.104  -3.076 129.125  0.00  0.00    +0.000 C 
ATOM     14  C   UNL     1      -4.039  -2.414 129.589  0.00  0.00    +0.000 C 
ENDBRANCH  12  13
ENDBRANCH  11  12
ENDBRANCH  10  11
ENDBRANCH   9  10
ENDBRANCH   8   9
ENDBRANCH   1   8
TORSDOF 10
ENDMDL
