MODEL 1
REMARK VINA RESULT:      -6.9      0.000      0.000
REMARK  Name = Unoprostone
REMARK  19 active torsions:
REMARK  status: ('A' for Active; 'I' for Inactive)
REMARK    1  A    between atoms: C_1  and  C_2
REMARK    2  A    between atoms: C_2  and  C_3
REMARK    3  A    between atoms: C_3  and  C_4
REMARK    4  A    between atoms: C_4  and  C_5
REMARK    5  A    between atoms: C_5  and  C_6
REMARK    6  A    between atoms: C_6  and  C_7
REMARK    7  A    between atoms: C_7  and  C_8
REMARK    8  A    between atoms: C_8  and  C_10
REMARK    9  A    between atoms: C_10  and  C_11
REMARK   10  A    between atoms: C_11  and  C_12
REMARK   11  A    between atoms: C_13  and  O_14
REMARK   12  A    between atoms: C_16  and  O_17
REMARK   13  A    between atoms: C_18  and  C_19
REMARK   14  A    between atoms: C_19  and  C_20
REMARK   15  A    between atoms: C_21  and  C_22
REMARK   16  A    between atoms: C_22  and  C_23
REMARK   17  A    between atoms: C_23  and  C_24
REMARK   18  A    between atoms: C_24  and  C_25
REMARK   19  A    between atoms: C_25  and  O_26
REMARK                            x       y       z     vdW  Elec       q    Type
REMARK                         _______ _______ _______ _____ _____    ______ ____
ROOT
ATOM      1  C   UNL     1      -7.729   0.708 124.373  0.00  0.00    +0.000 C 
ATOM      2  C   UNL     1      -8.042   1.057 125.841  0.00  0.00    +0.000 C 
ATOM      3  C   UNL     1      -6.978   2.047 126.307  0.00  0.00    +0.000 C 
ATOM      4  C   UNL     1      -6.033   2.246 125.124  0.00  0.00    +0.000 C 
ATOM      5  C   UNL     1      -6.870   1.899 123.884  0.00  0.00    +0.000 C 
ENDROOT
BRANCH   4   6
ATOM      6  O   UNL     1      -5.485   3.553 125.103  0.00  0.00    +0.000 OA
ATOM      7  H   UNL     1      -5.490   3.921 126.001  0.00  0.00    +0.000 HD
ENDBRANCH   4   6
BRANCH   2   8
ATOM      8  O   UNL     1      -9.356   1.590 125.970  0.00  0.00    +0.000 OA
ATOM      9  H   UNL     1      -9.662   1.942 125.122  0.00  0.00    +0.000 HD
ENDBRANCH   2   8
BRANCH   1  10
ATOM     10  C   UNL     1      -6.964  -0.612 124.216  0.00  0.00    +0.000 C 
BRANCH  10  11
ATOM     11  C   UNL     1      -7.425  -1.418 123.004  0.00  0.00    +0.000 C 
BRANCH  11  12
ATOM     12  C   UNL     1      -8.894  -1.717 123.088  0.00  0.00    +0.000 C 
ATOM     13  O   UNL     1      -9.744  -0.840 122.944  0.00  0.00    +0.000 OA
BRANCH  12  14
ATOM     14  C   UNL     1      -9.253  -3.167 123.321  0.00  0.00    +0.000 C 
BRANCH  14  15
ATOM     15  C   UNL     1      -8.674  -3.614 124.649  0.00  0.00    +0.000 C 
BRANCH  15  16
ATOM     16  C   UNL     1      -9.405  -2.976 125.812  0.00  0.00    +0.000 C 
BRANCH  16  17
ATOM     17  C   UNL     1      -8.421  -2.692 126.936  0.00  0.00    +0.000 C 
BRANCH  17  18
ATOM     18  C   UNL     1      -8.649  -3.658 128.086  0.00  0.00    +0.000 C 
BRANCH  18  20
ATOM     19  C   UNL     1      -6.898  -3.724 129.859  0.00  0.00    +0.000 C 
ATOM     20  C   UNL     1      -8.175  -3.050 129.398  0.00  0.00    +0.000 C 
ENDBRANCH  18  20
ENDBRANCH  17  18
ENDBRANCH  16  17
ENDBRANCH  15  16
ENDBRANCH  14  15
ENDBRANCH  12  14
ENDBRANCH  11  12
ENDBRANCH  10  11
ENDBRANCH   1  10
BRANCH   5  21
ATOM     21  C   UNL     1      -7.724   3.080 123.427  0.00  0.00    +0.000 C 
BRANCH  21  22
ATOM     22  C   UNL     1      -8.793   2.684 122.457  0.00  0.00    +0.000 C 
ATOM     23  C   UNL     1      -8.838   3.195 121.221  0.00  0.00    +0.000 C 
BRANCH  23  24
ATOM     24  C   UNL     1      -7.819   4.183 120.737  0.00  0.00    +0.000 C 
BRANCH  24  25
ATOM     25  C   UNL     1      -6.626   3.462 120.148  0.00  0.00    +0.000 C 
BRANCH  25  26
ATOM     26  C   UNL     1      -5.319   4.051 120.651  0.00  0.00    +0.000 C 
BRANCH  26  27
ATOM     27  C   UNL     1      -4.989   5.417 120.101  0.00  0.00    +0.000 C 
ATOM     28  O   UNL     1      -4.448   6.276 120.793  0.00  0.00    +0.000 OA
BRANCH  27  29
ATOM     29  O   UNL     1      -5.310   5.663 118.818  0.00  0.00    +0.000 OA
ATOM     30  H   UNL     1      -6.149   6.122 118.637  0.00  0.00    +0.000 HD
ENDBRANCH  27  29
ENDBRANCH  26  27
ENDBRANCH  25  26
ENDBRANCH  24  25
ENDBRANCH  23  24
ENDBRANCH  21  22
ENDBRANCH   5  21
TORSDOF 18
ENDMDL
MODEL 2
REMARK VINA RESULT:      -6.8      7.189      9.628
REMARK  Name = Unoprostone
REMARK  19 active torsions:
REMARK  status: ('A' for Active; 'I' for Inactive)
REMARK    1  A    between atoms: C_1  and  C_2
REMARK    2  A    between atoms: C_2  and  C_3
REMARK    3  A    between atoms: C_3  and  C_4
REMARK    4  A    between atoms: C_4  and  C_5
REMARK    5  A    between atoms: C_5  and  C_6
REMARK    6  A    between atoms: C_6  and  C_7
REMARK    7  A    between atoms: C_7  and  C_8
REMARK    8  A    between atoms: C_8  and  C_10
REMARK    9  A    between atoms: C_10  and  C_11
REMARK   10  A    between atoms: C_11  and  C_12
REMARK   11  A    between atoms: C_13  and  O_14
REMARK   12  A    between atoms: C_16  and  O_17
REMARK   13  A    between atoms: C_18  and  C_19
REMARK   14  A    between atoms: C_19  and  C_20
REMARK   15  A    between atoms: C_21  and  C_22
REMARK   16  A    between atoms: C_22  and  C_23
REMARK   17  A    between atoms: C_23  and  C_24
REMARK   18  A    between atoms: C_24  and  C_25
REMARK   19  A    between atoms: C_25  and  O_26
REMARK                            x       y       z     vdW  Elec       q    Type
REMARK                         _______ _______ _______ _____ _____    ______ ____
ROOT
ATOM      1  C   UNL     1      -9.803   5.211 130.276  0.00  0.00    +0.000 C 
ATOM      2  C   UNL     1      -9.690   3.935 131.132  0.00  0.00    +0.000 C 
ATOM      3  C   UNL     1      -9.297   4.370 132.541  0.00  0.00    +0.000 C 
ATOM      4  C   UNL     1      -9.151   5.889 132.495  0.00  0.00    +0.000 C 
ATOM      5  C   UNL     1     -10.027   6.336 131.316  0.00  0.00    +0.000 C 
ENDROOT
BRANCH   4   6
ATOM      6  O   UNL     1      -9.498   6.488 133.731  0.00  0.00    +0.000 OA
ATOM      7  H   UNL     1      -9.232   5.904 134.461  0.00  0.00    +0.000 HD
ENDBRANCH   4   6
BRANCH   2   8
ATOM      8  O   UNL     1     -10.912   3.204 131.123  0.00  0.00    +0.000 OA
ATOM      9  H   UNL     1     -11.665   3.806 131.207  0.00  0.00    +0.000 HD
ENDBRANCH   2   8
BRANCH   1  10
ATOM     10  C   UNL     1      -8.549   5.490 129.439  0.00  0.00    +0.000 C 
BRANCH  10  11
ATOM     11  C   UNL     1      -7.878   4.213 128.939  0.00  0.00    +0.000 C 
BRANCH  11  12
ATOM     12  C   UNL     1      -6.387   4.294 129.101  0.00  0.00    +0.000 C 
ATOM     13  O   UNL     1      -5.660   4.719 128.203  0.00  0.00    +0.000 OA
BRANCH  12  14
ATOM     14  C   UNL     1      -5.851   3.860 130.446  0.00  0.00    +0.000 C 
BRANCH  14  15
ATOM     15  C   UNL     1      -4.847   4.886 130.934  0.00  0.00    +0.000 C 
BRANCH  15  16
ATOM     16  C   UNL     1      -5.536   6.053 131.610  0.00  0.00    +0.000 C 
BRANCH  16  17
ATOM     17  C   UNL     1      -5.412   7.291 130.734  0.00  0.00    +0.000 C 
BRANCH  17  18
ATOM     18  C   UNL     1      -3.947   7.620 130.501  0.00  0.00    +0.000 C 
BRANCH  18  20
ATOM     19  C   UNL     1      -2.618   6.779 128.567  0.00  0.00    +0.000 C 
ATOM     20  C   UNL     1      -3.665   7.779 129.014  0.00  0.00    +0.000 C 
ENDBRANCH  18  20
ENDBRANCH  17  18
ENDBRANCH  16  17
ENDBRANCH  15  16
ENDBRANCH  14  15
ENDBRANCH  12  14
ENDBRANCH  11  12
ENDBRANCH  10  11
ENDBRANCH   1  10
BRANCH   5  21
ATOM     21  C   UNL     1     -11.495   6.469 131.718  0.00  0.00    +0.000 C 
BRANCH  21  22
ATOM     22  C   UNL     1     -12.436   6.052 130.631  0.00  0.00    +0.000 C 
ATOM     23  C   UNL     1     -12.823   6.905 129.676  0.00  0.00    +0.000 C 
BRANCH  23  24
ATOM     24  C   UNL     1     -12.330   8.321 129.637  0.00  0.00    +0.000 C 
BRANCH  24  25
ATOM     25  C   UNL     1     -11.979   8.717 128.219  0.00  0.00    +0.000 C 
BRANCH  25  26
ATOM     26  C   UNL     1     -10.642   8.133 127.796  0.00  0.00    +0.000 C 
BRANCH  26  27
ATOM     27  C   UNL     1     -10.726   7.076 126.723  0.00  0.00    +0.000 C 
ATOM     28  O   UNL     1      -9.734   6.452 126.354  0.00  0.00    +0.000 OA
BRANCH  27  29
ATOM     29  O   UNL     1     -11.935   6.838 126.180  0.00  0.00    +0.000 OA
ATOM     30  H   UNL     1     -12.280   5.928 126.218  0.00  0.00    +0.000 HD
ENDBRANCH  27  29
ENDBRANCH  26  27
ENDBRANCH  25  26
ENDBRANCH  24  25
ENDBRANCH  23  24
ENDBRANCH  21  22
ENDBRANCH   5  21
TORSDOF 18
ENDMDL
MODEL 3
REMARK VINA RESULT:      -6.6      3.938      6.586
REMARK  Name = Unoprostone
REMARK  19 active torsions:
REMARK  status: ('A' for Active; 'I' for Inactive)
REMARK    1  A    between atoms: C_1  and  C_2
REMARK    2  A    between atoms: C_2  and  C_3
REMARK    3  A    between atoms: C_3  and  C_4
REMARK    4  A    between atoms: C_4  and  C_5
REMARK    5  A    between atoms: C_5  and  C_6
REMARK    6  A    between atoms: C_6  and  C_7
REMARK    7  A    between atoms: C_7  and  C_8
REMARK    8  A    between atoms: C_8  and  C_10
REMARK    9  A    between atoms: C_10  and  C_11
REMARK   10  A    between atoms: C_11  and  C_12
REMARK   11  A    between atoms: C_13  and  O_14
REMARK   12  A    between atoms: C_16  and  O_17
REMARK   13  A    between atoms: C_18  and  C_19
REMARK   14  A    between atoms: C_19  and  C_20
REMARK   15  A    between atoms: C_21  and  C_22
REMARK   16  A    between atoms: C_22  and  C_23
REMARK   17  A    between atoms: C_23  and  C_24
REMARK   18  A    between atoms: C_24  and  C_25
REMARK   19  A    between atoms: C_25  and  O_26
REMARK                            x       y       z     vdW  Elec       q    Type
REMARK                         _______ _______ _______ _____ _____    ______ ____
ROOT
ATOM      1  C   UNL     1      -7.607  -2.669 129.518  0.00  0.00    +0.000 C 
ATOM      2  C   UNL     1      -6.899  -3.641 130.480  0.00  0.00    +0.000 C 
ATOM      3  C   UNL     1      -5.408  -3.590 130.158  0.00  0.00    +0.000 C 
ATOM      4  C   UNL     1      -5.256  -2.616 128.992  0.00  0.00    +0.000 C 
ATOM      5  C   UNL     1      -6.484  -1.698 129.079  0.00  0.00    +0.000 C 
ENDROOT
BRANCH   4   6
ATOM      6  O   UNL     1      -4.017  -1.929 129.039  0.00  0.00    +0.000 OA
ATOM      7  H   UNL     1      -3.499  -2.247 129.796  0.00  0.00    +0.000 HD
ENDBRANCH   4   6
BRANCH   2   8
ATOM      8  O   UNL     1      -7.161  -3.299 131.838  0.00  0.00    +0.000 OA
ATOM      9  H   UNL     1      -6.348  -3.348 132.360  0.00  0.00    +0.000 HD
ENDBRANCH   2   8
BRANCH   1  10
ATOM     10  C   UNL     1      -8.225  -3.367 128.301  0.00  0.00    +0.000 C 
BRANCH  10  11
ATOM     11  C   UNL     1      -8.288  -2.462 127.073  0.00  0.00    +0.000 C 
BRANCH  11  12
ATOM     12  C   UNL     1      -9.035  -3.130 125.954  0.00  0.00    +0.000 C 
ATOM     13  O   UNL     1     -10.261  -3.069 125.865  0.00  0.00    +0.000 OA
BRANCH  12  14
ATOM     14  C   UNL     1      -8.179  -3.844 124.933  0.00  0.00    +0.000 C 
BRANCH  14  15
ATOM     15  C   UNL     1      -8.312  -3.141 123.596  0.00  0.00    +0.000 C 
BRANCH  15  16
ATOM     16  C   UNL     1      -7.674  -1.769 123.629  0.00  0.00    +0.000 C 
BRANCH  16  17
ATOM     17  C   UNL     1      -6.201  -1.903 123.987  0.00  0.00    +0.000 C 
BRANCH  17  18
ATOM     18  C   UNL     1      -5.468  -2.668 122.898  0.00  0.00    +0.000 C 
BRANCH  18  20
ATOM     19  C   UNL     1      -4.527  -4.858 123.628  0.00  0.00    +0.000 C 
ATOM     20  C   UNL     1      -4.249  -3.377 123.471  0.00  0.00    +0.000 C 
ENDBRANCH  18  20
ENDBRANCH  17  18
ENDBRANCH  16  17
ENDBRANCH  15  16
ENDBRANCH  14  15
ENDBRANCH  12  14
ENDBRANCH  11  12
ENDBRANCH  10  11
ENDBRANCH   1  10
BRANCH   5  21
ATOM     21  C   UNL     1      -6.275  -0.564 130.081  0.00  0.00    +0.000 C 
BRANCH  21  22
ATOM     22  C   UNL     1      -7.558   0.067 130.522  0.00  0.00    +0.000 C 
ATOM     23  C   UNL     1      -8.061   1.138 129.898  0.00  0.00    +0.000 C 
BRANCH  23  24
ATOM     24  C   UNL     1      -7.372   1.760 128.719  0.00  0.00    +0.000 C 
BRANCH  24  25
ATOM     25  C   UNL     1      -8.377   2.095 127.639  0.00  0.00    +0.000 C 
BRANCH  25  26
ATOM     26  C   UNL     1      -8.248   1.157 126.452  0.00  0.00    +0.000 C 
BRANCH  26  27
ATOM     27  C   UNL     1      -9.418   1.179 125.499  0.00  0.00    +0.000 C 
ATOM     28  O   UNL     1     -10.133   0.194 125.335  0.00  0.00    +0.000 OA
BRANCH  27  29
ATOM     29  O   UNL     1      -9.652   2.324 124.830  0.00  0.00    +0.000 OA
ATOM     30  H   UNL     1     -10.411   2.349 124.220  0.00  0.00    +0.000 HD
ENDBRANCH  27  29
ENDBRANCH  26  27
ENDBRANCH  25  26
ENDBRANCH  24  25
ENDBRANCH  23  24
ENDBRANCH  21  22
ENDBRANCH   5  21
TORSDOF 18
ENDMDL
MODEL 4
REMARK VINA RESULT:      -6.6      1.999      3.451
REMARK  Name = Unoprostone
REMARK  19 active torsions:
REMARK  status: ('A' for Active; 'I' for Inactive)
REMARK    1  A    between atoms: C_1  and  C_2
REMARK    2  A    between atoms: C_2  and  C_3
REMARK    3  A    between atoms: C_3  and  C_4
REMARK    4  A    between atoms: C_4  and  C_5
REMARK    5  A    between atoms: C_5  and  C_6
REMARK    6  A    between atoms: C_6  and  C_7
REMARK    7  A    between atoms: C_7  and  C_8
REMARK    8  A    between atoms: C_8  and  C_10
REMARK    9  A    between atoms: C_10  and  C_11
REMARK   10  A    between atoms: C_11  and  C_12
REMARK   11  A    between atoms: C_13  and  O_14
REMARK   12  A    between atoms: C_16  and  O_17
REMARK   13  A    between atoms: C_18  and  C_19
REMARK   14  A    between atoms: C_19  and  C_20
REMARK   15  A    between atoms: C_21  and  C_22
REMARK   16  A    between atoms: C_22  and  C_23
REMARK   17  A    between atoms: C_23  and  C_24
REMARK   18  A    between atoms: C_24  and  C_25
REMARK   19  A    between atoms: C_25  and  O_26
REMARK                            x       y       z     vdW  Elec       q    Type
REMARK                         _______ _______ _______ _____ _____    ______ ____
ROOT
ATOM      1  C   UNL     1      -7.637   2.316 126.942  0.00  0.00    +0.000 C 
ATOM      2  C   UNL     1      -7.016   3.259 127.990  0.00  0.00    +0.000 C 
ATOM      3  C   UNL     1      -5.511   3.001 127.993  0.00  0.00    +0.000 C 
ATOM      4  C   UNL     1      -5.266   1.891 126.974  0.00  0.00    +0.000 C 
ATOM      5  C   UNL     1      -6.454   1.971 126.005  0.00  0.00    +0.000 C 
ENDROOT
BRANCH   4   6
ATOM      6  O   UNL     1      -4.001   2.022 126.348  0.00  0.00    +0.000 OA
ATOM      7  H   UNL     1      -3.509   1.189 126.432  0.00  0.00    +0.000 HD
ENDBRANCH   4   6
BRANCH   2   8
ATOM      8  O   UNL     1      -7.321   4.619 127.699  0.00  0.00    +0.000 OA
ATOM      9  H   UNL     1      -7.393   5.130 128.518  0.00  0.00    +0.000 HD
ENDBRANCH   2   8
BRANCH   1  10
ATOM     10  C   UNL     1      -8.233   1.042 127.553  0.00  0.00    +0.000 C 
BRANCH  10  11
ATOM     11  C   UNL     1      -8.553  -0.020 126.503  0.00  0.00    +0.000 C 
BRANCH  11  12
ATOM     12  C   UNL     1      -8.070  -1.371 126.947  0.00  0.00    +0.000 C 
ATOM     13  O   UNL     1      -8.792  -2.367 126.895  0.00  0.00    +0.000 OA
BRANCH  12  14
ATOM     14  C   UNL     1      -6.635  -1.430 127.418  0.00  0.00    +0.000 C 
BRANCH  14  15
ATOM     15  C   UNL     1      -5.829  -2.274 126.450  0.00  0.00    +0.000 C 
BRANCH  15  16
ATOM     16  C   UNL     1      -5.456  -1.487 125.211  0.00  0.00    +0.000 C 
BRANCH  16  17
ATOM     17  C   UNL     1      -5.631  -2.365 123.981  0.00  0.00    +0.000 C 
BRANCH  17  18
ATOM     18  C   UNL     1      -6.889  -3.206 124.116  0.00  0.00    +0.000 C 
BRANCH  18  20
ATOM     19  C   UNL     1      -9.337  -3.316 123.655  0.00  0.00    +0.000 C 
ATOM     20  C   UNL     1      -8.061  -2.532 123.418  0.00  0.00    +0.000 C 
ENDBRANCH  18  20
ENDBRANCH  17  18
ENDBRANCH  16  17
ENDBRANCH  15  16
ENDBRANCH  14  15
ENDBRANCH  12  14
ENDBRANCH  11  12
ENDBRANCH  10  11
ENDBRANCH   1  10
BRANCH   5  21
ATOM     21  C   UNL     1      -6.238   3.034 124.930  0.00  0.00    +0.000 C 
BRANCH  21  22
ATOM     22  C   UNL     1      -7.478   3.327 124.144  0.00  0.00    +0.000 C 
ATOM     23  C   UNL     1      -7.521   3.154 122.818  0.00  0.00    +0.000 C 
BRANCH  23  24
ATOM     24  C   UNL     1      -6.336   2.652 122.048  0.00  0.00    +0.000 C 
BRANCH  24  25
ATOM     25  C   UNL     1      -5.522   3.812 121.518  0.00  0.00    +0.000 C 
BRANCH  25  26
ATOM     26  C   UNL     1      -6.066   4.309 120.190  0.00  0.00    +0.000 C 
BRANCH  26  27
ATOM     27  C   UNL     1      -5.384   5.542 119.649  0.00  0.00    +0.000 C 
ATOM     28  O   UNL     1      -4.646   6.229 120.351  0.00  0.00    +0.000 OA
BRANCH  27  29
ATOM     29  O   UNL     1      -5.613   5.864 118.363  0.00  0.00    +0.000 OA
ATOM     30  H   UNL     1      -6.439   6.334 118.150  0.00  0.00    +0.000 HD
ENDBRANCH  27  29
ENDBRANCH  26  27
ENDBRANCH  25  26
ENDBRANCH  24  25
ENDBRANCH  23  24
ENDBRANCH  21  22
ENDBRANCH   5  21
TORSDOF 18
ENDMDL
MODEL 5
REMARK VINA RESULT:      -6.5      2.611      4.957
REMARK  Name = Unoprostone
REMARK  19 active torsions:
REMARK  status: ('A' for Active; 'I' for Inactive)
REMARK    1  A    between atoms: C_1  and  C_2
REMARK    2  A    between atoms: C_2  and  C_3
REMARK    3  A    between atoms: C_3  and  C_4
REMARK    4  A    between atoms: C_4  and  C_5
REMARK    5  A    between atoms: C_5  and  C_6
REMARK    6  A    between atoms: C_6  and  C_7
REMARK    7  A    between atoms: C_7  and  C_8
REMARK    8  A    between atoms: C_8  and  C_10
REMARK    9  A    between atoms: C_10  and  C_11
REMARK   10  A    between atoms: C_11  and  C_12
REMARK   11  A    between atoms: C_13  and  O_14
REMARK   12  A    between atoms: C_16  and  O_17
REMARK   13  A    between atoms: C_18  and  C_19
REMARK   14  A    between atoms: C_19  and  C_20
REMARK   15  A    between atoms: C_21  and  C_22
REMARK   16  A    between atoms: C_22  and  C_23
REMARK   17  A    between atoms: C_23  and  C_24
REMARK   18  A    between atoms: C_24  and  C_25
REMARK   19  A    between atoms: C_25  and  O_26
REMARK                            x       y       z     vdW  Elec       q    Type
REMARK                         _______ _______ _______ _____ _____    ______ ____
ROOT
ATOM      1  C   UNL     1      -8.036  -2.339 128.290  0.00  0.00    +0.000 C 
ATOM      2  C   UNL     1      -7.795  -2.517 129.801  0.00  0.00    +0.000 C 
ATOM      3  C   UNL     1      -6.296  -2.733 129.997  0.00  0.00    +0.000 C 
ATOM      4  C   UNL     1      -5.675  -2.714 128.602  0.00  0.00    +0.000 C 
ATOM      5  C   UNL     1      -6.655  -1.901 127.743  0.00  0.00    +0.000 C 
ENDROOT
BRANCH   4   6
ATOM      6  O   UNL     1      -4.357  -2.195 128.621  0.00  0.00    +0.000 OA
ATOM      7  H   UNL     1      -3.736  -2.876 128.315  0.00  0.00    +0.000 HD
ENDBRANCH   4   6
BRANCH   2   8
ATOM      8  O   UNL     1      -8.268  -1.389 130.530  0.00  0.00    +0.000 OA
ATOM      9  H   UNL     1      -8.073  -0.571 130.050  0.00  0.00    +0.000 HD
ENDBRANCH   2   8
BRANCH   1  10
ATOM     10  C   UNL     1      -8.508  -3.624 127.599  0.00  0.00    +0.000 C 
BRANCH  10  11
ATOM     11  C   UNL     1      -8.157  -3.655 126.113  0.00  0.00    +0.000 C 
BRANCH  11  12
ATOM     12  C   UNL     1      -9.226  -2.985 125.298  0.00  0.00    +0.000 C 
ATOM     13  O   UNL     1     -10.320  -2.692 125.778  0.00  0.00    +0.000 OA
BRANCH  12  14
ATOM     14  C   UNL     1      -8.851  -2.661 123.869  0.00  0.00    +0.000 C 
BRANCH  14  15
ATOM     15  C   UNL     1      -8.456  -1.200 123.780  0.00  0.00    +0.000 C 
BRANCH  15  16
ATOM     16  C   UNL     1      -7.127  -1.029 123.074  0.00  0.00    +0.000 C 
BRANCH  16  17
ATOM     17  C   UNL     1      -6.017  -1.612 123.935  0.00  0.00    +0.000 C 
BRANCH  17  18
ATOM     18  C   UNL     1      -5.324  -2.745 123.197  0.00  0.00    +0.000 C 
BRANCH  18  20
ATOM     19  C   UNL     1      -4.268  -4.993 123.417  0.00  0.00    +0.000 C 
ATOM     20  C   UNL     1      -4.958  -3.866 124.159  0.00  0.00    +0.000 C 
ENDBRANCH  18  20
ENDBRANCH  17  18
ENDBRANCH  16  17
ENDBRANCH  15  16
ENDBRANCH  14  15
ENDBRANCH  12  14
ENDBRANCH  11  12
ENDBRANCH  10  11
ENDBRANCH   1  10
BRANCH   5  21
ATOM     21  C   UNL     1      -6.426  -0.398 127.889  0.00  0.00    +0.000 C 
BRANCH  21  22
ATOM     22  C   UNL     1      -7.587   0.417 127.414  0.00  0.00    +0.000 C 
ATOM     23  C   UNL     1      -7.462   1.294 126.411  0.00  0.00    +0.000 C 
BRANCH  23  24
ATOM     24  C   UNL     1      -6.156   1.502 125.703  0.00  0.00    +0.000 C 
BRANCH  24  25
ATOM     25  C   UNL     1      -6.156   2.830 124.979  0.00  0.00    +0.000 C 
BRANCH  25  26
ATOM     26  C   UNL     1      -6.616   2.676 123.540  0.00  0.00    +0.000 C 
BRANCH  26  27
ATOM     27  C   UNL     1      -6.272   3.836 122.638  0.00  0.00    +0.000 C 
ATOM     28  O   UNL     1      -6.605   3.854 121.456  0.00  0.00    +0.000 OA
BRANCH  27  29
ATOM     29  O   UNL     1      -5.584   4.859 123.179  0.00  0.00    +0.000 OA
ATOM     30  H   UNL     1      -5.676   5.738 122.770  0.00  0.00    +0.000 HD
ENDBRANCH  27  29
ENDBRANCH  26  27
ENDBRANCH  25  26
ENDBRANCH  24  25
ENDBRANCH  23  24
ENDBRANCH  21  22
ENDBRANCH   5  21
TORSDOF 18
ENDMDL
MODEL 6
REMARK VINA RESULT:      -6.5      2.738      8.918
REMARK  Name = Unoprostone
REMARK  19 active torsions:
REMARK  status: ('A' for Active; 'I' for Inactive)
REMARK    1  A    between atoms: C_1  and  C_2
REMARK    2  A    between atoms: C_2  and  C_3
REMARK    3  A    between atoms: C_3  and  C_4
REMARK    4  A    between atoms: C_4  and  C_5
REMARK    5  A    between atoms: C_5  and  C_6
REMARK    6  A    between atoms: C_6  and  C_7
REMARK    7  A    between atoms: C_7  and  C_8
REMARK    8  A    between atoms: C_8  and  C_10
REMARK    9  A    between atoms: C_10  and  C_11
REMARK   10  A    between atoms: C_11  and  C_12
REMARK   11  A    between atoms: C_13  and  O_14
REMARK   12  A    between atoms: C_16  and  O_17
REMARK   13  A    between atoms: C_18  and  C_19
REMARK   14  A    between atoms: C_19  and  C_20
REMARK   15  A    between atoms: C_21  and  C_22
REMARK   16  A    between atoms: C_22  and  C_23
REMARK   17  A    between atoms: C_23  and  C_24
REMARK   18  A    between atoms: C_24  and  C_25
REMARK   19  A    between atoms: C_25  and  O_26
REMARK                            x       y       z     vdW  Elec       q    Type
REMARK                         _______ _______ _______ _____ _____    ______ ____
ROOT
ATOM      1  C   UNL     1      -9.040  -0.912 125.178  0.00  0.00    +0.000 C 
ATOM      2  C   UNL     1      -9.008  -1.179 123.661  0.00  0.00    +0.000 C 
ATOM      3  C   UNL     1      -7.541  -1.228 123.242  0.00  0.00    +0.000 C 
ATOM      4  C   UNL     1      -6.726  -0.959 124.505  0.00  0.00    +0.000 C 
ATOM      5  C   UNL     1      -7.644  -1.372 125.665  0.00  0.00    +0.000 C 
ENDROOT
BRANCH   4   6
ATOM      6  O   UNL     1      -5.482  -1.638 124.484  0.00  0.00    +0.000 OA
ATOM      7  H   UNL     1      -4.848  -1.171 125.051  0.00  0.00    +0.000 HD
ENDBRANCH   4   6
BRANCH   2   8
ATOM      8  O   UNL     1      -9.693  -2.385 123.340  0.00  0.00    +0.000 OA
ATOM      9  H   UNL     1      -9.782  -2.942 124.128  0.00  0.00    +0.000 HD
ENDBRANCH   2   8
BRANCH   1  10
ATOM     10  C   UNL     1      -9.276   0.563 125.527  0.00  0.00    +0.000 C 
BRANCH  10  11
ATOM     11  C   UNL     1      -9.808   1.369 124.345  0.00  0.00    +0.000 C 
BRANCH  11  12
ATOM     12  C   UNL     1      -9.009   2.627 124.155  0.00  0.00    +0.000 C 
ATOM     13  O   UNL     1      -8.907   3.471 125.044  0.00  0.00    +0.000 OA
BRANCH  12  14
ATOM     14  C   UNL     1      -8.313   2.764 122.820  0.00  0.00    +0.000 C 
BRANCH  14  15
ATOM     15  C   UNL     1      -6.824   2.558 123.014  0.00  0.00    +0.000 C 
BRANCH  15  16
ATOM     16  C   UNL     1      -6.028   3.704 122.425  0.00  0.00    +0.000 C 
BRANCH  16  17
ATOM     17  C   UNL     1      -6.078   3.629 120.906  0.00  0.00    +0.000 C 
BRANCH  17  18
ATOM     18  C   UNL     1      -5.276   4.769 120.302  0.00  0.00    +0.000 C 
BRANCH  18  20
ATOM     19  C   UNL     1      -7.284   4.591 118.834  0.00  0.00    +0.000 C 
ATOM     20  C   UNL     1      -5.968   5.308 119.058  0.00  0.00    +0.000 C 
ENDBRANCH  18  20
ENDBRANCH  17  18
ENDBRANCH  16  17
ENDBRANCH  15  16
ENDBRANCH  14  15
ENDBRANCH  12  14
ENDBRANCH  11  12
ENDBRANCH  10  11
ENDBRANCH   1  10
BRANCH   5  21
ATOM     21  C   UNL     1      -7.588  -2.875 125.925  0.00  0.00    +0.000 C 
BRANCH  21  22
ATOM     22  C   UNL     1      -8.776  -3.380 126.683  0.00  0.00    +0.000 C 
ATOM     23  C   UNL     1      -8.751  -3.511 128.014  0.00  0.00    +0.000 C 
BRANCH  23  24
ATOM     24  C   UNL     1      -7.538  -3.154 128.820  0.00  0.00    +0.000 C 
BRANCH  24  25
ATOM     25  C   UNL     1      -7.632  -1.725 129.310  0.00  0.00    +0.000 C 
BRANCH  25  26
ATOM     26  C   UNL     1      -7.933  -1.668 130.797  0.00  0.00    +0.000 C 
BRANCH  26  27
ATOM     27  C   UNL     1      -6.941  -2.397 131.670  0.00  0.00    +0.000 C 
ATOM     28  O   UNL     1      -5.733  -2.188 131.586  0.00  0.00    +0.000 OA
BRANCH  27  29
ATOM     29  O   UNL     1      -7.429  -3.290 132.551  0.00  0.00    +0.000 OA
ATOM     30  H   UNL     1      -7.358  -3.080 133.500  0.00  0.00    +0.000 HD
ENDBRANCH  27  29
ENDBRANCH  26  27
ENDBRANCH  25  26
ENDBRANCH  24  25
ENDBRANCH  23  24
ENDBRANCH  21  22
ENDBRANCH   5  21
TORSDOF 18
ENDMDL
MODEL 7
REMARK VINA RESULT:      -6.5      4.740      9.889
REMARK  Name = Unoprostone
REMARK  19 active torsions:
REMARK  status: ('A' for Active; 'I' for Inactive)
REMARK    1  A    between atoms: C_1  and  C_2
REMARK    2  A    between atoms: C_2  and  C_3
REMARK    3  A    between atoms: C_3  and  C_4
REMARK    4  A    between atoms: C_4  and  C_5
REMARK    5  A    between atoms: C_5  and  C_6
REMARK    6  A    between atoms: C_6  and  C_7
REMARK    7  A    between atoms: C_7  and  C_8
REMARK    8  A    between atoms: C_8  and  C_10
REMARK    9  A    between atoms: C_10  and  C_11
REMARK   10  A    between atoms: C_11  and  C_12
REMARK   11  A    between atoms: C_13  and  O_14
REMARK   12  A    between atoms: C_16  and  O_17
REMARK   13  A    between atoms: C_18  and  C_19
REMARK   14  A    between atoms: C_19  and  C_20
REMARK   15  A    between atoms: C_21  and  C_22
REMARK   16  A    between atoms: C_22  and  C_23
REMARK   17  A    between atoms: C_23  and  C_24
REMARK   18  A    between atoms: C_24  and  C_25
REMARK   19  A    between atoms: C_25  and  O_26
REMARK                            x       y       z     vdW  Elec       q    Type
REMARK                         _______ _______ _______ _____ _____    ______ ____
ROOT
ATOM      1  C   UNL     1      -7.415  -2.910 127.980  0.00  0.00    +0.000 C 
ATOM      2  C   UNL     1      -7.116  -1.414 127.770  0.00  0.00    +0.000 C 
ATOM      3  C   UNL     1      -7.525  -0.687 129.049  0.00  0.00    +0.000 C 
ATOM      4  C   UNL     1      -8.089  -1.754 129.985  0.00  0.00    +0.000 C 
ATOM      5  C   UNL     1      -7.447  -3.069 129.520  0.00  0.00    +0.000 C 
ENDROOT
BRANCH   4   6
ATOM      6  O   UNL     1      -7.846  -1.442 131.345  0.00  0.00    +0.000 OA
ATOM      7  H   UNL     1      -7.622  -2.253 131.829  0.00  0.00    +0.000 HD
ENDBRANCH   4   6
BRANCH   2   8
ATOM      8  O   UNL     1      -5.742  -1.207 127.458  0.00  0.00    +0.000 OA
ATOM      9  H   UNL     1      -5.217  -1.147 128.269  0.00  0.00    +0.000 HD
ENDBRANCH   2   8
BRANCH   1  10
ATOM     10  C   UNL     1      -8.747  -3.352 127.363  0.00  0.00    +0.000 C 
BRANCH  10  11
ATOM     11  C   UNL     1      -9.063  -2.623 126.060  0.00  0.00    +0.000 C 
BRANCH  11  12
ATOM     12  C   UNL     1      -8.763  -3.494 124.874  0.00  0.00    +0.000 C 
ATOM     13  O   UNL     1      -8.155  -4.558 124.988  0.00  0.00    +0.000 OA
BRANCH  12  14
ATOM     14  C   UNL     1      -9.291  -2.996 123.547  0.00  0.00    +0.000 C 
BRANCH  14  15
ATOM     15  C   UNL     1      -8.607  -1.688 123.201  0.00  0.00    +0.000 C 
BRANCH  15  16
ATOM     16  C   UNL     1      -7.198  -1.919 122.697  0.00  0.00    +0.000 C 
BRANCH  16  17
ATOM     17  C   UNL     1      -6.201  -1.380 123.713  0.00  0.00    +0.000 C 
BRANCH  17  18
ATOM     18  C   UNL     1      -5.404  -2.523 124.318  0.00  0.00    +0.000 C 
BRANCH  18  20
ATOM     19  C   UNL     1      -4.409  -4.716 123.673  0.00  0.00    +0.000 C 
ATOM     20  C   UNL     1      -4.657  -3.287 123.234  0.00  0.00    +0.000 C 
ENDBRANCH  18  20
ENDBRANCH  17  18
ENDBRANCH  16  17
ENDBRANCH  15  16
ENDBRANCH  14  15
ENDBRANCH  12  14
ENDBRANCH  11  12
ENDBRANCH  10  11
ENDBRANCH   1  10
BRANCH   5  21
ATOM     21  C   UNL     1      -6.052  -3.259 130.111  0.00  0.00    +0.000 C 
BRANCH  21  22
ATOM     22  C   UNL     1      -5.754  -4.686 130.454  0.00  0.00    +0.000 C 
ATOM     23  C   UNL     1      -5.479  -5.060 131.708  0.00  0.00    +0.000 C 
BRANCH  23  24
ATOM     24  C   UNL     1      -5.461  -4.076 132.840  0.00  0.00    +0.000 C 
BRANCH  24  25
ATOM     25  C   UNL     1      -6.388  -4.528 133.946  0.00  0.00    +0.000 C 
BRANCH  25  26
ATOM     26  C   UNL     1      -7.667  -3.709 133.967  0.00  0.00    +0.000 C 
BRANCH  26  27
ATOM     27  C   UNL     1      -8.293  -3.549 135.331  0.00  0.00    +0.000 C 
ATOM     28  O   UNL     1      -7.949  -2.651 136.096  0.00  0.00    +0.000 OA
BRANCH  27  29
ATOM     29  O   UNL     1      -9.247  -4.430 135.682  0.00  0.00    +0.000 OA
ATOM     30  H   UNL     1      -9.272  -4.730 136.608  0.00  0.00    +0.000 HD
ENDBRANCH  27  29
ENDBRANCH  26  27
ENDBRANCH  25  26
ENDBRANCH  24  25
ENDBRANCH  23  24
ENDBRANCH  21  22
ENDBRANCH   5  21
TORSDOF 18
ENDMDL
MODEL 8
REMARK VINA RESULT:      -6.5      6.095      8.800
REMARK  Name = Unoprostone
REMARK  19 active torsions:
REMARK  status: ('A' for Active; 'I' for Inactive)
REMARK    1  A    between atoms: C_1  and  C_2
REMARK    2  A    between atoms: C_2  and  C_3
REMARK    3  A    between atoms: C_3  and  C_4
REMARK    4  A    between atoms: C_4  and  C_5
REMARK    5  A    between atoms: C_5  and  C_6
REMARK    6  A    between atoms: C_6  and  C_7
REMARK    7  A    between atoms: C_7  and  C_8
REMARK    8  A    between atoms: C_8  and  C_10
REMARK    9  A    between atoms: C_10  and  C_11
REMARK   10  A    between atoms: C_11  and  C_12
REMARK   11  A    between atoms: C_13  and  O_14
REMARK   12  A    between atoms: C_16  and  O_17
REMARK   13  A    between atoms: C_18  and  C_19
REMARK   14  A    between atoms: C_19  and  C_20
REMARK   15  A    between atoms: C_21  and  C_22
REMARK   16  A    between atoms: C_22  and  C_23
REMARK   17  A    between atoms: C_23  and  C_24
REMARK   18  A    between atoms: C_24  and  C_25
REMARK   19  A    between atoms: C_25  and  O_26
REMARK                            x       y       z     vdW  Elec       q    Type
REMARK                         _______ _______ _______ _____ _____    ______ ____
ROOT
ATOM      1  C   UNL     1      -9.690   4.927 130.256  0.00  0.00    +0.000 C 
ATOM      2  C   UNL     1      -9.656   3.702 131.189  0.00  0.00    +0.000 C 
ATOM      3  C   UNL     1      -9.259   4.201 132.576  0.00  0.00    +0.000 C 
ATOM      4  C   UNL     1      -9.032   5.705 132.440  0.00  0.00    +0.000 C 
ATOM      5  C   UNL     1      -9.868   6.124 131.222  0.00  0.00    +0.000 C 
ENDROOT
BRANCH   4   6
ATOM      6  O   UNL     1      -9.363   6.396 133.632  0.00  0.00    +0.000 OA
ATOM      7  H   UNL     1     -10.273   6.729 133.572  0.00  0.00    +0.000 HD
ENDBRANCH   4   6
BRANCH   2   8
ATOM      8  O   UNL     1     -10.915   3.036 131.205  0.00  0.00    +0.000 OA
ATOM      9  H   UNL     1     -11.438   3.322 131.968  0.00  0.00    +0.000 HD
ENDBRANCH   2   8
BRANCH   1  10
ATOM     10  C   UNL     1      -8.413   5.089 129.424  0.00  0.00    +0.000 C 
BRANCH  10  11
ATOM     11  C   UNL     1      -7.772   3.751 129.063  0.00  0.00    +0.000 C 
BRANCH  11  12
ATOM     12  C   UNL     1      -7.509   3.666 127.586  0.00  0.00    +0.000 C 
ATOM     13  O   UNL     1      -8.335   3.193 126.806  0.00  0.00    +0.000 OA
BRANCH  12  14
ATOM     14  C   UNL     1      -6.187   4.236 127.125  0.00  0.00    +0.000 C 
BRANCH  14  15
ATOM     15  C   UNL     1      -5.070   3.302 127.548  0.00  0.00    +0.000 C 
BRANCH  15  16
ATOM     16  C   UNL     1      -4.051   3.124 126.443  0.00  0.00    +0.000 C 
BRANCH  16  17
ATOM     17  C   UNL     1      -2.707   3.672 126.899  0.00  0.00    +0.000 C 
BRANCH  17  18
ATOM     18  C   UNL     1      -2.846   4.325 128.264  0.00  0.00    +0.000 C 
BRANCH  18  20
ATOM     19  C   UNL     1      -3.480   6.668 128.835  0.00  0.00    +0.000 C 
ATOM     20  C   UNL     1      -2.421   5.785 128.204  0.00  0.00    +0.000 C 
ENDBRANCH  18  20
ENDBRANCH  17  18
ENDBRANCH  16  17
ENDBRANCH  15  16
ENDBRANCH  14  15
ENDBRANCH  12  14
ENDBRANCH  11  12
ENDBRANCH  10  11
ENDBRANCH   1  10
BRANCH   5  21
ATOM     21  C   UNL     1     -11.332   6.357 131.591  0.00  0.00    +0.000 C 
BRANCH  21  22
ATOM     22  C   UNL     1     -12.279   5.941 130.509  0.00  0.00    +0.000 C 
ATOM     23  C   UNL     1     -12.725   6.814 129.598  0.00  0.00    +0.000 C 
BRANCH  23  24
ATOM     24  C   UNL     1     -12.297   8.251 129.606  0.00  0.00    +0.000 C 
BRANCH  24  25
ATOM     25  C   UNL     1     -11.737   8.642 128.256  0.00  0.00    +0.000 C 
BRANCH  25  26
ATOM     26  C   UNL     1     -10.477   7.858 127.931  0.00  0.00    +0.000 C 
BRANCH  26  27
ATOM     27  C   UNL     1     -10.591   6.947 126.733  0.00  0.00    +0.000 C 
ATOM     28  O   UNL     1      -9.626   6.314 126.311  0.00  0.00    +0.000 OA
BRANCH  27  29
ATOM     29  O   UNL     1     -11.795   6.851 126.139  0.00  0.00    +0.000 OA
ATOM     30  H   UNL     1     -11.913   6.170 125.454  0.00  0.00    +0.000 HD
ENDBRANCH  27  29
ENDBRANCH  26  27
ENDBRANCH  25  26
ENDBRANCH  24  25
ENDBRANCH  23  24
ENDBRANCH  21  22
ENDBRANCH   5  21
TORSDOF 18
ENDMDL
MODEL 9
REMARK VINA RESULT:      -6.5      6.416      8.460
REMARK  Name = Unoprostone
REMARK  19 active torsions:
REMARK  status: ('A' for Active; 'I' for Inactive)
REMARK    1  A    between atoms: C_1  and  C_2
REMARK    2  A    between atoms: C_2  and  C_3
REMARK    3  A    between atoms: C_3  and  C_4
REMARK    4  A    between atoms: C_4  and  C_5
REMARK    5  A    between atoms: C_5  and  C_6
REMARK    6  A    between atoms: C_6  and  C_7
REMARK    7  A    between atoms: C_7  and  C_8
REMARK    8  A    between atoms: C_8  and  C_10
REMARK    9  A    between atoms: C_10  and  C_11
REMARK   10  A    between atoms: C_11  and  C_12
REMARK   11  A    between atoms: C_13  and  O_14
REMARK   12  A    between atoms: C_16  and  O_17
REMARK   13  A    between atoms: C_18  and  C_19
REMARK   14  A    between atoms: C_19  and  C_20
REMARK   15  A    between atoms: C_21  and  C_22
REMARK   16  A    between atoms: C_22  and  C_23
REMARK   17  A    between atoms: C_23  and  C_24
REMARK   18  A    between atoms: C_24  and  C_25
REMARK   19  A    between atoms: C_25  and  O_26
REMARK                            x       y       z     vdW  Elec       q    Type
REMARK                         _______ _______ _______ _____ _____    ______ ____
ROOT
ATOM      1  C   UNL     1      -9.792   4.831 132.099  0.00  0.00    +0.000 C 
ATOM      2  C   UNL     1      -8.576   5.524 132.743  0.00  0.00    +0.000 C 
ATOM      3  C   UNL     1      -8.036   6.526 131.725  0.00  0.00    +0.000 C 
ATOM      4  C   UNL     1      -8.916   6.391 130.485  0.00  0.00    +0.000 C 
ATOM      5  C   UNL     1     -10.246   5.824 131.001  0.00  0.00    +0.000 C 
ENDROOT
BRANCH   4   6
ATOM      6  O   UNL     1      -9.043   7.622 129.795  0.00  0.00    +0.000 OA
ATOM      7  H   UNL     1      -9.984   7.836 129.684  0.00  0.00    +0.000 HD
ENDBRANCH   4   6
BRANCH   2   8
ATOM      8  O   UNL     1      -8.936   6.153 133.968  0.00  0.00    +0.000 OA
ATOM      9  H   UNL     1      -8.676   5.599 134.719  0.00  0.00    +0.000 HD
ENDBRANCH   2   8
BRANCH   1  10
ATOM     10  C   UNL     1      -9.456   3.465 131.488  0.00  0.00    +0.000 C 
BRANCH  10  11
ATOM     11  C   UNL     1      -9.034   2.439 132.537  0.00  0.00    +0.000 C 
BRANCH  11  12
ATOM     12  C   UNL     1      -8.982   1.060 131.943  0.00  0.00    +0.000 C 
ATOM     13  O   UNL     1      -9.930   0.280 132.032  0.00  0.00    +0.000 OA
BRANCH  12  14
ATOM     14  C   UNL     1      -7.711   0.715 131.202  0.00  0.00    +0.000 C 
BRANCH  14  15
ATOM     15  C   UNL     1      -7.187  -0.614 131.708  0.00  0.00    +0.000 C 
BRANCH  15  16
ATOM     16  C   UNL     1      -6.571  -1.427 130.589  0.00  0.00    +0.000 C 
BRANCH  16  17
ATOM     17  C   UNL     1      -6.492  -2.888 131.007  0.00  0.00    +0.000 C 
BRANCH  17  18
ATOM     18  C   UNL     1      -6.991  -3.779 129.882  0.00  0.00    +0.000 C 
BRANCH  18  20
ATOM     19  C   UNL     1      -8.754  -3.767 128.119  0.00  0.00    +0.000 C 
ATOM     20  C   UNL     1      -7.680  -2.949 128.808  0.00  0.00    +0.000 C 
ENDBRANCH  18  20
ENDBRANCH  17  18
ENDBRANCH  16  17
ENDBRANCH  15  16
ENDBRANCH  14  15
ENDBRANCH  12  14
ENDBRANCH  11  12
ENDBRANCH  10  11
ENDBRANCH   1  10
BRANCH   5  21
ATOM     21  C   UNL     1     -11.155   6.920 131.552  0.00  0.00    +0.000 C 
BRANCH  21  22
ATOM     22  C   UNL     1     -12.583   6.759 131.133  0.00  0.00    +0.000 C 
ATOM     23  C   UNL     1     -13.147   7.582 130.242  0.00  0.00    +0.000 C 
BRANCH  23  24
ATOM     24  C   UNL     1     -12.380   8.705 129.609  0.00  0.00    +0.000 C 
BRANCH  24  25
ATOM     25  C   UNL     1     -12.552   8.679 128.106  0.00  0.00    +0.000 C 
BRANCH  25  26
ATOM     26  C   UNL     1     -12.186   7.322 127.530  0.00  0.00    +0.000 C 
BRANCH  26  27
ATOM     27  C   UNL     1     -10.903   7.298 126.735  0.00  0.00    +0.000 C 
ATOM     28  O   UNL     1      -9.941   6.620 127.087  0.00  0.00    +0.000 OA
BRANCH  27  29
ATOM     29  O   UNL     1     -10.850   8.050 125.621  0.00  0.00    +0.000 OA
ATOM     30  H   UNL     1     -10.488   7.644 124.813  0.00  0.00    +0.000 HD
ENDBRANCH  27  29
ENDBRANCH  26  27
ENDBRANCH  25  26
ENDBRANCH  24  25
ENDBRANCH  23  24
ENDBRANCH  21  22
ENDBRANCH   5  21
TORSDOF 18
ENDMDL
