MODEL 1
REMARK VINA RESULT:      -8.0      0.000      0.000
REMARK  Name = Upadacitinib
REMARK  5 active torsions:
REMARK  status: ('A' for Active; 'I' for Inactive)
REMARK    1  A    between atoms: C_1  and  C_2
REMARK    2  A    between atoms: C_2  and  C_3
REMARK    3  A    between atoms: C_7  and  C_8
REMARK    4  A    between atoms: N_22  and  C_23
REMARK    5  A    between atoms: C_23  and  C_24
REMARK                            x       y       z     vdW  Elec       q    Type
REMARK                         _______ _______ _______ _____ _____    ______ ____
ROOT
ATOM      1  C   UNL     1      -5.186  -1.959 124.888  0.00  0.00    +0.000 C 
ATOM      2  C   UNL     1      -5.481  -2.795 126.132  0.00  0.00    +0.000 C 
ATOM      3  N   UNL     1      -5.559  -1.819 127.201  0.00  0.00    +0.000 N 
ATOM      4  C   UNL     1      -6.017  -0.533 126.678  0.00  0.00    +0.000 C 
ATOM      5  C   UNL     1      -6.025  -0.681 125.140  0.00  0.00    +0.000 C 
ATOM      6  C   UNL     1      -5.224  -1.977 128.523  0.00  0.00    +0.000 C 
ATOM      7  O   UNL     1      -5.284  -1.051 129.337  0.00  0.00    +0.000 OA
ATOM      8  N   UNL     1      -4.795  -3.221 128.891  0.00  0.00    +0.000 N 
ATOM      9  H   UNL     1      -4.789  -3.970 128.217  0.00  0.00    +0.000 HD
ENDROOT
BRANCH   5  10
ATOM     10  C   UNL     1      -7.418  -0.694 124.590  0.00  0.00    +0.000 A 
ATOM     11  C   UNL     1      -8.348  -1.718 124.483  0.00  0.00    +0.000 A 
ATOM     12  N   UNL     1      -9.442  -1.347 123.734  0.00  0.00    +0.000 NA
ATOM     13  C   UNL     1      -9.209  -0.092 123.409  0.00  0.00    +0.000 A 
ATOM     14  C   UNL     1     -10.022   0.789 122.586  0.00  0.00    +0.000 A 
ATOM     15  N   UNL     1      -9.675   2.024 122.292  0.00  0.00    +0.000 NA
ATOM     16  C   UNL     1      -8.469   2.396 122.815  0.00  0.00    +0.000 A 
ATOM     17  C   UNL     1      -7.601   1.655 123.589  0.00  0.00    +0.000 A 
ATOM     18  C   UNL     1      -6.448   2.403 123.850  0.00  0.00    +0.000 A 
ATOM     19  C   UNL     1      -6.659   3.639 123.279  0.00  0.00    +0.000 A 
ATOM     20  N   UNL     1      -7.888   3.630 122.655  0.00  0.00    +0.000 N 
ATOM     21  N   UNL     1      -8.006   0.353 123.914  0.00  0.00    +0.000 N 
ATOM     22  H   UNL     1      -8.299   4.408 122.160  0.00  0.00    +0.000 HD
ENDBRANCH   5  10
BRANCH   1  24
ATOM     23  C   UNL     1      -4.526  -4.122 123.571  0.00  0.00    +0.000 C 
ATOM     24  C   UNL     1      -5.286  -2.815 123.609  0.00  0.00    +0.000 C 
ENDBRANCH   1  24
BRANCH   8  25
ATOM     25  C   UNL     1      -4.385  -3.540 130.266  0.00  0.00    +0.000 C 
BRANCH  25  26
ATOM     26  C   UNL     1      -5.392  -4.374 131.060  0.00  0.00    +0.000 C 
ATOM     27  F   UNL     1      -4.866  -4.784 132.237  0.00  0.00    +0.000 F 
ATOM     28  F   UNL     1      -6.504  -3.658 131.345  0.00  0.00    +0.000 F 
ATOM     29  F   UNL     1      -5.777  -5.475 130.379  0.00  0.00    +0.000 F 
ENDBRANCH  25  26
ENDBRANCH   8  25
TORSDOF 4
ENDMDL
MODEL 2
REMARK VINA RESULT:      -7.7      4.259      8.915
REMARK  Name = Upadacitinib
REMARK  5 active torsions:
REMARK  status: ('A' for Active; 'I' for Inactive)
REMARK    1  A    between atoms: C_1  and  C_2
REMARK    2  A    between atoms: C_2  and  C_3
REMARK    3  A    between atoms: C_7  and  C_8
REMARK    4  A    between atoms: N_22  and  C_23
REMARK    5  A    between atoms: C_23  and  C_24
REMARK                            x       y       z     vdW  Elec       q    Type
REMARK                         _______ _______ _______ _____ _____    ______ ____
ROOT
ATOM      1  C   UNL     1      -5.814  -2.912 128.896  0.00  0.00    +0.000 C 
ATOM      2  C   UNL     1      -6.535  -1.966 127.938  0.00  0.00    +0.000 C 
ATOM      3  N   UNL     1      -7.826  -2.591 127.729  0.00  0.00    +0.000 N 
ATOM      4  C   UNL     1      -8.206  -3.369 128.908  0.00  0.00    +0.000 C 
ATOM      5  C   UNL     1      -6.962  -3.383 129.825  0.00  0.00    +0.000 C 
ATOM      6  C   UNL     1      -8.617  -2.556 126.608  0.00  0.00    +0.000 C 
ATOM      7  O   UNL     1      -9.681  -3.176 126.529  0.00  0.00    +0.000 OA
ATOM      8  N   UNL     1      -8.149  -1.808 125.565  0.00  0.00    +0.000 N 
ATOM      9  H   UNL     1      -7.297  -1.281 125.667  0.00  0.00    +0.000 HD
ENDROOT
BRANCH   5  10
ATOM     10  C   UNL     1      -7.175  -2.569 131.063  0.00  0.00    +0.000 A 
ATOM     11  C   UNL     1      -7.830  -1.362 131.262  0.00  0.00    +0.000 A 
ATOM     12  N   UNL     1      -7.623  -0.863 132.529  0.00  0.00    +0.000 NA
ATOM     13  C   UNL     1      -6.876  -1.772 133.122  0.00  0.00    +0.000 A 
ATOM     14  C   UNL     1      -6.325  -1.741 134.468  0.00  0.00    +0.000 A 
ATOM     15  N   UNL     1      -5.555  -2.692 134.952  0.00  0.00    +0.000 NA
ATOM     16  C   UNL     1      -5.304  -3.702 134.067  0.00  0.00    +0.000 A 
ATOM     17  C   UNL     1      -5.747  -3.838 132.768  0.00  0.00    +0.000 A 
ATOM     18  C   UNL     1      -5.194  -4.991 132.201  0.00  0.00    +0.000 A 
ATOM     19  C   UNL     1      -4.461  -5.592 133.200  0.00  0.00    +0.000 A 
ATOM     20  N   UNL     1      -4.534  -4.807 134.331  0.00  0.00    +0.000 N 
ATOM     21  N   UNL     1      -6.590  -2.827 132.284  0.00  0.00    +0.000 N 
ATOM     22  H   UNL     1      -4.092  -5.013 135.215  0.00  0.00    +0.000 HD
ENDBRANCH   5  10
BRANCH   1  24
ATOM     23  C   UNL     1      -3.282  -3.186 129.494  0.00  0.00    +0.000 C 
ATOM     24  C   UNL     1      -4.497  -2.291 129.403  0.00  0.00    +0.000 C 
ENDBRANCH   1  24
BRANCH   8  25
ATOM     25  C   UNL     1      -8.876  -1.687 124.292  0.00  0.00    +0.000 C 
BRANCH  25  26
ATOM     26  C   UNL     1      -8.705  -2.871 123.339  0.00  0.00    +0.000 C 
ATOM     27  F   UNL     1      -8.325  -2.456 122.109  0.00  0.00    +0.000 F 
ATOM     28  F   UNL     1      -7.756  -3.725 123.785  0.00  0.00    +0.000 F 
ATOM     29  F   UNL     1      -9.853  -3.570 123.199  0.00  0.00    +0.000 F 
ENDBRANCH  25  26
ENDBRANCH   8  25
TORSDOF 4
ENDMDL
MODEL 3
REMARK VINA RESULT:      -7.7      8.621     11.251
REMARK  Name = Upadacitinib
REMARK  5 active torsions:
REMARK  status: ('A' for Active; 'I' for Inactive)
REMARK    1  A    between atoms: C_1  and  C_2
REMARK    2  A    between atoms: C_2  and  C_3
REMARK    3  A    between atoms: C_7  and  C_8
REMARK    4  A    between atoms: N_22  and  C_23
REMARK    5  A    between atoms: C_23  and  C_24
REMARK                            x       y       z     vdW  Elec       q    Type
REMARK                         _______ _______ _______ _____ _____    ______ ____
ROOT
ATOM      1  C   UNL     1      -7.919   5.930 130.769  0.00  0.00    +0.000 C 
ATOM      2  C   UNL     1      -9.243   6.550 131.212  0.00  0.00    +0.000 C 
ATOM      3  N   UNL     1     -10.241   5.849 130.428  0.00  0.00    +0.000 N 
ATOM      4  C   UNL     1      -9.778   4.499 130.113  0.00  0.00    +0.000 C 
ATOM      5  C   UNL     1      -8.302   4.441 130.567  0.00  0.00    +0.000 C 
ATOM      6  C   UNL     1     -11.443   6.322 129.963  0.00  0.00    +0.000 C 
ATOM      7  O   UNL     1     -12.192   5.643 129.256  0.00  0.00    +0.000 OA
ATOM      8  N   UNL     1     -11.761   7.605 130.311  0.00  0.00    +0.000 N 
ATOM      9  H   UNL     1     -11.150   8.126 130.920  0.00  0.00    +0.000 HD
ENDROOT
BRANCH   5  10
ATOM     10  C   UNL     1      -8.121   3.553 131.758  0.00  0.00    +0.000 A 
ATOM     11  C   UNL     1      -8.831   3.462 132.946  0.00  0.00    +0.000 A 
ATOM     12  N   UNL     1      -8.208   2.641 133.860  0.00  0.00    +0.000 NA
ATOM     13  C   UNL     1      -7.140   2.197 133.230  0.00  0.00    +0.000 A 
ATOM     14  C   UNL     1      -6.097   1.321 133.738  0.00  0.00    +0.000 A 
ATOM     15  N   UNL     1      -5.046   0.967 133.031  0.00  0.00    +0.000 NA
ATOM     16  C   UNL     1      -5.014   1.515 131.780  0.00  0.00    +0.000 A 
ATOM     17  C   UNL     1      -5.923   2.369 131.190  0.00  0.00    +0.000 A 
ATOM     18  C   UNL     1      -5.465   2.740 129.922  0.00  0.00    +0.000 A 
ATOM     19  C   UNL     1      -4.295   2.043 129.721  0.00  0.00    +0.000 A 
ATOM     20  N   UNL     1      -4.027   1.299 130.850  0.00  0.00    +0.000 N 
ATOM     21  N   UNL     1      -7.050   2.708 131.953  0.00  0.00    +0.000 N 
ATOM     22  H   UNL     1      -3.232   0.689 130.974  0.00  0.00    +0.000 HD
ENDBRANCH   5  10
BRANCH   1  24
ATOM     23  C   UNL     1      -5.525   6.961 130.985  0.00  0.00    +0.000 C 
ATOM     24  C   UNL     1      -6.756   6.405 131.663  0.00  0.00    +0.000 C 
ENDBRANCH   1  24
BRANCH   8  25
ATOM     25  C   UNL     1     -13.005   8.256 129.875  0.00  0.00    +0.000 C 
BRANCH  25  26
ATOM     26  C   UNL     1     -12.978   8.806 128.448  0.00  0.00    +0.000 C 
ATOM     27  F   UNL     1     -13.563  10.024 128.384  0.00  0.00    +0.000 F 
ATOM     28  F   UNL     1     -11.708   8.947 128.002  0.00  0.00    +0.000 F 
ATOM     29  F   UNL     1     -13.627   7.993 127.587  0.00  0.00    +0.000 F 
ENDBRANCH  25  26
ENDBRANCH   8  25
TORSDOF 4
ENDMDL
MODEL 4
REMARK VINA RESULT:      -7.7      9.059     11.717
REMARK  Name = Upadacitinib
REMARK  5 active torsions:
REMARK  status: ('A' for Active; 'I' for Inactive)
REMARK    1  A    between atoms: C_1  and  C_2
REMARK    2  A    between atoms: C_2  and  C_3
REMARK    3  A    between atoms: C_7  and  C_8
REMARK    4  A    between atoms: N_22  and  C_23
REMARK    5  A    between atoms: C_23  and  C_24
REMARK                            x       y       z     vdW  Elec       q    Type
REMARK                         _______ _______ _______ _____ _____    ______ ____
ROOT
ATOM      1  C   UNL     1      -8.448   5.903 132.923  0.00  0.00    +0.000 C 
ATOM      2  C   UNL     1      -9.570   5.792 131.893  0.00  0.00    +0.000 C 
ATOM      3  N   UNL     1      -9.184   6.722 130.850  0.00  0.00    +0.000 N 
ATOM      4  C   UNL     1      -7.728   6.843 130.795  0.00  0.00    +0.000 C 
ATOM      5  C   UNL     1      -7.194   6.084 132.031  0.00  0.00    +0.000 C 
ATOM      6  C   UNL     1      -9.997   7.461 130.027  0.00  0.00    +0.000 C 
ATOM      7  O   UNL     1      -9.550   8.266 129.205  0.00  0.00    +0.000 OA
ATOM      8  N   UNL     1     -11.341   7.274 130.181  0.00  0.00    +0.000 N 
ATOM      9  H   UNL     1     -11.681   6.584 130.832  0.00  0.00    +0.000 HD
ENDROOT
BRANCH   5  10
ATOM     10  C   UNL     1      -6.480   4.826 131.644  0.00  0.00    +0.000 A 
ATOM     11  C   UNL     1      -6.756   3.884 130.664  0.00  0.00    +0.000 A 
ATOM     12  N   UNL     1      -5.951   2.771 130.774  0.00  0.00    +0.000 NA
ATOM     13  C   UNL     1      -5.159   3.038 131.792  0.00  0.00    +0.000 A 
ATOM     14  C   UNL     1      -4.133   2.189 132.377  0.00  0.00    +0.000 A 
ATOM     15  N   UNL     1      -3.418   2.542 133.425  0.00  0.00    +0.000 NA
ATOM     16  C   UNL     1      -3.743   3.771 133.925  0.00  0.00    +0.000 A 
ATOM     17  C   UNL     1      -4.702   4.656 133.478  0.00  0.00    +0.000 A 
ATOM     18  C   UNL     1      -4.747   5.768 134.326  0.00  0.00    +0.000 A 
ATOM     19  C   UNL     1      -3.751   5.576 135.258  0.00  0.00    +0.000 A 
ATOM     20  N   UNL     1      -3.144   4.364 135.008  0.00  0.00    +0.000 N 
ATOM     21  N   UNL     1      -5.430   4.272 132.342  0.00  0.00    +0.000 N 
ATOM     22  H   UNL     1      -2.377   3.974 135.537  0.00  0.00    +0.000 HD
ENDBRANCH   5  10
BRANCH   1  24
ATOM     23  C   UNL     1      -9.147   3.474 133.599  0.00  0.00    +0.000 C 
ATOM     24  C   UNL     1      -8.583   4.815 134.009  0.00  0.00    +0.000 C 
ENDBRANCH   1  24
BRANCH   8  25
ATOM     25  C   UNL     1     -12.337   8.005 129.383  0.00  0.00    +0.000 C 
BRANCH  25  26
ATOM     26  C   UNL     1     -12.923   7.219 128.209  0.00  0.00    +0.000 C 
ATOM     27  F   UNL     1     -11.968   6.916 127.301  0.00  0.00    +0.000 F 
ATOM     28  F   UNL     1     -13.468   6.053 128.624  0.00  0.00    +0.000 F 
ATOM     29  F   UNL     1     -13.887   7.918 127.572  0.00  0.00    +0.000 F 
ENDBRANCH  25  26
ENDBRANCH   8  25
TORSDOF 4
ENDMDL
MODEL 5
REMARK VINA RESULT:      -7.5      8.347     10.884
REMARK  Name = Upadacitinib
REMARK  5 active torsions:
REMARK  status: ('A' for Active; 'I' for Inactive)
REMARK    1  A    between atoms: C_1  and  C_2
REMARK    2  A    between atoms: C_2  and  C_3
REMARK    3  A    between atoms: C_7  and  C_8
REMARK    4  A    between atoms: N_22  and  C_23
REMARK    5  A    between atoms: C_23  and  C_24
REMARK                            x       y       z     vdW  Elec       q    Type
REMARK                         _______ _______ _______ _____ _____    ______ ____
ROOT
ATOM      1  C   UNL     1      -8.613   4.961 132.277  0.00  0.00    +0.000 C 
ATOM      2  C   UNL     1      -9.920   5.480 131.679  0.00  0.00    +0.000 C 
ATOM      3  N   UNL     1      -9.657   5.536 130.254  0.00  0.00    +0.000 N 
ATOM      4  C   UNL     1      -8.671   4.523 129.883  0.00  0.00    +0.000 C 
ATOM      5  C   UNL     1      -8.143   3.938 131.212  0.00  0.00    +0.000 C 
ATOM      6  C   UNL     1     -10.170   6.411 129.329  0.00  0.00    +0.000 C 
ATOM      7  O   UNL     1      -9.829   6.395 128.143  0.00  0.00    +0.000 OA
ATOM      8  N   UNL     1     -11.072   7.324 129.799  0.00  0.00    +0.000 N 
ATOM      9  H   UNL     1     -11.362   7.293 130.763  0.00  0.00    +0.000 HD
ENDROOT
BRANCH   5  10
ATOM     10  C   UNL     1      -8.597   2.526 131.418  0.00  0.00    +0.000 A 
ATOM     11  C   UNL     1      -9.868   1.984 131.542  0.00  0.00    +0.000 A 
ATOM     12  N   UNL     1      -9.830   0.659 131.916  0.00  0.00    +0.000 NA
ATOM     13  C   UNL     1      -8.547   0.372 131.986  0.00  0.00    +0.000 A 
ATOM     14  C   UNL     1      -7.928  -0.885 132.376  0.00  0.00    +0.000 A 
ATOM     15  N   UNL     1      -6.624  -1.053 132.448  0.00  0.00    +0.000 NA
ATOM     16  C   UNL     1      -5.906   0.068 132.142  0.00  0.00    +0.000 A 
ATOM     17  C   UNL     1      -6.370   1.315 131.780  0.00  0.00    +0.000 A 
ATOM     18  C   UNL     1      -5.291   2.191 131.623  0.00  0.00    +0.000 A 
ATOM     19  C   UNL     1      -4.157   1.438 131.830  0.00  0.00    +0.000 A 
ATOM     20  N   UNL     1      -4.536   0.150 132.142  0.00  0.00    +0.000 N 
ATOM     21  N   UNL     1      -7.761   1.462 131.680  0.00  0.00    +0.000 N 
ATOM     22  H   UNL     1      -3.906  -0.615 132.336  0.00  0.00    +0.000 HD
ENDBRANCH   5  10
BRANCH   1  24
ATOM     23  C   UNL     1      -7.559   4.182 134.541  0.00  0.00    +0.000 C 
ATOM     24  C   UNL     1      -8.782   4.629 133.774  0.00  0.00    +0.000 C 
ENDBRANCH   1  24
BRANCH   8  25
ATOM     25  C   UNL     1     -11.696   8.335 128.932  0.00  0.00    +0.000 C 
BRANCH  25  26
ATOM     26  C   UNL     1     -13.054   7.935 128.352  0.00  0.00    +0.000 C 
ATOM     27  F   UNL     1     -12.910   7.316 127.158  0.00  0.00    +0.000 F 
ATOM     28  F   UNL     1     -13.703   7.078 129.173  0.00  0.00    +0.000 F 
ATOM     29  F   UNL     1     -13.853   9.008 128.164  0.00  0.00    +0.000 F 
ENDBRANCH  25  26
ENDBRANCH   8  25
TORSDOF 4
ENDMDL
MODEL 6
REMARK VINA RESULT:      -7.5      5.206      6.769
REMARK  Name = Upadacitinib
REMARK  5 active torsions:
REMARK  status: ('A' for Active; 'I' for Inactive)
REMARK    1  A    between atoms: C_1  and  C_2
REMARK    2  A    between atoms: C_2  and  C_3
REMARK    3  A    between atoms: C_7  and  C_8
REMARK    4  A    between atoms: N_22  and  C_23
REMARK    5  A    between atoms: C_23  and  C_24
REMARK                            x       y       z     vdW  Elec       q    Type
REMARK                         _______ _______ _______ _____ _____    ______ ____
ROOT
ATOM      1  C   UNL     1      -6.953   1.614 127.494  0.00  0.00    +0.000 C 
ATOM      2  C   UNL     1      -6.352   3.004 127.695  0.00  0.00    +0.000 C 
ATOM      3  N   UNL     1      -5.093   2.950 126.977  0.00  0.00    +0.000 N 
ATOM      4  C   UNL     1      -5.187   2.007 125.864  0.00  0.00    +0.000 C 
ATOM      5  C   UNL     1      -6.540   1.280 126.038  0.00  0.00    +0.000 C 
ATOM      6  C   UNL     1      -3.924   3.610 127.260  0.00  0.00    +0.000 C 
ATOM      7  O   UNL     1      -2.893   3.444 126.602  0.00  0.00    +0.000 OA
ATOM      8  N   UNL     1      -3.954   4.455 128.334  0.00  0.00    +0.000 N 
ATOM      9  H   UNL     1      -4.817   4.602 128.833  0.00  0.00    +0.000 HD
ENDROOT
BRANCH   5  10
ATOM     10  C   UNL     1      -7.521   1.669 124.975  0.00  0.00    +0.000 A 
ATOM     11  C   UNL     1      -8.044   2.905 124.623  0.00  0.00    +0.000 A 
ATOM     12  N   UNL     1      -9.070   2.791 123.711  0.00  0.00    +0.000 NA
ATOM     13  C   UNL     1      -9.157   1.499 123.472  0.00  0.00    +0.000 A 
ATOM     14  C   UNL     1     -10.101   0.807 122.609  0.00  0.00    +0.000 A 
ATOM     15  N   UNL     1     -10.124  -0.501 122.470  0.00  0.00    +0.000 NA
ATOM     16  C   UNL     1      -9.190  -1.152 123.226  0.00  0.00    +0.000 A 
ATOM     17  C   UNL     1      -8.259  -0.618 124.091  0.00  0.00    +0.000 A 
ATOM     18  C   UNL     1      -7.547  -1.650 124.712  0.00  0.00    +0.000 A 
ATOM     19  C   UNL     1      -8.015  -2.820 124.159  0.00  0.00    +0.000 A 
ATOM     20  N   UNL     1      -9.010  -2.513 123.256  0.00  0.00    +0.000 N 
ATOM     21  N   UNL     1      -8.234   0.780 124.200  0.00  0.00    +0.000 N 
ATOM     22  H   UNL     1      -9.524  -3.181 122.701  0.00  0.00    +0.000 HD
ENDBRANCH   5  10
BRANCH   1  24
ATOM     23  C   UNL     1      -8.731   2.300 129.287  0.00  0.00    +0.000 C 
ATOM     24  C   UNL     1      -8.405   1.558 128.011  0.00  0.00    +0.000 C 
ENDBRANCH   1  24
BRANCH   8  25
ATOM     25  C   UNL     1      -2.776   5.219 128.772  0.00  0.00    +0.000 C 
BRANCH  25  26
ATOM     26  C   UNL     1      -2.843   6.721 128.489  0.00  0.00    +0.000 C 
ATOM     27  F   UNL     1      -3.915   7.025 127.722  0.00  0.00    +0.000 F 
ATOM     28  F   UNL     1      -2.955   7.429 129.635  0.00  0.00    +0.000 F 
ATOM     29  F   UNL     1      -1.740   7.157 127.843  0.00  0.00    +0.000 F 
ENDBRANCH  25  26
ENDBRANCH   8  25
TORSDOF 4
ENDMDL
MODEL 7
REMARK VINA RESULT:      -7.3      4.945      6.736
REMARK  Name = Upadacitinib
REMARK  5 active torsions:
REMARK  status: ('A' for Active; 'I' for Inactive)
REMARK    1  A    between atoms: C_1  and  C_2
REMARK    2  A    between atoms: C_2  and  C_3
REMARK    3  A    between atoms: C_7  and  C_8
REMARK    4  A    between atoms: N_22  and  C_23
REMARK    5  A    between atoms: C_23  and  C_24
REMARK                            x       y       z     vdW  Elec       q    Type
REMARK                         _______ _______ _______ _____ _____    ______ ____
ROOT
ATOM      1  C   UNL     1      -5.653   2.360 125.452  0.00  0.00    +0.000 C 
ATOM      2  C   UNL     1      -6.775   1.387 125.096  0.00  0.00    +0.000 C 
ATOM      3  N   UNL     1      -6.339   0.124 125.661  0.00  0.00    +0.000 N 
ATOM      4  C   UNL     1      -5.498   0.360 126.833  0.00  0.00    +0.000 C 
ATOM      5  C   UNL     1      -5.236   1.883 126.866  0.00  0.00    +0.000 C 
ATOM      6  C   UNL     1      -6.587  -1.144 125.199  0.00  0.00    +0.000 C 
ATOM      7  O   UNL     1      -6.116  -2.149 125.739  0.00  0.00    +0.000 OA
ATOM      8  N   UNL     1      -7.375  -1.237 124.086  0.00  0.00    +0.000 N 
ATOM      9  H   UNL     1      -7.779  -0.406 123.686  0.00  0.00    +0.000 HD
ENDROOT
BRANCH   5  10
ATOM     10  C   UNL     1      -5.938   2.543 128.012  0.00  0.00    +0.000 A 
ATOM     11  C   UNL     1      -7.157   2.270 128.616  0.00  0.00    +0.000 A 
ATOM     12  N   UNL     1      -7.519   3.247 129.517  0.00  0.00    +0.000 NA
ATOM     13  C   UNL     1      -6.514   4.099 129.499  0.00  0.00    +0.000 A 
ATOM     14  C   UNL     1      -6.382   5.346 130.236  0.00  0.00    +0.000 A 
ATOM     15  N   UNL     1      -5.344   6.146 130.115  0.00  0.00    +0.000 NA
ATOM     16  C   UNL     1      -4.411   5.707 129.220  0.00  0.00    +0.000 A 
ATOM     17  C   UNL     1      -4.427   4.563 128.450  0.00  0.00    +0.000 A 
ATOM     18  C   UNL     1      -3.303   4.539 127.619  0.00  0.00    +0.000 A 
ATOM     19  C   UNL     1      -2.565   5.655 127.944  0.00  0.00    +0.000 A 
ATOM     20  N   UNL     1      -3.241   6.359 128.918  0.00  0.00    +0.000 N 
ATOM     21  N   UNL     1      -5.529   3.711 128.618  0.00  0.00    +0.000 N 
ATOM     22  H   UNL     1      -2.925   7.218 129.345  0.00  0.00    +0.000 HD
ENDBRANCH   5  10
BRANCH   1  24
ATOM     23  C   UNL     1      -5.634   4.367 123.774  0.00  0.00    +0.000 C 
ATOM     24  C   UNL     1      -6.051   3.812 125.117  0.00  0.00    +0.000 C 
ENDBRANCH   1  24
BRANCH   8  25
ATOM     25  C   UNL     1      -7.716  -2.526 123.466  0.00  0.00    +0.000 C 
BRANCH  25  26
ATOM     26  C   UNL     1      -8.890  -3.262 124.114  0.00  0.00    +0.000 C 
ATOM     27  F   UNL     1      -9.816  -3.610 123.192  0.00  0.00    +0.000 F 
ATOM     28  F   UNL     1      -8.479  -4.399 124.720  0.00  0.00    +0.000 F 
ATOM     29  F   UNL     1      -9.504  -2.500 125.045  0.00  0.00    +0.000 F 
ENDBRANCH  25  26
ENDBRANCH   8  25
TORSDOF 4
ENDMDL
MODEL 8
REMARK VINA RESULT:      -7.2      5.076      6.941
REMARK  Name = Upadacitinib
REMARK  5 active torsions:
REMARK  status: ('A' for Active; 'I' for Inactive)
REMARK    1  A    between atoms: C_1  and  C_2
REMARK    2  A    between atoms: C_2  and  C_3
REMARK    3  A    between atoms: C_7  and  C_8
REMARK    4  A    between atoms: N_22  and  C_23
REMARK    5  A    between atoms: C_23  and  C_24
REMARK                            x       y       z     vdW  Elec       q    Type
REMARK                         _______ _______ _______ _____ _____    ______ ____
ROOT
ATOM      1  C   UNL     1      -6.698   1.948 127.655  0.00  0.00    +0.000 C 
ATOM      2  C   UNL     1      -6.297   3.389 127.345  0.00  0.00    +0.000 C 
ATOM      3  N   UNL     1      -4.904   3.290 126.954  0.00  0.00    +0.000 N 
ATOM      4  C   UNL     1      -4.640   1.983 126.354  0.00  0.00    +0.000 C 
ATOM      5  C   UNL     1      -5.920   1.148 126.580  0.00  0.00    +0.000 C 
ATOM      6  C   UNL     1      -3.904   4.214 127.130  0.00  0.00    +0.000 C 
ATOM      7  O   UNL     1      -2.735   3.995 126.800  0.00  0.00    +0.000 OA
ATOM      8  N   UNL     1      -4.270   5.393 127.716  0.00  0.00    +0.000 N 
ATOM      9  H   UNL     1      -5.237   5.563 127.942  0.00  0.00    +0.000 HD
ENDROOT
BRANCH   5  10
ATOM     10  C   UNL     1      -6.651   0.893 125.298  0.00  0.00    +0.000 A 
ATOM     11  C   UNL     1      -6.802   1.675 124.162  0.00  0.00    +0.000 A 
ATOM     12  N   UNL     1      -7.720   1.141 123.285  0.00  0.00    +0.000 NA
ATOM     13  C   UNL     1      -8.107   0.019 123.856  0.00  0.00    +0.000 A 
ATOM     14  C   UNL     1      -9.099  -0.933 123.382  0.00  0.00    +0.000 A 
ATOM     15  N   UNL     1      -9.440  -2.012 124.055  0.00  0.00    +0.000 NA
ATOM     16  C   UNL     1      -8.788  -2.146 125.248  0.00  0.00    +0.000 A 
ATOM     17  C   UNL     1      -7.848  -1.310 125.814  0.00  0.00    +0.000 A 
ATOM     18  C   UNL     1      -7.493  -1.791 127.079  0.00  0.00    +0.000 A 
ATOM     19  C   UNL     1      -8.182  -2.971 127.244  0.00  0.00    +0.000 A 
ATOM     20  N   UNL     1      -8.964  -3.183 126.129  0.00  0.00    +0.000 N 
ATOM     21  N   UNL     1      -7.480  -0.183 125.066  0.00  0.00    +0.000 N 
ATOM     22  H   UNL     1      -9.570  -3.978 125.982  0.00  0.00    +0.000 HD
ENDBRANCH   5  10
BRANCH   1  24
ATOM     23  C   UNL     1      -8.770   2.257 129.222  0.00  0.00    +0.000 C 
ATOM     24  C   UNL     1      -8.220   1.832 127.880  0.00  0.00    +0.000 C 
ENDBRANCH   1  24
BRANCH   8  25
ATOM     25  C   UNL     1      -3.308   6.472 127.985  0.00  0.00    +0.000 C 
BRANCH  25  26
ATOM     26  C   UNL     1      -2.715   6.468 129.396  0.00  0.00    +0.000 C 
ATOM     27  F   UNL     1      -3.063   5.346 130.067  0.00  0.00    +0.000 F 
ATOM     28  F   UNL     1      -1.364   6.512 129.358  0.00  0.00    +0.000 F 
ATOM     29  F   UNL     1      -3.140   7.526 130.119  0.00  0.00    +0.000 F 
ENDBRANCH  25  26
ENDBRANCH   8  25
TORSDOF 4
ENDMDL
MODEL 9
REMARK VINA RESULT:      -7.2      2.655      4.275
REMARK  Name = Upadacitinib
REMARK  5 active torsions:
REMARK  status: ('A' for Active; 'I' for Inactive)
REMARK    1  A    between atoms: C_1  and  C_2
REMARK    2  A    between atoms: C_2  and  C_3
REMARK    3  A    between atoms: C_7  and  C_8
REMARK    4  A    between atoms: N_22  and  C_23
REMARK    5  A    between atoms: C_23  and  C_24
REMARK                            x       y       z     vdW  Elec       q    Type
REMARK                         _______ _______ _______ _____ _____    ______ ____
ROOT
ATOM      1  C   UNL     1      -7.087  -3.273 129.054  0.00  0.00    +0.000 C 
ATOM      2  C   UNL     1      -6.600  -2.843 130.437  0.00  0.00    +0.000 C 
ATOM      3  N   UNL     1      -5.198  -2.531 130.236  0.00  0.00    +0.000 N 
ATOM      4  C   UNL     1      -4.975  -2.075 128.865  0.00  0.00    +0.000 C 
ATOM      5  C   UNL     1      -6.304  -2.320 128.115  0.00  0.00    +0.000 C 
ATOM      6  C   UNL     1      -4.161  -2.663 131.125  0.00  0.00    +0.000 C 
ATOM      7  O   UNL     1      -2.992  -2.412 130.821  0.00  0.00    +0.000 OA
ATOM      8  N   UNL     1      -4.492  -3.113 132.373  0.00  0.00    +0.000 N 
ATOM      9  H   UNL     1      -5.458  -3.275 132.609  0.00  0.00    +0.000 HD
ENDROOT
BRANCH   5  10
ATOM     10  C   UNL     1      -6.991  -1.036 127.768  0.00  0.00    +0.000 A 
ATOM     11  C   UNL     1      -7.178   0.128 128.500  0.00  0.00    +0.000 A 
ATOM     12  N   UNL     1      -8.039   1.002 127.874  0.00  0.00    +0.000 NA
ATOM     13  C   UNL     1      -8.353   0.400 126.745  0.00  0.00    +0.000 A 
ATOM     14  C   UNL     1      -9.266   0.858 125.709  0.00  0.00    +0.000 A 
ATOM     15  N   UNL     1      -9.539   0.156 124.629  0.00  0.00    +0.000 NA
ATOM     16  C   UNL     1      -8.901  -1.051 124.581  0.00  0.00    +0.000 A 
ATOM     17  C   UNL     1      -8.035  -1.604 125.500  0.00  0.00    +0.000 A 
ATOM     18  C   UNL     1      -7.669  -2.889 125.087  0.00  0.00    +0.000 A 
ATOM     19  C   UNL     1      -8.273  -3.083 123.865  0.00  0.00    +0.000 A 
ATOM     20  N   UNL     1      -9.018  -1.963 123.562  0.00  0.00    +0.000 N 
ATOM     21  N   UNL     1      -7.736  -0.826 126.628  0.00  0.00    +0.000 N 
ATOM     22  H   UNL     1      -9.561  -1.832 122.721  0.00  0.00    +0.000 HD
ENDBRANCH   5  10
BRANCH   1  24
ATOM     23  C   UNL     1      -9.232  -4.212 127.889  0.00  0.00    +0.000 C 
ATOM     24  C   UNL     1      -8.620  -3.435 129.032  0.00  0.00    +0.000 C 
ENDBRANCH   1  24
BRANCH   8  25
ATOM     25  C   UNL     1      -3.489  -3.321 133.428  0.00  0.00    +0.000 C 
BRANCH  25  26
ATOM     26  C   UNL     1      -3.291  -4.778 133.848  0.00  0.00    +0.000 C 
ATOM     27  F   UNL     1      -2.201  -5.313 133.250  0.00  0.00    +0.000 F 
ATOM     28  F   UNL     1      -3.107  -4.882 135.184  0.00  0.00    +0.000 F 
ATOM     29  F   UNL     1      -4.355  -5.542 133.520  0.00  0.00    +0.000 F 
ENDBRANCH  25  26
ENDBRANCH   8  25
TORSDOF 4
ENDMDL
