MODEL 1
REMARK VINA RESULT:      -5.9      0.000      0.000
REMARK  Name = Uracil mustard
REMARK  5 active torsions:
REMARK  status: ('A' for Active; 'I' for Inactive)
REMARK    1  A    between atoms: C_2  and  C_3
REMARK    2  A    between atoms: C_3  and  N_4
REMARK    3  A    between atoms: N_4  and  C_5
REMARK    4  A    between atoms: N_4  and  C_8
REMARK    5  A    between atoms: C_5  and  C_6
REMARK                            x       y       z     vdW  Elec       q    Type
REMARK                         _______ _______ _______ _____ _____    ______ ____
ROOT
ATOM      1  C   UNL     1     -11.653   7.270 130.108  0.00  0.00    +0.000 A 
ATOM      2  C   UNL     1     -12.148   6.637 131.189  0.00  0.00    +0.000 A 
ATOM      3  N   UNL     1     -11.362   6.092 132.167  0.00  0.00    +0.000 N 
ATOM      4  C   UNL     1      -9.997   6.142 132.168  0.00  0.00    +0.000 A 
ATOM      5  O   UNL     1      -9.327   5.641 133.057  0.00  0.00    +0.000 OA
ATOM      6  N   UNL     1      -9.442   6.788 131.104  0.00  0.00    +0.000 N 
ATOM      7  C   UNL     1     -10.129   7.375 130.079  0.00  0.00    +0.000 A 
ATOM      8  O   UNL     1      -9.516   7.979 129.200  0.00  0.00    +0.000 OA
ATOM      9  H   UNL     1     -11.778   5.589 132.944  0.00  0.00    +0.000 HD
ATOM     10  H   UNL     1      -8.438   6.861 131.086  0.00  0.00    +0.000 HD
ENDROOT
BRANCH   1  11
ATOM     11  N   UNL     1     -12.442   7.804 129.045  0.00  0.00    +0.000 N 
BRANCH  11  12
ATOM     12  C   UNL     1     -12.907   6.829 127.993  0.00  0.00    +0.000 C 
BRANCH  12  14
ATOM     13 CL   UNL     1     -10.962   7.772 126.235  0.00  0.00    +0.000 Cl
ATOM     14  C   UNL     1     -12.574   7.090 126.534  0.00  0.00    +0.000 C 
ENDBRANCH  12  14
ENDBRANCH  11  12
BRANCH  11  15
ATOM     15  C   UNL     1     -12.721   9.283 129.064  0.00  0.00    +0.000 C 
BRANCH  15  16
ATOM     16  C   UNL     1     -13.164   9.938 130.364  0.00  0.00    +0.000 C 
ATOM     17 CL   UNL     1     -13.601  11.655 130.237  0.00  0.00    +0.000 Cl
ENDBRANCH  15  16
ENDBRANCH  11  15
ENDBRANCH   1  11
TORSDOF 5
ENDMDL
MODEL 2
REMARK VINA RESULT:      -5.7      1.255      3.424
REMARK  Name = Uracil mustard
REMARK  5 active torsions:
REMARK  status: ('A' for Active; 'I' for Inactive)
REMARK    1  A    between atoms: C_2  and  C_3
REMARK    2  A    between atoms: C_3  and  N_4
REMARK    3  A    between atoms: N_4  and  C_5
REMARK    4  A    between atoms: N_4  and  C_8
REMARK    5  A    between atoms: C_5  and  C_6
REMARK                            x       y       z     vdW  Elec       q    Type
REMARK                         _______ _______ _______ _____ _____    ______ ____
ROOT
ATOM      1  C   UNL     1     -11.524   7.270 130.040  0.00  0.00    +0.000 A 
ATOM      2  C   UNL     1     -10.223   6.936 129.944  0.00  0.00    +0.000 A 
ATOM      3  N   UNL     1      -9.517   6.357 130.964  0.00  0.00    +0.000 N 
ATOM      4  C   UNL     1     -10.051   6.038 132.179  0.00  0.00    +0.000 A 
ATOM      5  O   UNL     1      -9.390   5.525 133.067  0.00  0.00    +0.000 OA
ATOM      6  N   UNL     1     -11.372   6.338 132.326  0.00  0.00    +0.000 N 
ATOM      7  C   UNL     1     -12.173   6.906 131.375  0.00  0.00    +0.000 A 
ATOM      8  O   UNL     1     -13.369   7.078 131.608  0.00  0.00    +0.000 OA
ATOM      9  H   UNL     1      -8.527   6.159 130.859  0.00  0.00    +0.000 HD
ATOM     10  H   UNL     1     -11.802   6.095 133.204  0.00  0.00    +0.000 HD
ENDROOT
BRANCH   1  11
ATOM     11  N   UNL     1     -12.276   7.921 129.017  0.00  0.00    +0.000 N 
BRANCH  11  12
ATOM     12  C   UNL     1     -12.286   9.429 129.041  0.00  0.00    +0.000 C 
BRANCH  12  14
ATOM     13 CL   UNL     1     -13.565  11.531 130.349  0.00  0.00    +0.000 Cl
ATOM     14  C   UNL     1     -13.605  10.163 129.217  0.00  0.00    +0.000 C 
ENDBRANCH  12  14
ENDBRANCH  11  12
BRANCH  11  15
ATOM     15  C   UNL     1     -12.995   7.048 128.024  0.00  0.00    +0.000 C 
BRANCH  15  16
ATOM     16  C   UNL     1     -12.505   7.003 126.584  0.00  0.00    +0.000 C 
ATOM     17 CL   UNL     1     -10.856   7.608 126.325  0.00  0.00    +0.000 Cl
ENDBRANCH  15  16
ENDBRANCH  11  15
ENDBRANCH   1  11
TORSDOF 5
ENDMDL
MODEL 3
REMARK VINA RESULT:      -5.6      1.654      3.136
REMARK  Name = Uracil mustard
REMARK  5 active torsions:
REMARK  status: ('A' for Active; 'I' for Inactive)
REMARK    1  A    between atoms: C_2  and  C_3
REMARK    2  A    between atoms: C_3  and  N_4
REMARK    3  A    between atoms: N_4  and  C_5
REMARK    4  A    between atoms: N_4  and  C_8
REMARK    5  A    between atoms: C_5  and  C_6
REMARK                            x       y       z     vdW  Elec       q    Type
REMARK                         _______ _______ _______ _____ _____    ______ ____
ROOT
ATOM      1  C   UNL     1     -10.866   6.724 129.872  0.00  0.00    +0.000 A 
ATOM      2  C   UNL     1     -11.633   5.647 130.126  0.00  0.00    +0.000 A 
ATOM      3  N   UNL     1     -11.157   4.503 130.706  0.00  0.00    +0.000 N 
ATOM      4  C   UNL     1      -9.863   4.331 131.106  0.00  0.00    +0.000 A 
ATOM      5  O   UNL     1      -9.471   3.294 131.618  0.00  0.00    +0.000 OA
ATOM      6  N   UNL     1      -9.044   5.398 130.889  0.00  0.00    +0.000 N 
ATOM      7  C   UNL     1      -9.415   6.589 130.329  0.00  0.00    +0.000 A 
ATOM      8  O   UNL     1      -8.594   7.501 130.235  0.00  0.00    +0.000 OA
ATOM      9  H   UNL     1     -11.763   3.701 130.842  0.00  0.00    +0.000 HD
ATOM     10  H   UNL     1      -8.087   5.312 131.193  0.00  0.00    +0.000 HD
ENDROOT
BRANCH   1  11
ATOM     11  N   UNL     1     -11.319   7.912 129.223  0.00  0.00    +0.000 N 
BRANCH  11  12
ATOM     12  C   UNL     1     -12.482   8.630 129.860  0.00  0.00    +0.000 C 
BRANCH  12  14
ATOM     13 CL   UNL     1     -13.562  11.190 130.072  0.00  0.00    +0.000 Cl
ATOM     14  C   UNL     1     -13.172   9.753 129.104  0.00  0.00    +0.000 C 
ENDBRANCH  12  14
ENDBRANCH  11  12
BRANCH  11  15
ATOM     15  C   UNL     1     -10.609   8.327 127.962  0.00  0.00    +0.000 C 
BRANCH  15  16
ATOM     16  C   UNL     1     -10.983   7.662 126.646  0.00  0.00    +0.000 C 
ATOM     17 CL   UNL     1     -12.621   6.977 126.582  0.00  0.00    +0.000 Cl
ENDBRANCH  15  16
ENDBRANCH  11  15
ENDBRANCH   1  11
TORSDOF 5
ENDMDL
MODEL 4
REMARK VINA RESULT:      -5.2      9.498     11.185
REMARK  Name = Uracil mustard
REMARK  5 active torsions:
REMARK  status: ('A' for Active; 'I' for Inactive)
REMARK    1  A    between atoms: C_2  and  C_3
REMARK    2  A    between atoms: C_3  and  N_4
REMARK    3  A    between atoms: N_4  and  C_5
REMARK    4  A    between atoms: N_4  and  C_8
REMARK    5  A    between atoms: C_5  and  C_6
REMARK                            x       y       z     vdW  Elec       q    Type
REMARK                         _______ _______ _______ _____ _____    ______ ____
ROOT
ATOM      1  C   UNL     1      -8.679  -0.032 124.482  0.00  0.00    +0.000 A 
ATOM      2  C   UNL     1      -7.862   0.623 125.328  0.00  0.00    +0.000 A 
ATOM      3  N   UNL     1      -7.897   1.979 125.511  0.00  0.00    +0.000 N 
ATOM      4  C   UNL     1      -8.769   2.813 124.873  0.00  0.00    +0.000 A 
ATOM      5  O   UNL     1      -8.770   4.019 125.058  0.00  0.00    +0.000 OA
ATOM      6  N   UNL     1      -9.634   2.200 124.016  0.00  0.00    +0.000 N 
ATOM      7  C   UNL     1      -9.693   0.858 123.765  0.00  0.00    +0.000 A 
ATOM      8  O   UNL     1     -10.557   0.415 123.009  0.00  0.00    +0.000 OA
ATOM      9  H   UNL     1      -7.234   2.434 126.130  0.00  0.00    +0.000 HD
ATOM     10  H   UNL     1     -10.305   2.785 123.546  0.00  0.00    +0.000 HD
ENDROOT
BRANCH   1  11
ATOM     11  N   UNL     1      -8.634  -1.437 124.230  0.00  0.00    +0.000 N 
BRANCH  11  12
ATOM     12  C   UNL     1      -9.220  -2.333 125.291  0.00  0.00    +0.000 C 
BRANCH  12  14
ATOM     13 CL   UNL     1      -9.018  -3.895 127.590  0.00  0.00    +0.000 Cl
ATOM     14  C   UNL     1      -8.298  -3.216 126.115  0.00  0.00    +0.000 C 
ENDBRANCH  12  14
ENDBRANCH  11  12
BRANCH  11  15
ATOM     15  C   UNL     1      -7.997  -1.890 122.944  0.00  0.00    +0.000 C 
BRANCH  15  16
ATOM     16  C   UNL     1      -6.515  -1.632 122.718  0.00  0.00    +0.000 C 
ATOM     17 CL   UNL     1      -5.418  -2.811 123.468  0.00  0.00    +0.000 Cl
ENDBRANCH  15  16
ENDBRANCH  11  15
ENDBRANCH   1  11
TORSDOF 5
ENDMDL
MODEL 5
REMARK VINA RESULT:      -5.1      3.747      5.454
REMARK  Name = Uracil mustard
REMARK  5 active torsions:
REMARK  status: ('A' for Active; 'I' for Inactive)
REMARK    1  A    between atoms: C_2  and  C_3
REMARK    2  A    between atoms: C_3  and  N_4
REMARK    3  A    between atoms: N_4  and  C_5
REMARK    4  A    between atoms: N_4  and  C_8
REMARK    5  A    between atoms: C_5  and  C_6
REMARK                            x       y       z     vdW  Elec       q    Type
REMARK                         _______ _______ _______ _____ _____    ______ ____
ROOT
ATOM      1  C   UNL     1     -10.499   6.757 130.347  0.00  0.00    +0.000 A 
ATOM      2  C   UNL     1     -10.173   7.552 129.310  0.00  0.00    +0.000 A 
ATOM      3  N   UNL     1     -11.035   8.457 128.755  0.00  0.00    +0.000 N 
ATOM      4  C   UNL     1     -12.309   8.669 129.197  0.00  0.00    +0.000 A 
ATOM      5  O   UNL     1     -13.053   9.484 128.674  0.00  0.00    +0.000 OA
ATOM      6  N   UNL     1     -12.688   7.903 130.258  0.00  0.00    +0.000 N 
ATOM      7  C   UNL     1     -11.908   6.979 130.895  0.00  0.00    +0.000 A 
ATOM      8  O   UNL     1     -12.345   6.386 131.881  0.00  0.00    +0.000 OA
ATOM      9  H   UNL     1     -10.758   9.006 127.948  0.00  0.00    +0.000 HD
ATOM     10  H   UNL     1     -13.616   8.051 130.622  0.00  0.00    +0.000 HD
ENDROOT
BRANCH   1  11
ATOM     11  N   UNL     1      -9.642   5.768 130.917  0.00  0.00    +0.000 N 
BRANCH  11  12
ATOM     12  C   UNL     1      -9.624   4.420 130.240  0.00  0.00    +0.000 C 
BRANCH  12  14
ATOM     13 CL   UNL     1     -10.127   2.054 131.624  0.00  0.00    +0.000 Cl
ATOM     14  C   UNL     1     -10.684   3.391 130.596  0.00  0.00    +0.000 C 
ENDBRANCH  12  14
ENDBRANCH  11  12
BRANCH  11  15
ATOM     15  C   UNL     1      -8.854   6.153 132.139  0.00  0.00    +0.000 C 
BRANCH  15  16
ATOM     16  C   UNL     1      -8.044   5.090 132.866  0.00  0.00    +0.000 C 
ATOM     17 CL   UNL     1      -8.939   4.158 134.085  0.00  0.00    +0.000 Cl
ENDBRANCH  15  16
ENDBRANCH  11  15
ENDBRANCH   1  11
TORSDOF 5
ENDMDL
MODEL 6
REMARK VINA RESULT:      -5.1      3.744      5.849
REMARK  Name = Uracil mustard
REMARK  5 active torsions:
REMARK  status: ('A' for Active; 'I' for Inactive)
REMARK    1  A    between atoms: C_2  and  C_3
REMARK    2  A    between atoms: C_3  and  N_4
REMARK    3  A    between atoms: N_4  and  C_5
REMARK    4  A    between atoms: N_4  and  C_8
REMARK    5  A    between atoms: C_5  and  C_6
REMARK                            x       y       z     vdW  Elec       q    Type
REMARK                         _______ _______ _______ _____ _____    ______ ____
ROOT
ATOM      1  C   UNL     1     -10.524   6.768 130.354  0.00  0.00    +0.000 A 
ATOM      2  C   UNL     1     -10.189   7.554 129.313  0.00  0.00    +0.000 A 
ATOM      3  N   UNL     1     -11.045   8.459 128.747  0.00  0.00    +0.000 N 
ATOM      4  C   UNL     1     -12.320   8.679 129.182  0.00  0.00    +0.000 A 
ATOM      5  O   UNL     1     -13.058   9.494 128.651  0.00  0.00    +0.000 OA
ATOM      6  N   UNL     1     -12.707   7.923 130.247  0.00  0.00    +0.000 N 
ATOM      7  C   UNL     1     -11.934   7.000 130.894  0.00  0.00    +0.000 A 
ATOM      8  O   UNL     1     -12.378   6.416 131.883  0.00  0.00    +0.000 OA
ATOM      9  H   UNL     1     -10.763   9.001 127.938  0.00  0.00    +0.000 HD
ATOM     10  H   UNL     1     -13.636   8.078 130.607  0.00  0.00    +0.000 HD
ENDROOT
BRANCH   1  11
ATOM     11  N   UNL     1      -9.674   5.778 130.934  0.00  0.00    +0.000 N 
BRANCH  11  12
ATOM     12  C   UNL     1      -8.907   6.185 132.168  0.00  0.00    +0.000 C 
BRANCH  12  14
ATOM     13 CL   UNL     1      -8.944   4.166 134.089  0.00  0.00    +0.000 Cl
ATOM     14  C   UNL     1      -8.067   5.151 132.899  0.00  0.00    +0.000 C 
ENDBRANCH  12  14
ENDBRANCH  11  12
BRANCH  11  15
ATOM     15  C   UNL     1      -9.611   4.435 130.258  0.00  0.00    +0.000 C 
BRANCH  15  16
ATOM     16  C   UNL     1     -10.669   3.391 130.581  0.00  0.00    +0.000 C 
ATOM     17 CL   UNL     1     -10.121   2.052 131.612  0.00  0.00    +0.000 Cl
ENDBRANCH  15  16
ENDBRANCH  11  15
ENDBRANCH   1  11
TORSDOF 5
ENDMDL
MODEL 7
REMARK VINA RESULT:      -5.1      2.230      3.674
REMARK  Name = Uracil mustard
REMARK  5 active torsions:
REMARK  status: ('A' for Active; 'I' for Inactive)
REMARK    1  A    between atoms: C_2  and  C_3
REMARK    2  A    between atoms: C_3  and  N_4
REMARK    3  A    between atoms: N_4  and  C_5
REMARK    4  A    between atoms: N_4  and  C_8
REMARK    5  A    between atoms: C_5  and  C_6
REMARK                            x       y       z     vdW  Elec       q    Type
REMARK                         _______ _______ _______ _____ _____    ______ ____
ROOT
ATOM      1  C   UNL     1     -10.674   5.166 130.817  0.00  0.00    +0.000 A 
ATOM      2  C   UNL     1     -10.754   3.866 130.475  0.00  0.00    +0.000 A 
ATOM      3  N   UNL     1     -10.262   2.851 131.250  0.00  0.00    +0.000 N 
ATOM      4  C   UNL     1      -9.653   3.039 132.458  0.00  0.00    +0.000 A 
ATOM      5  O   UNL     1      -9.223   2.109 133.122  0.00  0.00    +0.000 OA
ATOM      6  N   UNL     1      -9.560   4.336 132.863  0.00  0.00    +0.000 N 
ATOM      7  C   UNL     1     -10.024   5.423 132.176  0.00  0.00    +0.000 A 
ATOM      8  O   UNL     1      -9.931   6.545 132.673  0.00  0.00    +0.000 OA
ATOM      9  H   UNL     1     -10.310   1.889 130.933  0.00  0.00    +0.000 HD
ATOM     10  H   UNL     1      -9.136   4.507 133.761  0.00  0.00    +0.000 HD
ENDROOT
BRANCH   1  11
ATOM     11  N   UNL     1     -11.130   6.250 130.009  0.00  0.00    +0.000 N 
BRANCH  11  12
ATOM     12  C   UNL     1     -12.577   6.645 130.162  0.00  0.00    +0.000 C 
BRANCH  12  14
ATOM     13 CL   UNL     1     -13.018   9.390 130.355  0.00  0.00    +0.000 Cl
ATOM     14  C   UNL     1     -12.946   7.781 131.103  0.00  0.00    +0.000 C 
ENDBRANCH  12  14
ENDBRANCH  11  12
BRANCH  11  15
ATOM     15  C   UNL     1     -10.135   6.885 129.075  0.00  0.00    +0.000 C 
BRANCH  15  16
ATOM     16  C   UNL     1     -10.608   7.956 128.103  0.00  0.00    +0.000 C 
ATOM     17 CL   UNL     1     -11.357   7.348 126.611  0.00  0.00    +0.000 Cl
ENDBRANCH  15  16
ENDBRANCH  11  15
ENDBRANCH   1  11
TORSDOF 5
ENDMDL
MODEL 8
REMARK VINA RESULT:      -5.1      3.879      5.751
REMARK  Name = Uracil mustard
REMARK  5 active torsions:
REMARK  status: ('A' for Active; 'I' for Inactive)
REMARK    1  A    between atoms: C_2  and  C_3
REMARK    2  A    between atoms: C_3  and  N_4
REMARK    3  A    between atoms: N_4  and  C_5
REMARK    4  A    between atoms: N_4  and  C_8
REMARK    5  A    between atoms: C_5  and  C_6
REMARK                            x       y       z     vdW  Elec       q    Type
REMARK                         _______ _______ _______ _____ _____    ______ ____
ROOT
ATOM      1  C   UNL     1     -10.924   6.306 130.309  0.00  0.00    +0.000 A 
ATOM      2  C   UNL     1     -11.927   6.911 130.974  0.00  0.00    +0.000 A 
ATOM      3  N   UNL     1     -12.637   7.966 130.468  0.00  0.00    +0.000 N 
ATOM      4  C   UNL     1     -12.423   8.510 129.234  0.00  0.00    +0.000 A 
ATOM      5  O   UNL     1     -13.074   9.454 128.817  0.00  0.00    +0.000 OA
ATOM      6  N   UNL     1     -11.429   7.924 128.509  0.00  0.00    +0.000 N 
ATOM      7  C   UNL     1     -10.666   6.863 128.910  0.00  0.00    +0.000 A 
ATOM      8  O   UNL     1      -9.832   6.385 128.141  0.00  0.00    +0.000 OA
ATOM      9  H   UNL     1     -13.358   8.416 131.022  0.00  0.00    +0.000 HD
ATOM     10  H   UNL     1     -11.260   8.288 127.585  0.00  0.00    +0.000 HD
ENDROOT
BRANCH   1  11
ATOM     11  N   UNL     1     -10.130   5.239 130.827  0.00  0.00    +0.000 N 
BRANCH  11  12
ATOM     12  C   UNL     1      -8.897   5.629 131.603  0.00  0.00    +0.000 C 
BRANCH  12  14
ATOM     13 CL   UNL     1      -8.853   4.179 133.983  0.00  0.00    +0.000 Cl
ATOM     14  C   UNL     1      -8.968   5.726 133.118  0.00  0.00    +0.000 C 
ENDBRANCH  12  14
ENDBRANCH  11  12
BRANCH  11  15
ATOM     15  C   UNL     1     -10.586   3.833 130.541  0.00  0.00    +0.000 C 
BRANCH  15  16
ATOM     16  C   UNL     1      -9.593   2.688 130.678  0.00  0.00    +0.000 C 
ATOM     17 CL   UNL     1      -9.960   1.518 131.962  0.00  0.00    +0.000 Cl
ENDBRANCH  15  16
ENDBRANCH  11  15
ENDBRANCH   1  11
TORSDOF 5
ENDMDL
MODEL 9
REMARK VINA RESULT:      -5.1      3.866      5.276
REMARK  Name = Uracil mustard
REMARK  5 active torsions:
REMARK  status: ('A' for Active; 'I' for Inactive)
REMARK    1  A    between atoms: C_2  and  C_3
REMARK    2  A    between atoms: C_3  and  N_4
REMARK    3  A    between atoms: N_4  and  C_5
REMARK    4  A    between atoms: N_4  and  C_8
REMARK    5  A    between atoms: C_5  and  C_6
REMARK                            x       y       z     vdW  Elec       q    Type
REMARK                         _______ _______ _______ _____ _____    ______ ____
ROOT
ATOM      1  C   UNL     1     -10.929   6.326 130.293  0.00  0.00    +0.000 A 
ATOM      2  C   UNL     1     -11.945   6.927 130.940  0.00  0.00    +0.000 A 
ATOM      3  N   UNL     1     -12.663   7.966 130.414  0.00  0.00    +0.000 N 
ATOM      4  C   UNL     1     -12.444   8.497 129.175  0.00  0.00    +0.000 A 
ATOM      5  O   UNL     1     -13.103   9.427 128.739  0.00  0.00    +0.000 OA
ATOM      6  N   UNL     1     -11.437   7.914 128.466  0.00  0.00    +0.000 N 
ATOM      7  C   UNL     1     -10.664   6.868 128.889  0.00  0.00    +0.000 A 
ATOM      8  O   UNL     1      -9.818   6.390 128.133  0.00  0.00    +0.000 OA
ATOM      9  H   UNL     1     -13.395   8.415 130.955  0.00  0.00    +0.000 HD
ATOM     10  H   UNL     1     -11.264   8.268 127.539  0.00  0.00    +0.000 HD
ENDROOT
BRANCH   1  11
ATOM     11  N   UNL     1     -10.127   5.276 130.832  0.00  0.00    +0.000 N 
BRANCH  11  12
ATOM     12  C   UNL     1     -10.582   3.866 130.551  0.00  0.00    +0.000 C 
BRANCH  12  14
ATOM     13 CL   UNL     1      -9.955   1.533 131.940  0.00  0.00    +0.000 Cl
ATOM     14  C   UNL     1      -9.589   2.722 130.673  0.00  0.00    +0.000 C 
ENDBRANCH  12  14
ENDBRANCH  11  12
BRANCH  11  15
ATOM     15  C   UNL     1      -8.918   5.670 131.638  0.00  0.00    +0.000 C 
BRANCH  15  16
ATOM     16  C   UNL     1      -9.031   5.752 133.153  0.00  0.00    +0.000 C 
ATOM     17 CL   UNL     1      -8.865   4.204 134.009  0.00  0.00    +0.000 Cl
ENDBRANCH  15  16
ENDBRANCH  11  15
ENDBRANCH   1  11
TORSDOF 5
ENDMDL
