MODEL 1
REMARK VINA RESULT:      -3.1      0.000      0.000
REMARK  Name = Urea C-14
REMARK  0 active torsions:
REMARK  status: ('A' for Active; 'I' for Inactive)
REMARK                            x       y       z     vdW  Elec       q    Type
REMARK                         _______ _______ _______ _____ _____    ______ ____
ROOT
ATOM      1  N   UNL     1      -5.744   5.806 118.431  0.00  0.00    +0.000 N 
ATOM      2  C   UNL     1      -5.395   5.472 119.687  0.00  0.00    +0.000 C 
ATOM      3  N   UNL     1      -5.898   4.299 120.115  0.00  0.00    +0.000 N 
ATOM      4  O   UNL     1      -4.678   6.174 120.382  0.00  0.00    +0.000 OA
ATOM      5  H   UNL     1      -6.334   5.241 117.845  0.00  0.00    +0.000 HD
ATOM      6  H   UNL     1      -5.386   6.680 118.073  0.00  0.00    +0.000 HD
ATOM      7  H   UNL     1      -6.489   3.706 119.558  0.00  0.00    +0.000 HD
ATOM      8  H   UNL     1      -5.658   4.012 121.054  0.00  0.00    +0.000 HD
ENDROOT
TORSDOF 0
ENDMDL
MODEL 2
REMARK VINA RESULT:      -2.6      9.183      9.298
REMARK  Name = Urea C-14
REMARK  0 active torsions:
REMARK  status: ('A' for Active; 'I' for Inactive)
REMARK                            x       y       z     vdW  Elec       q    Type
REMARK                         _______ _______ _______ _____ _____    ______ ____
ROOT
ATOM      1  N   UNL     1     -12.293   7.000 126.214  0.00  0.00    +0.000 N 
ATOM      2  C   UNL     1     -11.028   7.227 126.612  0.00  0.00    +0.000 C 
ATOM      3  N   UNL     1     -10.873   8.306 127.400  0.00  0.00    +0.000 N 
ATOM      4  O   UNL     1     -10.095   6.510 126.285  0.00  0.00    +0.000 OA
ATOM      5  H   UNL     1     -13.073   7.579 126.473  0.00  0.00    +0.000 HD
ATOM      6  H   UNL     1     -12.451   6.198 125.621  0.00  0.00    +0.000 HD
ATOM      7  H   UNL     1     -11.629   8.908 127.681  0.00  0.00    +0.000 HD
ATOM      8  H   UNL     1      -9.937   8.511 127.721  0.00  0.00    +0.000 HD
ENDROOT
TORSDOF 0
ENDMDL
MODEL 3
REMARK VINA RESULT:      -2.6     10.241     10.490
REMARK  Name = Urea C-14
REMARK  0 active torsions:
REMARK  status: ('A' for Active; 'I' for Inactive)
REMARK                            x       y       z     vdW  Elec       q    Type
REMARK                         _______ _______ _______ _____ _____    ______ ____
ROOT
ATOM      1  N   UNL     1     -11.943   9.055 128.449  0.00  0.00    +0.000 N 
ATOM      2  C   UNL     1     -10.846   8.408 128.014  0.00  0.00    +0.000 C 
ATOM      3  N   UNL     1     -10.924   7.963 126.747  0.00  0.00    +0.000 N 
ATOM      4  O   UNL     1      -9.859   8.238 128.713  0.00  0.00    +0.000 OA
ATOM      5  H   UNL     1     -12.764   9.204 127.889  0.00  0.00    +0.000 HD
ATOM      6  H   UNL     1     -11.924   9.405 129.397  0.00  0.00    +0.000 HD
ATOM      7  H   UNL     1     -11.727   8.094 126.155  0.00  0.00    +0.000 HD
ATOM      8  H   UNL     1     -10.119   7.472 126.382  0.00  0.00    +0.000 HD
ENDROOT
TORSDOF 0
ENDMDL
MODEL 4
REMARK VINA RESULT:      -2.5     13.532     13.707
REMARK  Name = Urea C-14
REMARK  0 active torsions:
REMARK  status: ('A' for Active; 'I' for Inactive)
REMARK                            x       y       z     vdW  Elec       q    Type
REMARK                         _______ _______ _______ _____ _____    ______ ____
ROOT
ATOM      1  N   UNL     1     -10.050   5.000 133.194  0.00  0.00    +0.000 N 
ATOM      2  C   UNL     1     -10.316   5.973 132.303  0.00  0.00    +0.000 C 
ATOM      3  N   UNL     1     -11.616   6.095 131.979  0.00  0.00    +0.000 N 
ATOM      4  O   UNL     1      -9.448   6.689 131.829  0.00  0.00    +0.000 OA
ATOM      5  H   UNL     1     -10.751   4.401 133.595  0.00  0.00    +0.000 HD
ATOM      6  H   UNL     1      -9.084   4.876 133.464  0.00  0.00    +0.000 HD
ATOM      7  H   UNL     1     -12.345   5.516 132.359  0.00  0.00    +0.000 HD
ATOM      8  H   UNL     1     -11.857   6.816 131.313  0.00  0.00    +0.000 HD
ENDROOT
TORSDOF 0
ENDMDL
MODEL 5
REMARK VINA RESULT:      -2.5     12.001     12.212
REMARK  Name = Urea C-14
REMARK  0 active torsions:
REMARK  status: ('A' for Active; 'I' for Inactive)
REMARK                            x       y       z     vdW  Elec       q    Type
REMARK                         _______ _______ _______ _____ _____    ______ ____
ROOT
ATOM      1  N   UNL     1     -11.490   8.880 128.253  0.00  0.00    +0.000 N 
ATOM      2  C   UNL     1     -12.804   8.928 128.538  0.00  0.00    +0.000 C 
ATOM      3  N   UNL     1     -13.261  10.149 128.872  0.00  0.00    +0.000 N 
ATOM      4  O   UNL     1     -13.525   7.943 128.497  0.00  0.00    +0.000 OA
ATOM      5  H   UNL     1     -10.881   9.680 128.282  0.00  0.00    +0.000 HD
ATOM      6  H   UNL     1     -11.109   7.980 127.997  0.00  0.00    +0.000 HD
ATOM      7  H   UNL     1     -12.683  10.971 128.911  0.00  0.00    +0.000 HD
ATOM      8  H   UNL     1     -14.244  10.227 129.093  0.00  0.00    +0.000 HD
ENDROOT
TORSDOF 0
ENDMDL
MODEL 6
REMARK VINA RESULT:      -2.5      3.644      3.644
REMARK  Name = Urea C-14
REMARK  0 active torsions:
REMARK  status: ('A' for Active; 'I' for Inactive)
REMARK                            x       y       z     vdW  Elec       q    Type
REMARK                         _______ _______ _______ _____ _____    ______ ____
ROOT
ATOM      1  N   UNL     1      -9.760   4.190 118.971  0.00  0.00    +0.000 N 
ATOM      2  C   UNL     1      -8.611   4.146 119.669  0.00  0.00    +0.000 C 
ATOM      3  N   UNL     1      -8.758   3.842 120.971  0.00  0.00    +0.000 N 
ATOM      4  O   UNL     1      -7.522   4.364 119.162  0.00  0.00    +0.000 OA
ATOM      5  H   UNL     1     -10.666   4.014 119.372  0.00  0.00    +0.000 HD
ATOM      6  H   UNL     1      -9.693   4.415 117.988  0.00  0.00    +0.000 HD
ATOM      7  H   UNL     1      -9.645   3.659 121.408  0.00  0.00    +0.000 HD
ATOM      8  H   UNL     1      -7.917   3.798 121.531  0.00  0.00    +0.000 HD
ENDROOT
TORSDOF 0
ENDMDL
MODEL 7
REMARK VINA RESULT:      -2.5     13.183     13.502
REMARK  Name = Urea C-14
REMARK  0 active torsions:
REMARK  status: ('A' for Active; 'I' for Inactive)
REMARK                            x       y       z     vdW  Elec       q    Type
REMARK                         _______ _______ _______ _____ _____    ______ ____
ROOT
ATOM      1  N   UNL     1     -11.826   6.325 129.997  0.00  0.00    +0.000 N 
ATOM      2  C   UNL     1     -12.167   6.577 131.274  0.00  0.00    +0.000 C 
ATOM      3  N   UNL     1     -11.308   6.093 132.189  0.00  0.00    +0.000 N 
ATOM      4  O   UNL     1     -13.175   7.197 131.578  0.00  0.00    +0.000 OA
ATOM      5  H   UNL     1     -11.002   5.816 129.728  0.00  0.00    +0.000 HD
ATOM      6  H   UNL     1     -12.447   6.672 129.279  0.00  0.00    +0.000 HD
ATOM      7  H   UNL     1     -10.474   5.581 131.959  0.00  0.00    +0.000 HD
ATOM      8  H   UNL     1     -11.529   6.262 133.161  0.00  0.00    +0.000 HD
ENDROOT
TORSDOF 0
ENDMDL
MODEL 8
REMARK VINA RESULT:      -2.3     10.728     10.775
REMARK  Name = Urea C-14
REMARK  0 active torsions:
REMARK  status: ('A' for Active; 'I' for Inactive)
REMARK                            x       y       z     vdW  Elec       q    Type
REMARK                         _______ _______ _______ _____ _____    ______ ____
ROOT
ATOM      1  N   UNL     1      -9.918  -3.478 123.366  0.00  0.00    +0.000 N 
ATOM      2  C   UNL     1      -9.296  -3.280 124.542  0.00  0.00    +0.000 C 
ATOM      3  N   UNL     1      -8.073  -3.835 124.629  0.00  0.00    +0.000 N 
ATOM      4  O   UNL     1      -9.799  -2.647 125.457  0.00  0.00    +0.000 OA
ATOM      5  H   UNL     1      -9.519  -3.996 122.602  0.00  0.00    +0.000 HD
ATOM      6  H   UNL     1     -10.839  -3.076 123.260  0.00  0.00    +0.000 HD
ATOM      7  H   UNL     1      -7.641  -4.359 123.888  0.00  0.00    +0.000 HD
ATOM      8  H   UNL     1      -7.572  -3.708 125.498  0.00  0.00    +0.000 HD
ENDROOT
TORSDOF 0
ENDMDL
MODEL 9
REMARK VINA RESULT:      -2.2     12.810     12.993
REMARK  Name = Urea C-14
REMARK  0 active torsions:
REMARK  status: ('A' for Active; 'I' for Inactive)
REMARK                            x       y       z     vdW  Elec       q    Type
REMARK                         _______ _______ _______ _____ _____    ______ ____
ROOT
ATOM      1  N   UNL     1     -11.600   5.984 131.856  0.00  0.00    +0.000 N 
ATOM      2  C   UNL     1     -12.011   6.140 130.584  0.00  0.00    +0.000 C 
ATOM      3  N   UNL     1     -12.871   7.157 130.393  0.00  0.00    +0.000 N 
ATOM      4  O   UNL     1     -11.632   5.418 129.675  0.00  0.00    +0.000 OA
ATOM      5  H   UNL     1     -11.902   6.569 132.617  0.00  0.00    +0.000 HD
ATOM      6  H   UNL     1     -10.953   5.231 132.041  0.00  0.00    +0.000 HD
ATOM      7  H   UNL     1     -13.194   7.763 131.128  0.00  0.00    +0.000 HD
ATOM      8  H   UNL     1     -13.202   7.307 129.450  0.00  0.00    +0.000 HD
ENDROOT
TORSDOF 0
ENDMDL
