MODEL 1
REMARK VINA RESULT:      -3.1      0.000      0.000
REMARK  Name = Urea C-13
REMARK  0 active torsions:
REMARK  status: ('A' for Active; 'I' for Inactive)
REMARK                            x       y       z     vdW  Elec       q    Type
REMARK                         _______ _______ _______ _____ _____    ______ ____
ROOT
ATOM      1  N   UNL     1      -5.744   5.803 118.443  0.00  0.00    +0.000 N 
ATOM      2  C   UNL     1      -5.388   5.471 119.697  0.00  0.00    +0.000 C 
ATOM      3  N   UNL     1      -5.899   4.305 120.134  0.00  0.00    +0.000 N 
ATOM      4  O   UNL     1      -4.660   6.170 120.385  0.00  0.00    +0.000 OA
ATOM      5  H   UNL     1      -6.342   5.240 117.862  0.00  0.00    +0.000 HD
ATOM      6  H   UNL     1      -5.380   6.673 118.078  0.00  0.00    +0.000 HD
ATOM      7  H   UNL     1      -6.500   3.715 119.583  0.00  0.00    +0.000 HD
ATOM      8  H   UNL     1      -5.656   4.019 121.072  0.00  0.00    +0.000 HD
ENDROOT
TORSDOF 0
ENDMDL
MODEL 2
REMARK VINA RESULT:      -3.0     14.372     14.533
REMARK  Name = Urea C-13
REMARK  0 active torsions:
REMARK  status: ('A' for Active; 'I' for Inactive)
REMARK                            x       y       z     vdW  Elec       q    Type
REMARK                         _______ _______ _______ _____ _____    ______ ____
ROOT
ATOM      1  N   UNL     1     -13.886  12.475 130.648  0.00  0.00    +0.000 N 
ATOM      2  C   UNL     1     -13.609  11.365 129.940  0.00  0.00    +0.000 C 
ATOM      3  N   UNL     1     -13.887  11.455 128.626  0.00  0.00    +0.000 N 
ATOM      4  O   UNL     1     -13.144  10.357 130.448  0.00  0.00    +0.000 OA
ATOM      5  H   UNL     1     -14.269  13.315 130.247  0.00  0.00    +0.000 HD
ATOM      6  H   UNL     1     -13.692  12.447 131.640  0.00  0.00    +0.000 HD
ATOM      7  H   UNL     1     -14.270  12.277 128.190  0.00  0.00    +0.000 HD
ATOM      8  H   UNL     1     -13.693  10.642 128.059  0.00  0.00    +0.000 HD
ENDROOT
TORSDOF 0
ENDMDL
MODEL 3
REMARK VINA RESULT:      -2.6      9.180      9.290
REMARK  Name = Urea C-13
REMARK  0 active torsions:
REMARK  status: ('A' for Active; 'I' for Inactive)
REMARK                            x       y       z     vdW  Elec       q    Type
REMARK                         _______ _______ _______ _____ _____    ______ ____
ROOT
ATOM      1  N   UNL     1     -10.877   8.305 127.402  0.00  0.00    +0.000 N 
ATOM      2  C   UNL     1     -11.030   7.227 126.612  0.00  0.00    +0.000 C 
ATOM      3  N   UNL     1     -12.296   6.999 126.214  0.00  0.00    +0.000 N 
ATOM      4  O   UNL     1     -10.097   6.511 126.283  0.00  0.00    +0.000 OA
ATOM      5  H   UNL     1     -11.633   8.906 127.683  0.00  0.00    +0.000 HD
ATOM      6  H   UNL     1      -9.940   8.510 127.723  0.00  0.00    +0.000 HD
ATOM      7  H   UNL     1     -13.077   7.578 126.474  0.00  0.00    +0.000 HD
ATOM      8  H   UNL     1     -12.453   6.198 125.619  0.00  0.00    +0.000 HD
ENDROOT
TORSDOF 0
ENDMDL
MODEL 4
REMARK VINA RESULT:      -2.6     10.231     10.483
REMARK  Name = Urea C-13
REMARK  0 active torsions:
REMARK  status: ('A' for Active; 'I' for Inactive)
REMARK                            x       y       z     vdW  Elec       q    Type
REMARK                         _______ _______ _______ _____ _____    ______ ____
ROOT
ATOM      1  N   UNL     1     -11.943   9.056 128.445  0.00  0.00    +0.000 N 
ATOM      2  C   UNL     1     -10.847   8.408 128.011  0.00  0.00    +0.000 C 
ATOM      3  N   UNL     1     -10.924   7.960 126.744  0.00  0.00    +0.000 N 
ATOM      4  O   UNL     1      -9.860   8.238 128.711  0.00  0.00    +0.000 OA
ATOM      5  H   UNL     1     -12.765   9.205 127.883  0.00  0.00    +0.000 HD
ATOM      6  H   UNL     1     -11.924   9.407 129.392  0.00  0.00    +0.000 HD
ATOM      7  H   UNL     1     -11.728   8.091 126.153  0.00  0.00    +0.000 HD
ATOM      8  H   UNL     1     -10.120   7.468 126.381  0.00  0.00    +0.000 HD
ENDROOT
TORSDOF 0
ENDMDL
MODEL 5
REMARK VINA RESULT:      -2.5     13.474     13.597
REMARK  Name = Urea C-13
REMARK  0 active torsions:
REMARK  status: ('A' for Active; 'I' for Inactive)
REMARK                            x       y       z     vdW  Elec       q    Type
REMARK                         _______ _______ _______ _____ _____    ______ ____
ROOT
ATOM      1  N   UNL     1     -11.667   6.101 131.895  0.00  0.00    +0.000 N 
ATOM      2  C   UNL     1     -10.369   6.014 132.239  0.00  0.00    +0.000 C 
ATOM      3  N   UNL     1     -10.097   5.079 133.169  0.00  0.00    +0.000 N 
ATOM      4  O   UNL     1      -9.506   6.726 131.748  0.00  0.00    +0.000 OA
ATOM      5  H   UNL     1     -12.390   5.523 132.288  0.00  0.00    +0.000 HD
ATOM      6  H   UNL     1     -11.911   6.792 131.199  0.00  0.00    +0.000 HD
ATOM      7  H   UNL     1     -10.793   4.483 133.584  0.00  0.00    +0.000 HD
ATOM      8  H   UNL     1      -9.133   4.982 133.454  0.00  0.00    +0.000 HD
ENDROOT
TORSDOF 0
ENDMDL
MODEL 6
REMARK VINA RESULT:      -2.5     11.979     12.193
REMARK  Name = Urea C-13
REMARK  0 active torsions:
REMARK  status: ('A' for Active; 'I' for Inactive)
REMARK                            x       y       z     vdW  Elec       q    Type
REMARK                         _______ _______ _______ _____ _____    ______ ____
ROOT
ATOM      1  N   UNL     1     -11.460   8.870 128.257  0.00  0.00    +0.000 N 
ATOM      2  C   UNL     1     -12.774   8.932 128.540  0.00  0.00    +0.000 C 
ATOM      3  N   UNL     1     -13.215  10.154 128.891  0.00  0.00    +0.000 N 
ATOM      4  O   UNL     1     -13.509   7.958 128.483  0.00  0.00    +0.000 OA
ATOM      5  H   UNL     1     -10.840   9.661 128.298  0.00  0.00    +0.000 HD
ATOM      6  H   UNL     1     -11.091   7.968 127.989  0.00  0.00    +0.000 HD
ATOM      7  H   UNL     1     -12.626  10.968 128.943  0.00  0.00    +0.000 HD
ATOM      8  H   UNL     1     -14.197  10.243 129.111  0.00  0.00    +0.000 HD
ENDROOT
TORSDOF 0
ENDMDL
MODEL 7
REMARK VINA RESULT:      -2.5     12.014     12.214
REMARK  Name = Urea C-13
REMARK  0 active torsions:
REMARK  status: ('A' for Active; 'I' for Inactive)
REMARK                            x       y       z     vdW  Elec       q    Type
REMARK                         _______ _______ _______ _____ _____    ______ ____
ROOT
ATOM      1  N   UNL     1     -13.263  10.183 128.891  0.00  0.00    +0.000 N 
ATOM      2  C   UNL     1     -12.836   8.963 128.522  0.00  0.00    +0.000 C 
ATOM      3  N   UNL     1     -11.511   8.877 128.298  0.00  0.00    +0.000 N 
ATOM      4  O   UNL     1     -13.588   8.009 128.398  0.00  0.00    +0.000 OA
ATOM      5  H   UNL     1     -12.659  10.980 128.998  0.00  0.00    +0.000 HD
ATOM      6  H   UNL     1     -14.253  10.289 129.069  0.00  0.00    +0.000 HD
ATOM      7  H   UNL     1     -10.876   9.651 128.395  0.00  0.00    +0.000 HD
ATOM      8  H   UNL     1     -11.150   7.976 128.018  0.00  0.00    +0.000 HD
ENDROOT
TORSDOF 0
ENDMDL
MODEL 8
REMARK VINA RESULT:      -2.5     13.245     13.546
REMARK  Name = Urea C-13
REMARK  0 active torsions:
REMARK  status: ('A' for Active; 'I' for Inactive)
REMARK                            x       y       z     vdW  Elec       q    Type
REMARK                         _______ _______ _______ _____ _____    ______ ____
ROOT
ATOM      1  N   UNL     1     -11.415   7.291 130.283  0.00  0.00    +0.000 N 
ATOM      2  C   UNL     1     -12.109   6.830 131.340  0.00  0.00    +0.000 C 
ATOM      3  N   UNL     1     -11.454   5.921 132.087  0.00  0.00    +0.000 N 
ATOM      4  O   UNL     1     -13.241   7.204 131.600  0.00  0.00    +0.000 OA
ATOM      5  H   UNL     1     -10.481   6.994 130.053  0.00  0.00    +0.000 HD
ATOM      6  H   UNL     1     -11.872   7.975 129.697  0.00  0.00    +0.000 HD
ATOM      7  H   UNL     1     -10.521   5.601 131.888  0.00  0.00    +0.000 HD
ATOM      8  H   UNL     1     -11.941   5.551 132.890  0.00  0.00    +0.000 HD
ENDROOT
TORSDOF 0
ENDMDL
MODEL 9
REMARK VINA RESULT:      -2.4     11.685     11.898
REMARK  Name = Urea C-13
REMARK  0 active torsions:
REMARK  status: ('A' for Active; 'I' for Inactive)
REMARK                            x       y       z     vdW  Elec       q    Type
REMARK                         _______ _______ _______ _____ _____    ______ ____
ROOT
ATOM      1  N   UNL     1     -10.972   8.760 128.022  0.00  0.00    +0.000 N 
ATOM      2  C   UNL     1     -11.960   8.774 128.935  0.00  0.00    +0.000 C 
ATOM      3  N   UNL     1     -12.953   9.644 128.674  0.00  0.00    +0.000 N 
ATOM      4  O   UNL     1     -11.956   8.056 129.923  0.00  0.00    +0.000 OA
ATOM      5  H   UNL     1     -10.958   9.344 127.203  0.00  0.00    +0.000 HD
ATOM      6  H   UNL     1     -10.207   8.120 128.183  0.00  0.00    +0.000 HD
ATOM      7  H   UNL     1     -12.974  10.243 127.866  0.00  0.00    +0.000 HD
ATOM      8  H   UNL     1     -13.715   9.684 129.336  0.00  0.00    +0.000 HD
ENDROOT
TORSDOF 0
ENDMDL
