MODEL 1
REMARK VINA RESULT:      -3.1      0.000      0.000
REMARK  Name = Urea
REMARK  0 active torsions:
REMARK  status: ('A' for Active; 'I' for Inactive)
REMARK                            x       y       z     vdW  Elec       q    Type
REMARK                         _______ _______ _______ _____ _____    ______ ____
ROOT
ATOM      1  N   UNL     1      -5.744   5.803 118.439  0.00  0.00    +0.000 N 
ATOM      2  C   UNL     1      -5.391   5.469 119.694  0.00  0.00    +0.000 C 
ATOM      3  N   UNL     1      -5.903   4.305 120.131  0.00  0.00    +0.000 N 
ATOM      4  O   UNL     1      -4.662   6.170 120.382  0.00  0.00    +0.000 OA
ATOM      5  H   UNL     1      -6.342   5.240 117.858  0.00  0.00    +0.000 HD
ATOM      6  H   UNL     1      -5.380   6.671 118.074  0.00  0.00    +0.000 HD
ATOM      7  H   UNL     1      -6.504   3.715 119.580  0.00  0.00    +0.000 HD
ATOM      8  H   UNL     1      -5.660   4.019 121.069  0.00  0.00    +0.000 HD
ENDROOT
TORSDOF 0
ENDMDL
MODEL 2
REMARK VINA RESULT:      -3.1     14.670     14.833
REMARK  Name = Urea
REMARK  0 active torsions:
REMARK  status: ('A' for Active; 'I' for Inactive)
REMARK                            x       y       z     vdW  Elec       q    Type
REMARK                         _______ _______ _______ _____ _____    ______ ____
ROOT
ATOM      1  N   UNL     1     -13.762  12.697 130.974  0.00  0.00    +0.000 N 
ATOM      2  C   UNL     1     -13.656  11.649 130.137  0.00  0.00    +0.000 C 
ATOM      3  N   UNL     1     -13.886  11.939 128.843  0.00  0.00    +0.000 N 
ATOM      4  O   UNL     1     -13.375  10.523 130.521  0.00  0.00    +0.000 OA
ATOM      5  H   UNL     1     -13.992  13.630 130.677  0.00  0.00    +0.000 HD
ATOM      6  H   UNL     1     -13.597  12.520 131.955  0.00  0.00    +0.000 HD
ATOM      7  H   UNL     1     -14.119  12.859 128.508  0.00  0.00    +0.000 HD
ATOM      8  H   UNL     1     -13.816  11.178 128.182  0.00  0.00    +0.000 HD
ENDROOT
TORSDOF 0
ENDMDL
MODEL 3
REMARK VINA RESULT:      -2.6      9.180      9.294
REMARK  Name = Urea
REMARK  0 active torsions:
REMARK  status: ('A' for Active; 'I' for Inactive)
REMARK                            x       y       z     vdW  Elec       q    Type
REMARK                         _______ _______ _______ _____ _____    ______ ____
ROOT
ATOM      1  N   UNL     1     -12.293   7.000 126.214  0.00  0.00    +0.000 N 
ATOM      2  C   UNL     1     -11.028   7.227 126.612  0.00  0.00    +0.000 C 
ATOM      3  N   UNL     1     -10.873   8.307 127.400  0.00  0.00    +0.000 N 
ATOM      4  O   UNL     1     -10.095   6.509 126.284  0.00  0.00    +0.000 OA
ATOM      5  H   UNL     1     -13.074   7.579 126.473  0.00  0.00    +0.000 HD
ATOM      6  H   UNL     1     -12.451   6.198 125.620  0.00  0.00    +0.000 HD
ATOM      7  H   UNL     1     -11.629   8.909 127.680  0.00  0.00    +0.000 HD
ATOM      8  H   UNL     1      -9.937   8.510 127.721  0.00  0.00    +0.000 HD
ENDROOT
TORSDOF 0
ENDMDL
MODEL 4
REMARK VINA RESULT:      -2.5     13.473     13.591
REMARK  Name = Urea
REMARK  0 active torsions:
REMARK  status: ('A' for Active; 'I' for Inactive)
REMARK                            x       y       z     vdW  Elec       q    Type
REMARK                         _______ _______ _______ _____ _____    ______ ____
ROOT
ATOM      1  N   UNL     1     -11.676   6.127 131.901  0.00  0.00    +0.000 N 
ATOM      2  C   UNL     1     -10.374   6.034 132.225  0.00  0.00    +0.000 C 
ATOM      3  N   UNL     1     -10.093   5.109 133.161  0.00  0.00    +0.000 N 
ATOM      4  O   UNL     1      -9.515   6.735 131.711  0.00  0.00    +0.000 OA
ATOM      5  H   UNL     1     -12.397   5.559 132.313  0.00  0.00    +0.000 HD
ATOM      6  H   UNL     1     -11.928   6.811 131.202  0.00  0.00    +0.000 HD
ATOM      7  H   UNL     1     -10.786   4.523 133.595  0.00  0.00    +0.000 HD
ATOM      8  H   UNL     1      -9.125   5.008 133.431  0.00  0.00    +0.000 HD
ENDROOT
TORSDOF 0
ENDMDL
MODEL 5
REMARK VINA RESULT:      -2.5      9.428      9.476
REMARK  Name = Urea
REMARK  0 active torsions:
REMARK  status: ('A' for Active; 'I' for Inactive)
REMARK                            x       y       z     vdW  Elec       q    Type
REMARK                         _______ _______ _______ _____ _____    ______ ____
ROOT
ATOM      1  N   UNL     1     -10.902   8.464 127.474  0.00  0.00    +0.000 N 
ATOM      2  C   UNL     1     -11.132   7.358 126.744  0.00  0.00    +0.000 C 
ATOM      3  N   UNL     1     -12.432   7.093 126.519  0.00  0.00    +0.000 N 
ATOM      4  O   UNL     1     -10.231   6.650 126.318  0.00  0.00    +0.000 OA
ATOM      5  H   UNL     1     -11.630   9.059 127.833  0.00  0.00    +0.000 HD
ATOM      6  H   UNL     1      -9.938   8.697 127.665  0.00  0.00    +0.000 HD
ATOM      7  H   UNL     1     -13.186   7.664 126.861  0.00  0.00    +0.000 HD
ATOM      8  H   UNL     1     -12.645   6.270 125.973  0.00  0.00    +0.000 HD
ENDROOT
TORSDOF 0
ENDMDL
MODEL 6
REMARK VINA RESULT:      -2.5     11.980     12.195
REMARK  Name = Urea
REMARK  0 active torsions:
REMARK  status: ('A' for Active; 'I' for Inactive)
REMARK                            x       y       z     vdW  Elec       q    Type
REMARK                         _______ _______ _______ _____ _____    ______ ____
ROOT
ATOM      1  N   UNL     1     -11.457   8.863 128.260  0.00  0.00    +0.000 N 
ATOM      2  C   UNL     1     -12.770   8.929 128.546  0.00  0.00    +0.000 C 
ATOM      3  N   UNL     1     -13.207  10.151 128.902  0.00  0.00    +0.000 N 
ATOM      4  O   UNL     1     -13.508   7.956 128.488  0.00  0.00    +0.000 OA
ATOM      5  H   UNL     1     -10.835   9.653 128.302  0.00  0.00    +0.000 HD
ATOM      6  H   UNL     1     -11.090   7.962 127.989  0.00  0.00    +0.000 HD
ATOM      7  H   UNL     1     -12.615  10.963 128.956  0.00  0.00    +0.000 HD
ATOM      8  H   UNL     1     -14.188  10.241 129.124  0.00  0.00    +0.000 HD
ENDROOT
TORSDOF 0
ENDMDL
MODEL 7
REMARK VINA RESULT:      -2.5     11.980     12.186
REMARK  Name = Urea
REMARK  0 active torsions:
REMARK  status: ('A' for Active; 'I' for Inactive)
REMARK                            x       y       z     vdW  Elec       q    Type
REMARK                         _______ _______ _______ _____ _____    ______ ____
ROOT
ATOM      1  N   UNL     1     -13.115  10.169 129.000  0.00  0.00    +0.000 N 
ATOM      2  C   UNL     1     -12.743   8.954 128.559  0.00  0.00    +0.000 C 
ATOM      3  N   UNL     1     -11.439   8.844 128.248  0.00  0.00    +0.000 N 
ATOM      4  O   UNL     1     -13.528   8.023 128.450  0.00  0.00    +0.000 OA
ATOM      5  H   UNL     1     -12.484  10.947 129.097  0.00  0.00    +0.000 HD
ATOM      6  H   UNL     1     -14.088  10.292 129.244  0.00  0.00    +0.000 HD
ATOM      7  H   UNL     1     -10.778   9.599 128.331  0.00  0.00    +0.000 HD
ATOM      8  H   UNL     1     -11.120   7.946 127.913  0.00  0.00    +0.000 HD
ENDROOT
TORSDOF 0
ENDMDL
MODEL 8
REMARK VINA RESULT:      -2.5     13.237     13.539
REMARK  Name = Urea
REMARK  0 active torsions:
REMARK  status: ('A' for Active; 'I' for Inactive)
REMARK                            x       y       z     vdW  Elec       q    Type
REMARK                         _______ _______ _______ _____ _____    ______ ____
ROOT
ATOM      1  N   UNL     1     -11.398   7.265 130.282  0.00  0.00    +0.000 N 
ATOM      2  C   UNL     1     -12.101   6.813 131.336  0.00  0.00    +0.000 C 
ATOM      3  N   UNL     1     -11.460   5.902 132.090  0.00  0.00    +0.000 N 
ATOM      4  O   UNL     1     -13.233   7.199 131.588  0.00  0.00    +0.000 OA
ATOM      5  H   UNL     1     -10.466   6.959 130.059  0.00  0.00    +0.000 HD
ATOM      6  H   UNL     1     -11.846   7.950 129.690  0.00  0.00    +0.000 HD
ATOM      7  H   UNL     1     -10.528   5.572 131.898  0.00  0.00    +0.000 HD
ATOM      8  H   UNL     1     -11.955   5.539 132.892  0.00  0.00    +0.000 HD
ENDROOT
TORSDOF 0
ENDMDL
MODEL 9
REMARK VINA RESULT:      -2.4     18.680     18.948
REMARK  Name = Urea
REMARK  0 active torsions:
REMARK  status: ('A' for Active; 'I' for Inactive)
REMARK                            x       y       z     vdW  Elec       q    Type
REMARK                         _______ _______ _______ _____ _____    ______ ____
ROOT
ATOM      1  N   UNL     1      -9.336   8.024 136.908  0.00  0.00    +0.000 N 
ATOM      2  C   UNL     1     -10.089   8.782 137.726  0.00  0.00    +0.000 C 
ATOM      3  N   UNL     1     -11.371   8.919 137.342  0.00  0.00    +0.000 N 
ATOM      4  O   UNL     1      -9.644   9.304 138.737  0.00  0.00    +0.000 OA
ATOM      5  H   UNL     1      -9.685   7.586 136.072  0.00  0.00    +0.000 HD
ATOM      6  H   UNL     1      -8.367   7.897 137.162  0.00  0.00    +0.000 HD
ATOM      7  H   UNL     1     -11.756   8.497 136.513  0.00  0.00    +0.000 HD
ATOM      8  H   UNL     1     -11.970   9.481 137.931  0.00  0.00    +0.000 HD
ENDROOT
TORSDOF 0
ENDMDL
