MODEL 1
REMARK VINA RESULT:      -3.8      0.000      0.000
REMARK  Name = Urethane
REMARK  3 active torsions:
REMARK  status: ('A' for Active; 'I' for Inactive)
REMARK    1  A    between atoms: C_1  and  C_2
REMARK    2  A    between atoms: C_2  and  O_3
REMARK    3  A    between atoms: O_3  and  C_4
REMARK                            x       y       z     vdW  Elec       q    Type
REMARK                         _______ _______ _______ _____ _____    ______ ____
ROOT
ATOM      1  C   UNL     1      -5.577   5.531 119.483  0.00  0.00    +0.000 C 
ATOM      2  N   UNL     1      -5.703   5.909 118.183  0.00  0.00    +0.000 N 
ATOM      3  O   UNL     1      -4.789   6.106 120.223  0.00  0.00    +0.000 OA
ATOM      4  H   UNL     1      -6.325   5.488 117.516  0.00  0.00    +0.000 HD
ATOM      5  H   UNL     1      -5.118   6.675 117.879  0.00  0.00    +0.000 HD
ENDROOT
BRANCH   1   6
ATOM      6  O   UNL     1      -6.355   4.504 119.912  0.00  0.00    +0.000 OA
BRANCH   6   8
ATOM      7  C   UNL     1      -8.592   3.841 120.530  0.00  0.00    +0.000 C 
ATOM      8  C   UNL     1      -7.680   4.286 119.400  0.00  0.00    +0.000 C 
ENDBRANCH   6   8
ENDBRANCH   1   6
TORSDOF 2
ENDMDL
MODEL 2
REMARK VINA RESULT:      -3.4      9.408      9.908
REMARK  Name = Urethane
REMARK  3 active torsions:
REMARK  status: ('A' for Active; 'I' for Inactive)
REMARK    1  A    between atoms: C_1  and  C_2
REMARK    2  A    between atoms: C_2  and  O_3
REMARK    3  A    between atoms: O_3  and  C_4
REMARK                            x       y       z     vdW  Elec       q    Type
REMARK                         _______ _______ _______ _____ _____    ______ ____
ROOT
ATOM      1  C   UNL     1     -11.155   7.285 126.610  0.00  0.00    +0.000 C 
ATOM      2  N   UNL     1     -12.394   6.965 126.149  0.00  0.00    +0.000 N 
ATOM      3  O   UNL     1     -10.188   6.590 126.325  0.00  0.00    +0.000 OA
ATOM      4  H   UNL     1     -13.234   7.483 126.339  0.00  0.00    +0.000 HD
ATOM      5  H   UNL     1     -12.459   6.138 125.571  0.00  0.00    +0.000 HD
ENDROOT
BRANCH   1   6
ATOM      6  O   UNL     1     -11.046   8.393 127.388  0.00  0.00    +0.000 OA
BRANCH   6   8
ATOM      7  C   UNL     1     -12.633   9.106 129.060  0.00  0.00    +0.000 C 
ATOM      8  C   UNL     1     -11.333   8.367 128.796  0.00  0.00    +0.000 C 
ENDBRANCH   6   8
ENDBRANCH   1   6
TORSDOF 2
ENDMDL
MODEL 3
REMARK VINA RESULT:      -3.4      9.461      9.957
REMARK  Name = Urethane
REMARK  3 active torsions:
REMARK  status: ('A' for Active; 'I' for Inactive)
REMARK    1  A    between atoms: C_1  and  C_2
REMARK    2  A    between atoms: C_2  and  O_3
REMARK    3  A    between atoms: O_3  and  C_4
REMARK                            x       y       z     vdW  Elec       q    Type
REMARK                         _______ _______ _______ _____ _____    ______ ____
ROOT
ATOM      1  C   UNL     1     -10.987   7.782 127.167  0.00  0.00    +0.000 C 
ATOM      2  N   UNL     1     -10.567   8.729 128.047  0.00  0.00    +0.000 N 
ATOM      3  O   UNL     1     -10.864   7.957 125.961  0.00  0.00    +0.000 OA
ATOM      4  H   UNL     1     -10.633   8.660 129.047  0.00  0.00    +0.000 HD
ATOM      5  H   UNL     1     -10.158   9.564 127.649  0.00  0.00    +0.000 HD
ENDROOT
BRANCH   1   6
ATOM      6  O   UNL     1     -11.539   6.653 127.682  0.00  0.00    +0.000 OA
BRANCH   6   8
ATOM      7  C   UNL     1     -13.885   7.195 127.834  0.00  0.00    +0.000 C 
ATOM      8  C   UNL     1     -12.660   6.694 128.580  0.00  0.00    +0.000 C 
ENDBRANCH   6   8
ENDBRANCH   1   6
TORSDOF 2
ENDMDL
MODEL 4
REMARK VINA RESULT:      -3.3     12.129     12.674
REMARK  Name = Urethane
REMARK  3 active torsions:
REMARK  status: ('A' for Active; 'I' for Inactive)
REMARK    1  A    between atoms: C_1  and  C_2
REMARK    2  A    between atoms: C_2  and  O_3
REMARK    3  A    between atoms: O_3  and  C_4
REMARK                            x       y       z     vdW  Elec       q    Type
REMARK                         _______ _______ _______ _____ _____    ______ ____
ROOT
ATOM      1  C   UNL     1     -12.021   6.806 131.292  0.00  0.00    +0.000 C 
ATOM      2  N   UNL     1     -11.349   6.031 132.185  0.00  0.00    +0.000 N 
ATOM      3  O   UNL     1     -13.171   7.161 131.521  0.00  0.00    +0.000 OA
ATOM      4  H   UNL     1     -10.407   5.700 132.070  0.00  0.00    +0.000 HD
ATOM      5  H   UNL     1     -11.849   5.775 133.025  0.00  0.00    +0.000 HD
ENDROOT
BRANCH   1   6
ATOM      6  O   UNL     1     -11.366   7.160 130.156  0.00  0.00    +0.000 OA
BRANCH   6   8
ATOM      7  C   UNL     1     -10.803   8.473 128.212  0.00  0.00    +0.000 C 
ATOM      8  C   UNL     1     -11.787   8.274 129.351  0.00  0.00    +0.000 C 
ENDBRANCH   6   8
ENDBRANCH   1   6
TORSDOF 2
ENDMDL
MODEL 5
REMARK VINA RESULT:      -3.2     11.560     11.894
REMARK  Name = Urethane
REMARK  3 active torsions:
REMARK  status: ('A' for Active; 'I' for Inactive)
REMARK    1  A    between atoms: C_1  and  C_2
REMARK    2  A    between atoms: C_2  and  O_3
REMARK    3  A    between atoms: O_3  and  C_4
REMARK                            x       y       z     vdW  Elec       q    Type
REMARK                         _______ _______ _______ _____ _____    ______ ____
ROOT
ATOM      1  C   UNL     1     -11.577   5.133 130.251  0.00  0.00    +0.000 C 
ATOM      2  N   UNL     1     -11.527   5.733 131.470  0.00  0.00    +0.000 N 
ATOM      3  O   UNL     1     -11.307   3.944 130.133  0.00  0.00    +0.000 OA
ATOM      4  H   UNL     1     -11.733   6.700 131.648  0.00  0.00    +0.000 HD
ATOM      5  H   UNL     1     -11.261   5.147 132.249  0.00  0.00    +0.000 HD
ENDROOT
BRANCH   1   6
ATOM      6  O   UNL     1     -11.933   5.903 129.190  0.00  0.00    +0.000 OA
BRANCH   6   8
ATOM      7  C   UNL     1     -13.573   7.091 127.878  0.00  0.00    +0.000 C 
ATOM      8  C   UNL     1     -13.007   6.855 129.267  0.00  0.00    +0.000 C 
ENDBRANCH   6   8
ENDBRANCH   1   6
TORSDOF 2
ENDMDL
MODEL 6
REMARK VINA RESULT:      -3.1     10.506     11.069
REMARK  Name = Urethane
REMARK  3 active torsions:
REMARK  status: ('A' for Active; 'I' for Inactive)
REMARK    1  A    between atoms: C_1  and  C_2
REMARK    2  A    between atoms: C_2  and  O_3
REMARK    3  A    between atoms: O_3  and  C_4
REMARK                            x       y       z     vdW  Elec       q    Type
REMARK                         _______ _______ _______ _____ _____    ______ ____
ROOT
ATOM      1  C   UNL     1     -12.007   7.726 127.477  0.00  0.00    +0.000 C 
ATOM      2  N   UNL     1     -10.748   8.239 127.435  0.00  0.00    +0.000 N 
ATOM      3  O   UNL     1     -12.276   6.692 126.879  0.00  0.00    +0.000 OA
ATOM      4  H   UNL     1     -10.450   9.080 127.897  0.00  0.00    +0.000 HD
ATOM      5  H   UNL     1     -10.070   7.722 126.892  0.00  0.00    +0.000 HD
ENDROOT
BRANCH   1   6
ATOM      6  O   UNL     1     -12.933   8.406 128.201  0.00  0.00    +0.000 OA
BRANCH   6   8
ATOM      7  C   UNL     1     -12.723   7.770 130.519  0.00  0.00    +0.000 C 
ATOM      8  C   UNL     1     -12.652   8.909 129.517  0.00  0.00    +0.000 C 
ENDBRANCH   6   8
ENDBRANCH   1   6
TORSDOF 2
ENDMDL
MODEL 7
REMARK VINA RESULT:      -3.0     11.180     11.634
REMARK  Name = Urethane
REMARK  3 active torsions:
REMARK  status: ('A' for Active; 'I' for Inactive)
REMARK    1  A    between atoms: C_1  and  C_2
REMARK    2  A    between atoms: C_2  and  O_3
REMARK    3  A    between atoms: O_3  and  C_4
REMARK                            x       y       z     vdW  Elec       q    Type
REMARK                         _______ _______ _______ _____ _____    ______ ____
ROOT
ATOM      1  C   UNL     1     -11.594   8.585 128.511  0.00  0.00    +0.000 C 
ATOM      2  N   UNL     1     -12.641   9.450 128.568  0.00  0.00    +0.000 N 
ATOM      3  O   UNL     1     -11.024   8.369 127.449  0.00  0.00    +0.000 OA
ATOM      4  H   UNL     1     -13.159   9.679 129.398  0.00  0.00    +0.000 HD
ATOM      5  H   UNL     1     -12.908   9.890 127.698  0.00  0.00    +0.000 HD
ENDROOT
BRANCH   1   6
ATOM      6  O   UNL     1     -11.218   7.983 129.670  0.00  0.00    +0.000 OA
BRANCH   6   8
ATOM      7  C   UNL     1     -12.779   7.330 131.390  0.00  0.00    +0.000 C 
ATOM      8  C   UNL     1     -11.937   6.865 130.215  0.00  0.00    +0.000 C 
ENDBRANCH   6   8
ENDBRANCH   1   6
TORSDOF 2
ENDMDL
MODEL 8
REMARK VINA RESULT:      -2.9     10.400     10.624
REMARK  Name = Urethane
REMARK  3 active torsions:
REMARK  status: ('A' for Active; 'I' for Inactive)
REMARK    1  A    between atoms: C_1  and  C_2
REMARK    2  A    between atoms: C_2  and  O_3
REMARK    3  A    between atoms: O_3  and  C_4
REMARK                            x       y       z     vdW  Elec       q    Type
REMARK                         _______ _______ _______ _____ _____    ______ ____
ROOT
ATOM      1  C   UNL     1     -10.699   7.400 128.920  0.00  0.00    +0.000 C 
ATOM      2  N   UNL     1     -10.777   7.138 130.252  0.00  0.00    +0.000 N 
ATOM      3  O   UNL     1      -9.960   8.283 128.504  0.00  0.00    +0.000 OA
ATOM      4  H   UNL     1     -11.358   6.432 130.670  0.00  0.00    +0.000 HD
ATOM      5  H   UNL     1     -10.200   7.706 130.857  0.00  0.00    +0.000 HD
ENDROOT
BRANCH   1   6
ATOM      6  O   UNL     1     -11.467   6.648 128.090  0.00  0.00    +0.000 OA
BRANCH   6   8
ATOM      7  C   UNL     1     -13.841   7.068 127.997  0.00  0.00    +0.000 C 
ATOM      8  C   UNL     1     -12.509   7.225 127.286  0.00  0.00    +0.000 C 
ENDBRANCH   6   8
ENDBRANCH   1   6
TORSDOF 2
ENDMDL
MODEL 9
REMARK VINA RESULT:      -2.9     11.585     12.153
REMARK  Name = Urethane
REMARK  3 active torsions:
REMARK  status: ('A' for Active; 'I' for Inactive)
REMARK    1  A    between atoms: C_1  and  C_2
REMARK    2  A    between atoms: C_2  and  O_3
REMARK    3  A    between atoms: O_3  and  C_4
REMARK                            x       y       z     vdW  Elec       q    Type
REMARK                         _______ _______ _______ _____ _____    ______ ____
ROOT
ATOM      1  C   UNL     1     -12.876   7.506 130.431  0.00  0.00    +0.000 C 
ATOM      2  N   UNL     1     -12.724   8.839 130.209  0.00  0.00    +0.000 N 
ATOM      3  O   UNL     1     -13.105   7.087 131.559  0.00  0.00    +0.000 OA
ATOM      4  H   UNL     1     -12.535   9.260 129.317  0.00  0.00    +0.000 HD
ATOM      5  H   UNL     1     -12.812   9.442 131.016  0.00  0.00    +0.000 HD
ENDROOT
BRANCH   1   6
ATOM      6  O   UNL     1     -12.762   6.679 129.360  0.00  0.00    +0.000 OA
BRANCH   6   8
ATOM      7  C   UNL     1     -12.777   7.076 126.980  0.00  0.00    +0.000 C 
ATOM      8  C   UNL     1     -11.926   6.998 128.236  0.00  0.00    +0.000 C 
ENDBRANCH   6   8
ENDBRANCH   1   6
TORSDOF 2
ENDMDL
