MODEL 1
REMARK VINA RESULT:      -7.1      0.000      0.000
REMARK  Name = Uridine triacetate
REMARK  11 active torsions:
REMARK  status: ('A' for Active; 'I' for Inactive)
REMARK    1  A    between atoms: C_1  and  C_2
REMARK    2  A    between atoms: C_2  and  O_4
REMARK    3  A    between atoms: O_4  and  C_5
REMARK    4  A    between atoms: C_5  and  C_6
REMARK    5  A    between atoms: C_8  and  N_19
REMARK    6  A    between atoms: C_9  and  O_10
REMARK    7  A    between atoms: O_10  and  C_11
REMARK    8  A    between atoms: C_11  and  C_12
REMARK    9  A    between atoms: C_14  and  O_15
REMARK   10  A    between atoms: O_15  and  C_16
REMARK   11  A    between atoms: C_16  and  C_17
REMARK                            x       y       z     vdW  Elec       q    Type
REMARK                         _______ _______ _______ _____ _____    ______ ____
ROOT
ATOM      1  C   UNL     1      -6.727   2.185 125.102  0.00  0.00    +0.000 C 
ATOM      2  O   UNL     1      -7.116   3.330 124.339  0.00  0.00    +0.000 OA
ATOM      3  C   UNL     1      -7.805   2.862 123.150  0.00  0.00    +0.000 C 
ATOM      4  C   UNL     1      -7.781   1.302 123.170  0.00  0.00    +0.000 C 
ATOM      5  C   UNL     1      -6.588   1.030 124.109  0.00  0.00    +0.000 C 
ENDROOT
BRANCH   3   6
ATOM      6  N   UNL     1      -7.100   3.443 121.988  0.00  0.00    +0.000 N 
ATOM      7  C   UNL     1      -5.760   3.784 122.073  0.00  0.00    +0.000 A 
ATOM      8  C   UNL     1      -5.119   4.462 121.128  0.00  0.00    +0.000 A 
ATOM      9  C   UNL     1      -5.841   4.817 119.903  0.00  0.00    +0.000 A 
ATOM     10  O   UNL     1      -5.328   5.519 119.059  0.00  0.00    +0.000 OA
ATOM     11  N   UNL     1      -7.103   4.293 119.807  0.00  0.00    +0.000 N 
ATOM     12  C   UNL     1      -7.829   3.748 120.840  0.00  0.00    +0.000 A 
ATOM     13  O   UNL     1      -9.037   3.558 120.711  0.00  0.00    +0.000 OA
ATOM     14  H   UNL     1      -7.613   4.520 118.968  0.00  0.00    +0.000 HD
ENDBRANCH   3   6
BRANCH   1  15
ATOM     15  C   UNL     1      -5.494   2.408 125.985  0.00  0.00    +0.000 C 
BRANCH  15  16
ATOM     16  O   UNL     1      -4.592   3.431 125.522  0.00  0.00    +0.000 OA
BRANCH  16  18
ATOM     17  C   UNL     1      -2.479   3.258 126.608  0.00  0.00    +0.000 C 
ATOM     18  C   UNL     1      -3.791   3.982 126.492  0.00  0.00    +0.000 C 
ATOM     19  O   UNL     1      -4.086   4.954 127.172  0.00  0.00    +0.000 OA
ENDBRANCH  16  18
ENDBRANCH  15  16
ENDBRANCH   1  15
BRANCH   4  20
ATOM     20  O   UNL     1      -9.007   0.749 123.709  0.00  0.00    +0.000 OA
BRANCH  20  21
ATOM     21  C   UNL     1      -9.812  -0.081 122.987  0.00  0.00    +0.000 C 
ATOM     22  C   UNL     1      -9.417  -1.527 122.803  0.00  0.00    +0.000 C 
ATOM     23  O   UNL     1     -10.857   0.344 122.500  0.00  0.00    +0.000 OA
ENDBRANCH  20  21
ENDBRANCH   4  20
BRANCH   5  24
ATOM     24  O   UNL     1      -6.637  -0.244 124.779  0.00  0.00    +0.000 OA
BRANCH  24  25
ATOM     25  C   UNL     1      -6.086  -1.417 124.382  0.00  0.00    +0.000 C 
ATOM     26  C   UNL     1      -5.727  -2.456 125.400  0.00  0.00    +0.000 C 
ATOM     27  O   UNL     1      -5.957  -1.648 123.184  0.00  0.00    +0.000 OA
ENDBRANCH  24  25
ENDBRANCH   5  24
TORSDOF 8
ENDMDL
MODEL 2
REMARK VINA RESULT:      -6.7      1.953      2.441
REMARK  Name = Uridine triacetate
REMARK  11 active torsions:
REMARK  status: ('A' for Active; 'I' for Inactive)
REMARK    1  A    between atoms: C_1  and  C_2
REMARK    2  A    between atoms: C_2  and  O_4
REMARK    3  A    between atoms: O_4  and  C_5
REMARK    4  A    between atoms: C_5  and  C_6
REMARK    5  A    between atoms: C_8  and  N_19
REMARK    6  A    between atoms: C_9  and  O_10
REMARK    7  A    between atoms: O_10  and  C_11
REMARK    8  A    between atoms: C_11  and  C_12
REMARK    9  A    between atoms: C_14  and  O_15
REMARK   10  A    between atoms: O_15  and  C_16
REMARK   11  A    between atoms: C_16  and  C_17
REMARK                            x       y       z     vdW  Elec       q    Type
REMARK                         _______ _______ _______ _____ _____    ______ ____
ROOT
ATOM      1  C   UNL     1      -8.022   2.932 125.139  0.00  0.00    +0.000 C 
ATOM      2  O   UNL     1      -8.423   3.609 123.946  0.00  0.00    +0.000 OA
ATOM      3  C   UNL     1      -8.324   2.669 122.843  0.00  0.00    +0.000 C 
ATOM      4  C   UNL     1      -7.765   1.328 123.412  0.00  0.00    +0.000 C 
ATOM      5  C   UNL     1      -7.076   1.811 124.704  0.00  0.00    +0.000 C 
ENDROOT
BRANCH   3   6
ATOM      6  N   UNL     1      -7.445   3.288 121.829  0.00  0.00    +0.000 N 
ATOM      7  C   UNL     1      -6.099   3.487 122.087  0.00  0.00    +0.000 A 
ATOM      8  C   UNL     1      -5.299   4.186 121.291  0.00  0.00    +0.000 A 
ATOM      9  C   UNL     1      -5.845   4.726 120.043  0.00  0.00    +0.000 A 
ATOM     10  O   UNL     1      -5.181   5.453 119.336  0.00  0.00    +0.000 OA
ATOM     11  N   UNL     1      -7.129   4.339 119.762  0.00  0.00    +0.000 N 
ATOM     12  C   UNL     1      -8.011   3.771 120.650  0.00  0.00    +0.000 A 
ATOM     13  O   UNL     1      -9.209   3.714 120.378  0.00  0.00    +0.000 OA
ATOM     14  H   UNL     1      -7.520   4.695 118.903  0.00  0.00    +0.000 HD
ENDBRANCH   3   6
BRANCH   1  15
ATOM     15  C   UNL     1      -7.450   3.853 126.223  0.00  0.00    +0.000 C 
BRANCH  15  16
ATOM     16  O   UNL     1      -8.301   4.040 127.371  0.00  0.00    +0.000 OA
BRANCH  16  18
ATOM     17  C   UNL     1      -6.726   2.863 128.715  0.00  0.00    +0.000 C 
ATOM     18  C   UNL     1      -8.167   3.092 128.354  0.00  0.00    +0.000 C 
ATOM     19  O   UNL     1      -9.097   2.510 128.894  0.00  0.00    +0.000 OA
ENDBRANCH  16  18
ENDBRANCH  15  16
ENDBRANCH   1  15
BRANCH   4  20
ATOM     20  O   UNL     1      -8.822   0.381 123.705  0.00  0.00    +0.000 OA
BRANCH  20  21
ATOM     21  C   UNL     1      -8.626  -0.967 123.660  0.00  0.00    +0.000 C 
ATOM     22  C   UNL     1      -7.480  -1.527 122.851  0.00  0.00    +0.000 C 
ATOM     23  O   UNL     1      -9.372  -1.719 124.283  0.00  0.00    +0.000 OA
ENDBRANCH  20  21
ENDBRANCH   4  20
BRANCH   5  24
ATOM     24  O   UNL     1      -6.955   0.803 125.726  0.00  0.00    +0.000 OA
BRANCH  24  25
ATOM     25  C   UNL     1      -5.826   0.205 126.177  0.00  0.00    +0.000 C 
ATOM     26  C   UNL     1      -5.759  -1.290 126.270  0.00  0.00    +0.000 C 
ATOM     27  O   UNL     1      -4.841   0.889 126.433  0.00  0.00    +0.000 OA
ENDBRANCH  24  25
ENDBRANCH   5  24
TORSDOF 8
ENDMDL
MODEL 3
REMARK VINA RESULT:      -6.6      3.006      4.362
REMARK  Name = Uridine triacetate
REMARK  11 active torsions:
REMARK  status: ('A' for Active; 'I' for Inactive)
REMARK    1  A    between atoms: C_1  and  C_2
REMARK    2  A    between atoms: C_2  and  O_4
REMARK    3  A    between atoms: O_4  and  C_5
REMARK    4  A    between atoms: C_5  and  C_6
REMARK    5  A    between atoms: C_8  and  N_19
REMARK    6  A    between atoms: C_9  and  O_10
REMARK    7  A    between atoms: O_10  and  C_11
REMARK    8  A    between atoms: C_11  and  C_12
REMARK    9  A    between atoms: C_14  and  O_15
REMARK   10  A    between atoms: O_15  and  C_16
REMARK   11  A    between atoms: C_16  and  C_17
REMARK                            x       y       z     vdW  Elec       q    Type
REMARK                         _______ _______ _______ _____ _____    ______ ____
ROOT
ATOM      1  C   UNL     1      -6.507  -0.967 126.862  0.00  0.00    +0.000 C 
ATOM      2  O   UNL     1      -7.129   0.288 127.138  0.00  0.00    +0.000 OA
ATOM      3  C   UNL     1      -7.866   0.694 125.955  0.00  0.00    +0.000 C 
ATOM      4  C   UNL     1      -7.622  -0.383 124.853  0.00  0.00    +0.000 C 
ATOM      5  C   UNL     1      -6.312  -1.030 125.346  0.00  0.00    +0.000 C 
ENDROOT
BRANCH   3   6
ATOM      6  N   UNL     1      -7.373   2.036 125.581  0.00  0.00    +0.000 N 
ATOM      7  C   UNL     1      -6.099   2.446 125.936  0.00  0.00    +0.000 A 
ATOM      8  C   UNL     1      -5.663   3.690 125.780  0.00  0.00    +0.000 A 
ATOM      9  C   UNL     1      -6.547   4.672 125.144  0.00  0.00    +0.000 A 
ATOM     10  O   UNL     1      -6.231   5.839 125.072  0.00  0.00    +0.000 OA
ATOM     11  N   UNL     1      -7.718   4.157 124.653  0.00  0.00    +0.000 N 
ATOM     12  C   UNL     1      -8.249   2.928 124.962  0.00  0.00    +0.000 A 
ATOM     13  O   UNL     1      -9.421   2.676 124.688  0.00  0.00    +0.000 OA
ATOM     14  H   UNL     1      -8.336   4.816 124.205  0.00  0.00    +0.000 HD
ENDBRANCH   3   6
BRANCH   1  15
ATOM     15  C   UNL     1      -5.232  -1.230 127.671  0.00  0.00    +0.000 C 
BRANCH  15  16
ATOM     16  O   UNL     1      -5.003  -2.611 128.012  0.00  0.00    +0.000 OA
BRANCH  16  18
ATOM     17  C   UNL     1      -3.171  -3.551 129.209  0.00  0.00    +0.000 C 
ATOM     18  C   UNL     1      -4.484  -2.822 129.265  0.00  0.00    +0.000 C 
ATOM     19  O   UNL     1      -5.003  -2.451 130.308  0.00  0.00    +0.000 OA
ENDBRANCH  16  18
ENDBRANCH  15  16
ENDBRANCH   1  15
BRANCH   4  20
ATOM     20  O   UNL     1      -8.696  -1.355 124.798  0.00  0.00    +0.000 OA
BRANCH  20  21
ATOM     21  C   UNL     1      -9.249  -1.765 123.621  0.00  0.00    +0.000 C 
ATOM     22  C   UNL     1      -9.370  -3.242 123.331  0.00  0.00    +0.000 C 
ATOM     23  O   UNL     1      -9.655  -0.937 122.809  0.00  0.00    +0.000 OA
ENDBRANCH  20  21
ENDBRANCH   4  20
BRANCH   5  24
ATOM     24  O   UNL     1      -6.112  -2.384 124.899  0.00  0.00    +0.000 OA
BRANCH  24  25
ATOM     25  C   UNL     1      -5.530  -2.807 123.751  0.00  0.00    +0.000 C 
ATOM     26  C   UNL     1      -4.617  -3.995 123.769  0.00  0.00    +0.000 C 
ATOM     27  O   UNL     1      -5.818  -2.259 122.692  0.00  0.00    +0.000 OA
ENDBRANCH  24  25
ENDBRANCH   5  24
TORSDOF 8
ENDMDL
MODEL 4
REMARK VINA RESULT:      -6.5      4.138      7.586
REMARK  Name = Uridine triacetate
REMARK  11 active torsions:
REMARK  status: ('A' for Active; 'I' for Inactive)
REMARK    1  A    between atoms: C_1  and  C_2
REMARK    2  A    between atoms: C_2  and  O_4
REMARK    3  A    between atoms: O_4  and  C_5
REMARK    4  A    between atoms: C_5  and  C_6
REMARK    5  A    between atoms: C_8  and  N_19
REMARK    6  A    between atoms: C_9  and  O_10
REMARK    7  A    between atoms: O_10  and  C_11
REMARK    8  A    between atoms: C_11  and  C_12
REMARK    9  A    between atoms: C_14  and  O_15
REMARK   10  A    between atoms: O_15  and  C_16
REMARK   11  A    between atoms: C_16  and  C_17
REMARK                            x       y       z     vdW  Elec       q    Type
REMARK                         _______ _______ _______ _____ _____    ______ ____
ROOT
ATOM      1  C   UNL     1      -7.303   0.328 125.953  0.00  0.00    +0.000 C 
ATOM      2  O   UNL     1      -6.511   0.100 127.121  0.00  0.00    +0.000 OA
ATOM      3  C   UNL     1      -5.912  -1.218 127.006  0.00  0.00    +0.000 C 
ATOM      4  C   UNL     1      -6.431  -1.861 125.683  0.00  0.00    +0.000 C 
ATOM      5  C   UNL     1      -7.721  -1.050 125.438  0.00  0.00    +0.000 C 
ENDROOT
BRANCH   3   6
ATOM      6  N   UNL     1      -6.301  -1.973 128.216  0.00  0.00    +0.000 N 
ATOM      7  C   UNL     1      -7.538  -1.774 128.807  0.00  0.00    +0.000 A 
ATOM      8  C   UNL     1      -7.877  -2.290 129.981  0.00  0.00    +0.000 A 
ATOM      9  C   UNL     1      -6.923  -3.168 130.667  0.00  0.00    +0.000 A 
ATOM     10  O   UNL     1      -7.148  -3.580 131.783  0.00  0.00    +0.000 OA
ATOM     11  N   UNL     1      -5.797  -3.468 129.945  0.00  0.00    +0.000 N 
ATOM     12  C   UNL     1      -5.362  -2.807 128.821  0.00  0.00    +0.000 A 
ATOM     13  O   UNL     1      -4.215  -2.976 128.412  0.00  0.00    +0.000 OA
ATOM     14  H   UNL     1      -5.133  -4.076 130.396  0.00  0.00    +0.000 HD
ENDBRANCH   3   6
BRANCH   1  15
ATOM     15  C   UNL     1      -8.469   1.301 126.163  0.00  0.00    +0.000 C 
BRANCH  15  16
ATOM     16  O   UNL     1      -9.201   1.638 124.969  0.00  0.00    +0.000 OA
BRANCH  16  18
ATOM     17  C   UNL     1      -8.610   2.666 122.903  0.00  0.00    +0.000 C 
ATOM     18  C   UNL     1      -8.837   2.824 124.381  0.00  0.00    +0.000 C 
ATOM     19  O   UNL     1      -8.727   3.890 124.969  0.00  0.00    +0.000 OA
ENDBRANCH  16  18
ENDBRANCH  15  16
ENDBRANCH   1  15
BRANCH   4  20
ATOM     20  O   UNL     1      -5.492  -1.690 124.593  0.00  0.00    +0.000 OA
BRANCH  20  21
ATOM     21  C   UNL     1      -5.325  -2.630 123.620  0.00  0.00    +0.000 C 
ATOM     22  C   UNL     1      -4.713  -3.965 123.972  0.00  0.00    +0.000 C 
ATOM     23  O   UNL     1      -5.679  -2.394 122.467  0.00  0.00    +0.000 OA
ENDBRANCH  20  21
ENDBRANCH   4  20
BRANCH   5  24
ATOM     24  O   UNL     1      -8.133  -0.991 124.059  0.00  0.00    +0.000 OA
BRANCH  24  25
ATOM     25  C   UNL     1      -9.136  -1.674 123.458  0.00  0.00    +0.000 C 
ATOM     26  C   UNL     1      -9.261  -3.154 123.664  0.00  0.00    +0.000 C 
ATOM     27  O   UNL     1      -9.981  -1.062 122.812  0.00  0.00    +0.000 OA
ENDBRANCH  24  25
ENDBRANCH   5  24
TORSDOF 8
ENDMDL
MODEL 5
REMARK VINA RESULT:      -6.3      2.934      6.251
REMARK  Name = Uridine triacetate
REMARK  11 active torsions:
REMARK  status: ('A' for Active; 'I' for Inactive)
REMARK    1  A    between atoms: C_1  and  C_2
REMARK    2  A    between atoms: C_2  and  O_4
REMARK    3  A    between atoms: O_4  and  C_5
REMARK    4  A    between atoms: C_5  and  C_6
REMARK    5  A    between atoms: C_8  and  N_19
REMARK    6  A    between atoms: C_9  and  O_10
REMARK    7  A    between atoms: O_10  and  C_11
REMARK    8  A    between atoms: C_11  and  C_12
REMARK    9  A    between atoms: C_14  and  O_15
REMARK   10  A    between atoms: O_15  and  C_16
REMARK   11  A    between atoms: C_16  and  C_17
REMARK                            x       y       z     vdW  Elec       q    Type
REMARK                         _______ _______ _______ _____ _____    ______ ____
ROOT
ATOM      1  C   UNL     1      -8.611   2.349 124.370  0.00  0.00    +0.000 C 
ATOM      2  O   UNL     1      -9.028   0.983 124.360  0.00  0.00    +0.000 OA
ATOM      3  C   UNL     1      -8.659   0.392 125.634  0.00  0.00    +0.000 C 
ATOM      4  C   UNL     1      -7.908   1.481 126.461  0.00  0.00    +0.000 C 
ATOM      5  C   UNL     1      -7.437   2.437 125.346  0.00  0.00    +0.000 C 
ENDROOT
BRANCH   3   6
ATOM      6  N   UNL     1      -7.828  -0.793 125.334  0.00  0.00    +0.000 N 
ATOM      7  C   UNL     1      -6.454  -0.678 125.206  0.00  0.00    +0.000 A 
ATOM      8  C   UNL     1      -5.677  -1.664 124.773  0.00  0.00    +0.000 A 
ATOM      9  C   UNL     1      -6.288  -2.961 124.470  0.00  0.00    +0.000 A 
ATOM     10  O   UNL     1      -5.637  -3.857 123.979  0.00  0.00    +0.000 OA
ATOM     11  N   UNL     1      -7.616  -3.060 124.792  0.00  0.00    +0.000 N 
ATOM     12  C   UNL     1      -8.457  -2.009 125.070  0.00  0.00    +0.000 A 
ATOM     13  O   UNL     1      -9.675  -2.179 125.077  0.00  0.00    +0.000 OA
ATOM     14  H   UNL     1      -8.053  -3.948 124.598  0.00  0.00    +0.000 HD
ENDBRANCH   3   6
BRANCH   1  15
ATOM     15  C   UNL     1      -8.319   2.929 122.981  0.00  0.00    +0.000 C 
BRANCH  15  16
ATOM     16  O   UNL     1      -6.953   2.797 122.543  0.00  0.00    +0.000 OA
BRANCH  16  18
ATOM     17  C   UNL     1      -5.233   4.281 121.828  0.00  0.00    +0.000 C 
ATOM     18  C   UNL     1      -6.575   3.666 121.550  0.00  0.00    +0.000 C 
ATOM     19  O   UNL     1      -7.231   3.907 120.546  0.00  0.00    +0.000 OA
ENDBRANCH  16  18
ENDBRANCH  15  16
ENDBRANCH   1  15
BRANCH   4  20
ATOM     20  O   UNL     1      -8.788   2.157 127.392  0.00  0.00    +0.000 OA
BRANCH  20  21
ATOM     21  C   UNL     1      -8.561   2.164 128.736  0.00  0.00    +0.000 C 
ATOM     22  C   UNL     1      -8.528   3.479 129.479  0.00  0.00    +0.000 C 
ATOM     23  O   UNL     1      -8.396   1.106 129.339  0.00  0.00    +0.000 OA
ENDBRANCH  20  21
ENDBRANCH   4  20
BRANCH   5  24
ATOM     24  O   UNL     1      -7.216   3.793 125.779  0.00  0.00    +0.000 OA
BRANCH  24  25
ATOM     25  C   UNL     1      -6.165   4.599 125.494  0.00  0.00    +0.000 C 
ATOM     26  C   UNL     1      -4.767   4.065 125.584  0.00  0.00    +0.000 C 
ATOM     27  O   UNL     1      -6.371   5.738 125.088  0.00  0.00    +0.000 OA
ENDBRANCH  24  25
ENDBRANCH   5  24
TORSDOF 8
ENDMDL
MODEL 6
REMARK VINA RESULT:      -6.2      2.852      6.171
REMARK  Name = Uridine triacetate
REMARK  11 active torsions:
REMARK  status: ('A' for Active; 'I' for Inactive)
REMARK    1  A    between atoms: C_1  and  C_2
REMARK    2  A    between atoms: C_2  and  O_4
REMARK    3  A    between atoms: O_4  and  C_5
REMARK    4  A    between atoms: C_5  and  C_6
REMARK    5  A    between atoms: C_8  and  N_19
REMARK    6  A    between atoms: C_9  and  O_10
REMARK    7  A    between atoms: O_10  and  C_11
REMARK    8  A    between atoms: C_11  and  C_12
REMARK    9  A    between atoms: C_14  and  O_15
REMARK   10  A    between atoms: O_15  and  C_16
REMARK   11  A    between atoms: C_16  and  C_17
REMARK                            x       y       z     vdW  Elec       q    Type
REMARK                         _______ _______ _______ _____ _____    ______ ____
ROOT
ATOM      1  C   UNL     1      -8.733   1.234 124.779  0.00  0.00    +0.000 C 
ATOM      2  O   UNL     1      -8.807   2.349 125.669  0.00  0.00    +0.000 OA
ATOM      3  C   UNL     1      -7.594   3.130 125.510  0.00  0.00    +0.000 C 
ATOM      4  C   UNL     1      -6.688   2.394 124.475  0.00  0.00    +0.000 C 
ATOM      5  C   UNL     1      -7.246   0.958 124.552  0.00  0.00    +0.000 C 
ENDROOT
BRANCH   3   6
ATOM      6  N   UNL     1      -6.979   3.247 126.849  0.00  0.00    +0.000 N 
ATOM      7  C   UNL     1      -5.984   2.370 127.248  0.00  0.00    +0.000 A 
ATOM      8  C   UNL     1      -5.515   2.315 128.489  0.00  0.00    +0.000 A 
ATOM      9  C   UNL     1      -6.028   3.268 129.478  0.00  0.00    +0.000 A 
ATOM     10  O   UNL     1      -5.704   3.190 130.643  0.00  0.00    +0.000 OA
ATOM     11  N   UNL     1      -6.872   4.221 128.974  0.00  0.00    +0.000 N 
ATOM     12  C   UNL     1      -7.492   4.180 127.748  0.00  0.00    +0.000 A 
ATOM     13  O   UNL     1      -8.430   4.938 127.506  0.00  0.00    +0.000 OA
ATOM     14  H   UNL     1      -7.229   4.891 129.638  0.00  0.00    +0.000 HD
ENDBRANCH   3   6
BRANCH   1  15
ATOM     15  C   UNL     1      -9.538   0.011 125.234  0.00  0.00    +0.000 C 
BRANCH  15  16
ATOM     16  O   UNL     1      -8.816  -0.913 126.072  0.00  0.00    +0.000 OA
BRANCH  16  18
ATOM     17  C   UNL     1      -8.703  -3.085 127.042  0.00  0.00    +0.000 C 
ATOM     18  C   UNL     1      -9.123  -2.237 125.875  0.00  0.00    +0.000 C 
ATOM     19  O   UNL     1      -9.686  -2.683 124.886  0.00  0.00    +0.000 OA
ENDBRANCH  16  18
ENDBRANCH  15  16
ENDBRANCH   1  15
BRANCH   4  20
ATOM     20  O   UNL     1      -6.833   2.940 123.141  0.00  0.00    +0.000 OA
BRANCH  20  21
ATOM     21  C   UNL     1      -5.936   3.818 122.611  0.00  0.00    +0.000 C 
ATOM     22  C   UNL     1      -5.476   3.641 121.183  0.00  0.00    +0.000 C 
ATOM     23  O   UNL     1      -5.514   4.753 123.288  0.00  0.00    +0.000 OA
ENDBRANCH  20  21
ENDBRANCH   4  20
BRANCH   5  24
ATOM     24  O   UNL     1      -7.034   0.173 123.364  0.00  0.00    +0.000 OA
BRANCH  24  25
ATOM     25  C   UNL     1      -6.717  -1.142 123.277  0.00  0.00    +0.000 C 
ATOM     26  C   UNL     1      -5.773  -1.750 124.271  0.00  0.00    +0.000 C 
ATOM     27  O   UNL     1      -7.266  -1.841 122.432  0.00  0.00    +0.000 OA
ENDBRANCH  24  25
ENDBRANCH   5  24
TORSDOF 8
ENDMDL
MODEL 7
REMARK VINA RESULT:      -6.2      6.560      8.771
REMARK  Name = Uridine triacetate
REMARK  11 active torsions:
REMARK  status: ('A' for Active; 'I' for Inactive)
REMARK    1  A    between atoms: C_1  and  C_2
REMARK    2  A    between atoms: C_2  and  O_4
REMARK    3  A    between atoms: O_4  and  C_5
REMARK    4  A    between atoms: C_5  and  C_6
REMARK    5  A    between atoms: C_8  and  N_19
REMARK    6  A    between atoms: C_9  and  O_10
REMARK    7  A    between atoms: O_10  and  C_11
REMARK    8  A    between atoms: C_11  and  C_12
REMARK    9  A    between atoms: C_14  and  O_15
REMARK   10  A    between atoms: O_15  and  C_16
REMARK   11  A    between atoms: C_16  and  C_17
REMARK                            x       y       z     vdW  Elec       q    Type
REMARK                         _______ _______ _______ _____ _____    ______ ____
ROOT
ATOM      1  C   UNL     1      -6.912   4.358 129.378  0.00  0.00    +0.000 C 
ATOM      2  O   UNL     1      -7.429   5.656 129.677  0.00  0.00    +0.000 OA
ATOM      3  C   UNL     1      -8.294   5.537 130.837  0.00  0.00    +0.000 C 
ATOM      4  C   UNL     1      -8.345   4.030 131.238  0.00  0.00    +0.000 C 
ATOM      5  C   UNL     1      -7.929   3.352 129.917  0.00  0.00    +0.000 C 
ENDROOT
BRANCH   3   6
ATOM      6  N   UNL     1      -9.611   6.085 130.449  0.00  0.00    +0.000 N 
ATOM      7  C   UNL     1      -9.917   6.315 129.118  0.00  0.00    +0.000 A 
ATOM      8  C   UNL     1     -11.008   6.959 128.721  0.00  0.00    +0.000 A 
ATOM      9  C   UNL     1     -11.974   7.398 129.733  0.00  0.00    +0.000 A 
ATOM     10  O   UNL     1     -12.931   8.074 129.427  0.00  0.00    +0.000 OA
ATOM     11  N   UNL     1     -11.701   6.978 131.009  0.00  0.00    +0.000 N 
ATOM     12  C   UNL     1     -10.502   6.471 131.450  0.00  0.00    +0.000 A 
ATOM     13  O   UNL     1     -10.277   6.382 132.655  0.00  0.00    +0.000 OA
ATOM     14  H   UNL     1     -12.359   7.263 131.717  0.00  0.00    +0.000 HD
ENDBRANCH   3   6
BRANCH   1  15
ATOM     15  C   UNL     1      -6.543   4.152 127.905  0.00  0.00    +0.000 C 
BRANCH  15  16
ATOM     16  O   UNL     1      -7.470   4.723 126.961  0.00  0.00    +0.000 OA
BRANCH  16  18
ATOM     17  C   UNL     1      -7.068   2.609 125.941  0.00  0.00    +0.000 C 
ATOM     18  C   UNL     1      -7.879   3.875 125.962  0.00  0.00    +0.000 C 
ATOM     19  O   UNL     1      -8.799   4.098 125.189  0.00  0.00    +0.000 OA
ENDBRANCH  16  18
ENDBRANCH  15  16
ENDBRANCH   1  15
BRANCH   4  20
ATOM     20  O   UNL     1      -7.411   3.721 132.302  0.00  0.00    +0.000 OA
BRANCH  20  21
ATOM     21  C   UNL     1      -7.812   3.212 133.501  0.00  0.00    +0.000 C 
ATOM     22  C   UNL     1      -8.419   4.131 134.534  0.00  0.00    +0.000 C 
ATOM     23  O   UNL     1      -7.690   2.011 133.733  0.00  0.00    +0.000 OA
ENDBRANCH  20  21
ENDBRANCH   4  20
BRANCH   5  24
ATOM     24  O   UNL     1      -7.340   2.047 130.078  0.00  0.00    +0.000 OA
BRANCH  24  25
ATOM     25  C   UNL     1      -7.897   0.841 129.811  0.00  0.00    +0.000 C 
ATOM     26  C   UNL     1      -8.418  -0.006 130.932  0.00  0.00    +0.000 C 
ATOM     27  O   UNL     1      -8.039   0.487 128.645  0.00  0.00    +0.000 OA
ENDBRANCH  24  25
ENDBRANCH   5  24
TORSDOF 8
ENDMDL
MODEL 8
REMARK VINA RESULT:      -6.1      3.179      3.780
REMARK  Name = Uridine triacetate
REMARK  11 active torsions:
REMARK  status: ('A' for Active; 'I' for Inactive)
REMARK    1  A    between atoms: C_1  and  C_2
REMARK    2  A    between atoms: C_2  and  O_4
REMARK    3  A    between atoms: O_4  and  C_5
REMARK    4  A    between atoms: C_5  and  C_6
REMARK    5  A    between atoms: C_8  and  N_19
REMARK    6  A    between atoms: C_9  and  O_10
REMARK    7  A    between atoms: O_10  and  C_11
REMARK    8  A    between atoms: C_11  and  C_12
REMARK    9  A    between atoms: C_14  and  O_15
REMARK   10  A    between atoms: O_15  and  C_16
REMARK   11  A    between atoms: C_16  and  C_17
REMARK                            x       y       z     vdW  Elec       q    Type
REMARK                         _______ _______ _______ _____ _____    ______ ____
ROOT
ATOM      1  C   UNL     1      -8.834   1.457 127.243  0.00  0.00    +0.000 C 
ATOM      2  O   UNL     1      -9.011   2.382 126.168  0.00  0.00    +0.000 OA
ATOM      3  C   UNL     1      -8.771   1.672 124.924  0.00  0.00    +0.000 C 
ATOM      4  C   UNL     1      -8.362   0.210 125.283  0.00  0.00    +0.000 C 
ATOM      5  C   UNL     1      -7.874   0.381 126.736  0.00  0.00    +0.000 C 
ENDROOT
BRANCH   3   6
ATOM      6  N   UNL     1      -7.716   2.415 124.202  0.00  0.00    +0.000 N 
ATOM      7  C   UNL     1      -6.535   2.761 124.837  0.00  0.00    +0.000 A 
ATOM      8  C   UNL     1      -5.627   3.569 124.301  0.00  0.00    +0.000 A 
ATOM      9  C   UNL     1      -5.851   4.075 122.943  0.00  0.00    +0.000 A 
ATOM     10  O   UNL     1      -5.102   4.892 122.453  0.00  0.00    +0.000 OA
ATOM     11  N   UNL     1      -6.944   3.550 122.306  0.00  0.00    +0.000 N 
ATOM     12  C   UNL     1      -7.971   2.860 122.906  0.00  0.00    +0.000 A 
ATOM     13  O   UNL     1      -9.023   2.672 122.299  0.00  0.00    +0.000 OA
ATOM     14  H   UNL     1      -7.109   3.880 121.368  0.00  0.00    +0.000 HD
ENDBRANCH   3   6
BRANCH   1  15
ATOM     15  C   UNL     1      -8.411   2.105 128.566  0.00  0.00    +0.000 C 
BRANCH  15  16
ATOM     16  O   UNL     1      -8.686   3.516 128.667  0.00  0.00    +0.000 OA
BRANCH  16  18
ATOM     17  C   UNL     1     -10.297   3.300 130.407  0.00  0.00    +0.000 C 
ATOM     18  C   UNL     1      -9.033   3.952 129.922  0.00  0.00    +0.000 C 
ATOM     19  O   UNL     1      -8.392   4.755 130.584  0.00  0.00    +0.000 OA
ENDBRANCH  16  18
ENDBRANCH  15  16
ENDBRANCH   1  15
BRANCH   4  20
ATOM     20  O   UNL     1      -9.487  -0.700 125.213  0.00  0.00    +0.000 OA
BRANCH  20  21
ATOM     21  C   UNL     1      -9.360  -1.986 124.780  0.00  0.00    +0.000 C 
ATOM     22  C   UNL     1      -8.685  -2.263 123.458  0.00  0.00    +0.000 C 
ATOM     23  O   UNL     1      -9.783  -2.912 125.468  0.00  0.00    +0.000 OA
ENDBRANCH  20  21
ENDBRANCH   4  20
BRANCH   5  24
ATOM     24  O   UNL     1      -7.958  -0.815 127.536  0.00  0.00    +0.000 OA
BRANCH  24  25
ATOM     25  C   UNL     1      -7.024  -1.784 127.688  0.00  0.00    +0.000 C 
ATOM     26  C   UNL     1      -7.283  -2.932 128.615  0.00  0.00    +0.000 C 
ATOM     27  O   UNL     1      -6.005  -1.753 127.004  0.00  0.00    +0.000 OA
ENDBRANCH  24  25
ENDBRANCH   5  24
TORSDOF 8
ENDMDL
MODEL 9
REMARK VINA RESULT:      -6.0      2.670      5.206
REMARK  Name = Uridine triacetate
REMARK  11 active torsions:
REMARK  status: ('A' for Active; 'I' for Inactive)
REMARK    1  A    between atoms: C_1  and  C_2
REMARK    2  A    between atoms: C_2  and  O_4
REMARK    3  A    between atoms: O_4  and  C_5
REMARK    4  A    between atoms: C_5  and  C_6
REMARK    5  A    between atoms: C_8  and  N_19
REMARK    6  A    between atoms: C_9  and  O_10
REMARK    7  A    between atoms: O_10  and  C_11
REMARK    8  A    between atoms: C_11  and  C_12
REMARK    9  A    between atoms: C_14  and  O_15
REMARK   10  A    between atoms: O_15  and  C_16
REMARK   11  A    between atoms: C_16  and  C_17
REMARK                            x       y       z     vdW  Elec       q    Type
REMARK                         _______ _______ _______ _____ _____    ______ ____
ROOT
ATOM      1  C   UNL     1      -7.897  -0.235 125.976  0.00  0.00    +0.000 C 
ATOM      2  O   UNL     1      -7.671   1.125 126.351  0.00  0.00    +0.000 OA
ATOM      3  C   UNL     1      -7.134   1.824 125.197  0.00  0.00    +0.000 C 
ATOM      4  C   UNL     1      -6.972   0.783 124.045  0.00  0.00    +0.000 C 
ATOM      5  C   UNL     1      -6.923  -0.539 124.837  0.00  0.00    +0.000 C 
ENDROOT
BRANCH   3   6
ATOM      6  N   UNL     1      -5.855   2.433 125.619  0.00  0.00    +0.000 N 
ATOM      7  C   UNL     1      -5.131   1.897 126.671  0.00  0.00    +0.000 A 
ATOM      8  C   UNL     1      -4.071   2.492 127.205  0.00  0.00    +0.000 A 
ATOM      9  C   UNL     1      -3.600   3.751 126.618  0.00  0.00    +0.000 A 
ATOM     10  O   UNL     1      -2.701   4.379 127.132  0.00  0.00    +0.000 OA
ATOM     11  N   UNL     1      -4.248   4.128 125.472  0.00  0.00    +0.000 N 
ATOM     12  C   UNL     1      -5.443   3.621 125.018  0.00  0.00    +0.000 A 
ATOM     13  O   UNL     1      -6.068   4.210 124.138  0.00  0.00    +0.000 OA
ATOM     14  H   UNL     1      -3.933   4.987 125.049  0.00  0.00    +0.000 HD
ENDBRANCH   3   6
BRANCH   1  15
ATOM     15  C   UNL     1      -7.831  -1.228 127.142  0.00  0.00    +0.000 C 
BRANCH  15  16
ATOM     16  O   UNL     1      -8.648  -2.405 126.984  0.00  0.00    +0.000 OA
BRANCH  16  18
ATOM     17  C   UNL     1      -7.737  -2.800 129.149  0.00  0.00    +0.000 C 
ATOM     18  C   UNL     1      -8.527  -3.334 127.988  0.00  0.00    +0.000 C 
ATOM     19  O   UNL     1      -9.014  -4.456 127.964  0.00  0.00    +0.000 OA
ENDBRANCH  16  18
ENDBRANCH  15  16
ENDBRANCH   1  15
BRANCH   4  20
ATOM     20  O   UNL     1      -8.098   0.805 123.134  0.00  0.00    +0.000 OA
BRANCH  20  21
ATOM     21  C   UNL     1      -8.955   1.862 123.057  0.00  0.00    +0.000 C 
ATOM     22  C   UNL     1      -8.629   3.020 122.144  0.00  0.00    +0.000 C 
ATOM     23  O   UNL     1      -9.990   1.865 123.719  0.00  0.00    +0.000 OA
ENDBRANCH  20  21
ENDBRANCH   4  20
BRANCH   5  24
ATOM     24  O   UNL     1      -7.338  -1.697 124.088  0.00  0.00    +0.000 OA
BRANCH  24  25
ATOM     25  C   UNL     1      -6.704  -2.889 123.976  0.00  0.00    +0.000 C 
ATOM     26  C   UNL     1      -5.284  -2.939 123.499  0.00  0.00    +0.000 C 
ATOM     27  O   UNL     1      -7.275  -3.913 124.340  0.00  0.00    +0.000 OA
ENDBRANCH  24  25
ENDBRANCH   5  24
TORSDOF 8
ENDMDL
