MODEL 1
REMARK VINA RESULT:      -8.3      0.000      0.000
REMARK  Name = Ursodeoxycholic acid
REMARK  10 active torsions:
REMARK  status: ('A' for Active; 'I' for Inactive)
REMARK    1  A    between atoms: C_2  and  C_27
REMARK    2  A    between atoms: C_9  and  O_10
REMARK    3  A    between atoms: C_15  and  O_16
REMARK    4  A    between atoms: C_19  and  C_20
REMARK    5  A    between atoms: C_25  and  C_26
REMARK    6  A    between atoms: C_27  and  C_28
REMARK    7  A    between atoms: C_27  and  C_29
REMARK    8  A    between atoms: C_29  and  C_30
REMARK    9  A    between atoms: C_30  and  C_31
REMARK   10  A    between atoms: C_31  and  O_32
REMARK                            x       y       z     vdW  Elec       q    Type
REMARK                         _______ _______ _______ _____ _____    ______ ____
ROOT
ATOM      1  C   UNL     1     -10.104   6.913 130.881  0.00  0.00    +0.000 C 
ATOM      2  C   UNL     1     -10.962   6.245 131.977  0.00  0.00    +0.000 C 
ATOM      3  C   UNL     1      -9.999   5.639 132.989  0.00  0.00    +0.000 C 
ATOM      4  C   UNL     1      -8.639   6.198 132.599  0.00  0.00    +0.000 C 
ATOM      5  C   UNL     1      -7.388   5.463 133.085  0.00  0.00    +0.000 C 
ATOM      6  C   UNL     1      -7.274   5.430 134.621  0.00  0.00    +0.000 C 
ATOM      7  C   UNL     1      -6.011   4.688 135.063  0.00  0.00    +0.000 C 
ATOM      8  C   UNL     1      -4.722   5.253 134.447  0.00  0.00    +0.000 C 
ATOM      9  C   UNL     1      -4.359   6.583 135.137  0.00  0.00    +0.000 C 
ATOM     10  C   UNL     1      -3.094   7.208 134.565  0.00  0.00    +0.000 C 
ATOM     11  C   UNL     1      -3.237   7.426 133.064  0.00  0.00    +0.000 C 
ATOM     12  C   UNL     1      -3.532   6.102 132.368  0.00  0.00    +0.000 C 
ATOM     13  C   UNL     1      -4.809   5.385 132.891  0.00  0.00    +0.000 C 
ATOM     14  C   UNL     1      -4.810   3.966 132.264  0.00  0.00    +0.000 C 
ATOM     15  C   UNL     1      -6.117   6.164 132.507  0.00  0.00    +0.000 C 
ATOM     16  C   UNL     1      -6.205   6.505 130.999  0.00  0.00    +0.000 C 
ATOM     17  C   UNL     1      -7.533   7.142 130.591  0.00  0.00    +0.000 C 
ATOM     18  C   UNL     1      -8.708   6.272 131.053  0.00  0.00    +0.000 C 
ATOM     19  C   UNL     1      -8.660   4.896 130.348  0.00  0.00    +0.000 C 
ENDROOT
BRANCH   6  20
ATOM     20  O   UNL     1      -8.394   4.802 135.230  0.00  0.00    +0.000 OA
ATOM     21  H   UNL     1      -8.514   5.177 136.117  0.00  0.00    +0.000 HD
ENDBRANCH   6  20
BRANCH  10  22
ATOM     22  O   UNL     1      -2.833   8.445 135.215  0.00  0.00    +0.000 OA
ATOM     23  H   UNL     1      -1.992   8.798 134.877  0.00  0.00    +0.000 HD
ENDBRANCH  10  22
BRANCH   1  24
ATOM     24  C   UNL     1     -10.717   6.865 129.452  0.00  0.00    +0.000 C 
ATOM     25  C   UNL     1     -12.223   6.582 129.429  0.00  0.00    +0.000 C 
BRANCH  24  26
ATOM     26  C   UNL     1     -10.405   8.151 128.674  0.00  0.00    +0.000 C 
BRANCH  26  27
ATOM     27  C   UNL     1     -11.234   8.271 127.398  0.00  0.00    +0.000 C 
BRANCH  27  28
ATOM     28  C   UNL     1     -10.705   7.584 126.174  0.00  0.00    +0.000 C 
ATOM     29  O   UNL     1     -10.162   6.483 126.249  0.00  0.00    +0.000 OA
BRANCH  28  30
ATOM     30  O   UNL     1     -10.853   8.216 124.999  0.00  0.00    +0.000 OA
ATOM     31  H   UNL     1     -10.795   7.669 124.196  0.00  0.00    +0.000 HD
ENDBRANCH  28  30
ENDBRANCH  27  28
ENDBRANCH  26  27
ENDBRANCH  24  26
ENDBRANCH   1  24
TORSDOF 7
ENDMDL
MODEL 2
REMARK VINA RESULT:      -7.9      7.828     11.238
REMARK  Name = Ursodeoxycholic acid
REMARK  10 active torsions:
REMARK  status: ('A' for Active; 'I' for Inactive)
REMARK    1  A    between atoms: C_2  and  C_27
REMARK    2  A    between atoms: C_9  and  O_10
REMARK    3  A    between atoms: C_15  and  O_16
REMARK    4  A    between atoms: C_19  and  C_20
REMARK    5  A    between atoms: C_25  and  C_26
REMARK    6  A    between atoms: C_27  and  C_28
REMARK    7  A    between atoms: C_27  and  C_29
REMARK    8  A    between atoms: C_29  and  C_30
REMARK    9  A    between atoms: C_30  and  C_31
REMARK   10  A    between atoms: C_31  and  O_32
REMARK                            x       y       z     vdW  Elec       q    Type
REMARK                         _______ _______ _______ _____ _____    ______ ____
ROOT
ATOM      1  C   UNL     1      -6.649  -1.818 126.842  0.00  0.00    +0.000 C 
ATOM      2  C   UNL     1      -7.934  -2.491 126.315  0.00  0.00    +0.000 C 
ATOM      3  C   UNL     1      -8.608  -1.495 125.380  0.00  0.00    +0.000 C 
ATOM      4  C   UNL     1      -7.571  -0.399 125.184  0.00  0.00    +0.000 C 
ATOM      5  C   UNL     1      -8.048   0.969 124.695  0.00  0.00    +0.000 C 
ATOM      6  C   UNL     1      -8.697   0.912 123.299  0.00  0.00    +0.000 C 
ATOM      7  C   UNL     1      -9.158   2.299 122.849  0.00  0.00    +0.000 C 
ATOM      8  C   UNL     1      -8.041   3.354 122.872  0.00  0.00    +0.000 C 
ATOM      9  C   UNL     1      -7.089   3.123 121.682  0.00  0.00    +0.000 C 
ATOM     10  C   UNL     1      -5.945   4.129 121.651  0.00  0.00    +0.000 C 
ATOM     11  C   UNL     1      -5.161   4.087 122.957  0.00  0.00    +0.000 C 
ATOM     12  C   UNL     1      -6.087   4.379 124.133  0.00  0.00    +0.000 C 
ATOM     13  C   UNL     1      -7.292   3.402 124.244  0.00  0.00    +0.000 C 
ATOM     14  C   UNL     1      -8.243   3.992 125.318  0.00  0.00    +0.000 C 
ATOM     15  C   UNL     1      -6.835   1.953 124.641  0.00  0.00    +0.000 C 
ATOM     16  C   UNL     1      -5.928   1.919 125.894  0.00  0.00    +0.000 C 
ATOM     17  C   UNL     1      -5.590   0.506 126.368  0.00  0.00    +0.000 C 
ATOM     18  C   UNL     1      -6.871  -0.314 126.564  0.00  0.00    +0.000 C 
ATOM     19  C   UNL     1      -7.738   0.314 127.680  0.00  0.00    +0.000 C 
ENDROOT
BRANCH   6  20
ATOM     20  O   UNL     1      -9.817   0.037 123.262  0.00  0.00    +0.000 OA
ATOM     21  H   UNL     1      -9.987  -0.284 124.162  0.00  0.00    +0.000 HD
ENDBRANCH   6  20
BRANCH  10  22
ATOM     22  O   UNL     1      -5.084   3.843 120.556  0.00  0.00    +0.000 OA
ATOM     23  H   UNL     1      -5.079   4.613 119.961  0.00  0.00    +0.000 HD
ENDBRANCH  10  22
BRANCH   1  24
ATOM     24  C   UNL     1      -6.259  -2.204 128.297  0.00  0.00    +0.000 C 
ATOM     25  C   UNL     1      -7.248  -3.157 128.976  0.00  0.00    +0.000 C 
BRANCH  24  26
ATOM     26  C   UNL     1      -4.839  -2.784 128.353  0.00  0.00    +0.000 C 
BRANCH  26  27
ATOM     27  C   UNL     1      -4.567  -3.525 129.659  0.00  0.00    +0.000 C 
BRANCH  27  28
ATOM     28  C   UNL     1      -3.381  -3.078 130.463  0.00  0.00    +0.000 C 
ATOM     29  O   UNL     1      -3.209  -3.477 131.614  0.00  0.00    +0.000 OA
BRANCH  28  30
ATOM     30  O   UNL     1      -2.520  -2.234 129.875  0.00  0.00    +0.000 OA
ATOM     31  H   UNL     1      -1.624  -2.187 130.254  0.00  0.00    +0.000 HD
ENDBRANCH  28  30
ENDBRANCH  27  28
ENDBRANCH  26  27
ENDBRANCH  24  26
ENDBRANCH   1  24
TORSDOF 7
ENDMDL
MODEL 3
REMARK VINA RESULT:      -7.7      6.505      9.786
REMARK  Name = Ursodeoxycholic acid
REMARK  10 active torsions:
REMARK  status: ('A' for Active; 'I' for Inactive)
REMARK    1  A    between atoms: C_2  and  C_27
REMARK    2  A    between atoms: C_9  and  O_10
REMARK    3  A    between atoms: C_15  and  O_16
REMARK    4  A    between atoms: C_19  and  C_20
REMARK    5  A    between atoms: C_25  and  C_26
REMARK    6  A    between atoms: C_27  and  C_28
REMARK    7  A    between atoms: C_27  and  C_29
REMARK    8  A    between atoms: C_29  and  C_30
REMARK    9  A    between atoms: C_30  and  C_31
REMARK   10  A    between atoms: C_31  and  O_32
REMARK                            x       y       z     vdW  Elec       q    Type
REMARK                         _______ _______ _______ _____ _____    ______ ____
ROOT
ATOM      1  C   UNL     1      -8.171   3.032 128.612  0.00  0.00    +0.000 C 
ATOM      2  C   UNL     1      -7.984   4.181 127.598  0.00  0.00    +0.000 C 
ATOM      3  C   UNL     1      -7.644   3.542 126.258  0.00  0.00    +0.000 C 
ATOM      4  C   UNL     1      -7.907   2.059 126.468  0.00  0.00    +0.000 C 
ATOM      5  C   UNL     1      -7.247   1.064 125.512  0.00  0.00    +0.000 C 
ATOM      6  C   UNL     1      -7.701   1.248 124.051  0.00  0.00    +0.000 C 
ATOM      7  C   UNL     1      -7.018   0.235 123.131  0.00  0.00    +0.000 C 
ATOM      8  C   UNL     1      -7.221  -1.224 123.570  0.00  0.00    +0.000 C 
ATOM      9  C   UNL     1      -8.658  -1.669 123.236  0.00  0.00    +0.000 C 
ATOM     10  C   UNL     1      -8.933  -3.106 123.658  0.00  0.00    +0.000 C 
ATOM     11  C   UNL     1      -8.668  -3.287 125.147  0.00  0.00    +0.000 C 
ATOM     12  C   UNL     1      -7.226  -2.910 125.472  0.00  0.00    +0.000 C 
ATOM     13  C   UNL     1      -6.850  -1.455 125.071  0.00  0.00    +0.000 C 
ATOM     14  C   UNL     1      -5.312  -1.332 125.236  0.00  0.00    +0.000 C 
ATOM     15  C   UNL     1      -7.591  -0.393 125.960  0.00  0.00    +0.000 C 
ATOM     16  C   UNL     1      -7.432  -0.649 127.478  0.00  0.00    +0.000 C 
ATOM     17  C   UNL     1      -8.034   0.452 128.352  0.00  0.00    +0.000 C 
ATOM     18  C   UNL     1      -7.483   1.822 127.940  0.00  0.00    +0.000 C 
ATOM     19  C   UNL     1      -5.956   1.875 128.178  0.00  0.00    +0.000 C 
ENDROOT
BRANCH   6  20
ATOM     20  O   UNL     1      -7.420   2.553 123.562  0.00  0.00    +0.000 OA
ATOM     21  H   UNL     1      -6.613   2.513 123.024  0.00  0.00    +0.000 HD
ENDBRANCH   6  20
BRANCH  10  22
ATOM     22  O   UNL     1     -10.282  -3.445 123.358  0.00  0.00    +0.000 OA
ATOM     23  H   UNL     1     -10.770  -2.624 123.173  0.00  0.00    +0.000 HD
ENDBRANCH  10  22
BRANCH   1  24
ATOM     24  C   UNL     1      -7.726   3.365 130.064  0.00  0.00    +0.000 C 
ATOM     25  C   UNL     1      -7.188   4.788 130.241  0.00  0.00    +0.000 C 
BRANCH  24  26
ATOM     26  C   UNL     1      -8.859   3.096 131.064  0.00  0.00    +0.000 C 
BRANCH  26  27
ATOM     27  C   UNL     1     -10.239   3.264 130.435  0.00  0.00    +0.000 C 
BRANCH  27  28
ATOM     28  C   UNL     1     -10.886   4.612 130.555  0.00  0.00    +0.000 C 
ATOM     29  O   UNL     1     -11.423   5.146 129.587  0.00  0.00    +0.000 OA
BRANCH  28  30
ATOM     30  O   UNL     1     -10.856   5.205 131.759  0.00  0.00    +0.000 OA
ATOM     31  H   UNL     1     -11.688   5.601 132.073  0.00  0.00    +0.000 HD
ENDBRANCH  28  30
ENDBRANCH  27  28
ENDBRANCH  26  27
ENDBRANCH  24  26
ENDBRANCH   1  24
TORSDOF 7
ENDMDL
MODEL 4
REMARK VINA RESULT:      -7.6      8.013     10.035
REMARK  Name = Ursodeoxycholic acid
REMARK  10 active torsions:
REMARK  status: ('A' for Active; 'I' for Inactive)
REMARK    1  A    between atoms: C_2  and  C_27
REMARK    2  A    between atoms: C_9  and  O_10
REMARK    3  A    between atoms: C_15  and  O_16
REMARK    4  A    between atoms: C_19  and  C_20
REMARK    5  A    between atoms: C_25  and  C_26
REMARK    6  A    between atoms: C_27  and  C_28
REMARK    7  A    between atoms: C_27  and  C_29
REMARK    8  A    between atoms: C_29  and  C_30
REMARK    9  A    between atoms: C_30  and  C_31
REMARK   10  A    between atoms: C_31  and  O_32
REMARK                            x       y       z     vdW  Elec       q    Type
REMARK                         _______ _______ _______ _____ _____    ______ ____
ROOT
ATOM      1  C   UNL     1      -7.082  -1.535 124.205  0.00  0.00    +0.000 C 
ATOM      2  C   UNL     1      -7.801  -0.766 123.077  0.00  0.00    +0.000 C 
ATOM      3  C   UNL     1      -7.759   0.711 123.447  0.00  0.00    +0.000 C 
ATOM      4  C   UNL     1      -6.796   0.779 124.622  0.00  0.00    +0.000 C 
ATOM      5  C   UNL     1      -6.859   2.001 125.540  0.00  0.00    +0.000 C 
ATOM      6  C   UNL     1      -6.536   3.317 124.806  0.00  0.00    +0.000 C 
ATOM      7  C   UNL     1      -6.610   4.511 125.759  0.00  0.00    +0.000 C 
ATOM      8  C   UNL     1      -5.714   4.362 126.998  0.00  0.00    +0.000 C 
ATOM      9  C   UNL     1      -4.242   4.582 126.601  0.00  0.00    +0.000 C 
ATOM     10  C   UNL     1      -3.293   4.435 127.784  0.00  0.00    +0.000 C 
ATOM     11  C   UNL     1      -3.455   3.066 128.431  0.00  0.00    +0.000 C 
ATOM     12  C   UNL     1      -4.897   2.868 128.885  0.00  0.00    +0.000 C 
ATOM     13  C   UNL     1      -5.942   3.005 127.741  0.00  0.00    +0.000 C 
ATOM     14  C   UNL     1      -7.339   3.028 128.417  0.00  0.00    +0.000 C 
ATOM     15  C   UNL     1      -5.841   1.823 126.712  0.00  0.00    +0.000 C 
ATOM     16  C   UNL     1      -5.873   0.427 127.379  0.00  0.00    +0.000 C 
ATOM     17  C   UNL     1      -5.912  -0.729 126.380  0.00  0.00    +0.000 C 
ATOM     18  C   UNL     1      -7.066  -0.540 125.388  0.00  0.00    +0.000 C 
ATOM     19  C   UNL     1      -8.420  -0.576 126.135  0.00  0.00    +0.000 C 
ENDROOT
BRANCH   6  20
ATOM     20  O   UNL     1      -7.422   3.559 123.720  0.00  0.00    +0.000 OA
ATOM     21  H   UNL     1      -6.895   3.776 122.935  0.00  0.00    +0.000 HD
ENDBRANCH   6  20
BRANCH  10  22
ATOM     22  O   UNL     1      -1.951   4.614 127.348  0.00  0.00    +0.000 OA
ATOM     23  H   UNL     1      -1.944   5.288 126.648  0.00  0.00    +0.000 HD
ENDBRANCH  10  22
BRANCH   1  24
ATOM     24  C   UNL     1      -7.654  -2.951 124.498  0.00  0.00    +0.000 C 
ATOM     25  C   UNL     1      -8.879  -3.316 123.653  0.00  0.00    +0.000 C 
BRANCH  24  26
ATOM     26  C   UNL     1      -6.568  -4.027 124.353  0.00  0.00    +0.000 C 
BRANCH  26  27
ATOM     27  C   UNL     1      -5.362  -3.529 123.561  0.00  0.00    +0.000 C 
BRANCH  27  28
ATOM     28  C   UNL     1      -4.213  -4.479 123.398  0.00  0.00    +0.000 C 
ATOM     29  O   UNL     1      -3.050  -4.092 123.503  0.00  0.00    +0.000 OA
BRANCH  28  30
ATOM     30  O   UNL     1      -4.506  -5.763 123.140  0.00  0.00    +0.000 OA
ATOM     31  H   UNL     1      -3.972  -6.435 123.600  0.00  0.00    +0.000 HD
ENDBRANCH  28  30
ENDBRANCH  27  28
ENDBRANCH  26  27
ENDBRANCH  24  26
ENDBRANCH   1  24
TORSDOF 7
ENDMDL
MODEL 5
REMARK VINA RESULT:      -7.5      7.775     11.399
REMARK  Name = Ursodeoxycholic acid
REMARK  10 active torsions:
REMARK  status: ('A' for Active; 'I' for Inactive)
REMARK    1  A    between atoms: C_2  and  C_27
REMARK    2  A    between atoms: C_9  and  O_10
REMARK    3  A    between atoms: C_15  and  O_16
REMARK    4  A    between atoms: C_19  and  C_20
REMARK    5  A    between atoms: C_25  and  C_26
REMARK    6  A    between atoms: C_27  and  C_28
REMARK    7  A    between atoms: C_27  and  C_29
REMARK    8  A    between atoms: C_29  and  C_30
REMARK    9  A    between atoms: C_30  and  C_31
REMARK   10  A    between atoms: C_31  and  O_32
REMARK                            x       y       z     vdW  Elec       q    Type
REMARK                         _______ _______ _______ _____ _____    ______ ____
ROOT
ATOM      1  C   UNL     1      -7.562  -1.263 131.196  0.00  0.00    +0.000 C 
ATOM      2  C   UNL     1      -8.042   0.202 131.285  0.00  0.00    +0.000 C 
ATOM      3  C   UNL     1      -8.133   0.728 129.859  0.00  0.00    +0.000 C 
ATOM      4  C   UNL     1      -7.968  -0.508 128.988  0.00  0.00    +0.000 C 
ATOM      5  C   UNL     1      -7.546  -0.315 127.530  0.00  0.00    +0.000 C 
ATOM      6  C   UNL     1      -8.570   0.497 126.714  0.00  0.00    +0.000 C 
ATOM      7  C   UNL     1      -8.109   0.665 125.265  0.00  0.00    +0.000 C 
ATOM      8  C   UNL     1      -7.806  -0.666 124.561  0.00  0.00    +0.000 C 
ATOM      9  C   UNL     1      -9.127  -1.380 124.213  0.00  0.00    +0.000 C 
ATOM     10  C   UNL     1      -8.899  -2.718 123.521  0.00  0.00    +0.000 C 
ATOM     11  C   UNL     1      -8.033  -3.625 124.386  0.00  0.00    +0.000 C 
ATOM     12  C   UNL     1      -6.697  -2.950 124.679  0.00  0.00    +0.000 C 
ATOM     13  C   UNL     1      -6.830  -1.570 125.384  0.00  0.00    +0.000 C 
ATOM     14  C   UNL     1      -5.418  -0.928 125.373  0.00  0.00    +0.000 C 
ATOM     15  C   UNL     1      -7.365  -1.712 126.853  0.00  0.00    +0.000 C 
ATOM     16  C   UNL     1      -6.567  -2.734 127.699  0.00  0.00    +0.000 C 
ATOM     17  C   UNL     1      -6.992  -2.780 129.166  0.00  0.00    +0.000 C 
ATOM     18  C   UNL     1      -6.956  -1.375 129.779  0.00  0.00    +0.000 C 
ATOM     19  C   UNL     1      -5.509  -0.829 129.771  0.00  0.00    +0.000 C 
ENDROOT
BRANCH   6  20
ATOM     20  O   UNL     1      -8.791   1.790 127.263  0.00  0.00    +0.000 OA
ATOM     21  H   UNL     1      -9.031   2.394 126.542  0.00  0.00    +0.000 HD
ENDBRANCH   6  20
BRANCH  10  22
ATOM     22  O   UNL     1     -10.150  -3.341 123.259  0.00  0.00    +0.000 OA
ATOM     23  H   UNL     1      -9.983  -4.258 122.980  0.00  0.00    +0.000 HD
ENDBRANCH  10  22
BRANCH   1  24
ATOM     24  C   UNL     1      -6.659  -1.727 132.375  0.00  0.00    +0.000 C 
ATOM     25  C   UNL     1      -6.620  -0.749 133.553  0.00  0.00    +0.000 C 
BRANCH  24  26
ATOM     26  C   UNL     1      -7.059  -3.128 132.858  0.00  0.00    +0.000 C 
BRANCH  26  27
ATOM     27  C   UNL     1      -5.856  -4.055 133.008  0.00  0.00    +0.000 C 
BRANCH  27  28
ATOM     28  C   UNL     1      -5.157  -4.474 131.748  0.00  0.00    +0.000 C 
ATOM     29  O   UNL     1      -5.567  -5.423 131.082  0.00  0.00    +0.000 OA
BRANCH  28  30
ATOM     30  O   UNL     1      -4.075  -3.771 131.379  0.00  0.00    +0.000 OA
ATOM     31  H   UNL     1      -4.026  -3.499 130.446  0.00  0.00    +0.000 HD
ENDBRANCH  28  30
ENDBRANCH  27  28
ENDBRANCH  26  27
ENDBRANCH  24  26
ENDBRANCH   1  24
TORSDOF 7
ENDMDL
MODEL 6
REMARK VINA RESULT:      -7.4      5.913      8.997
REMARK  Name = Ursodeoxycholic acid
REMARK  10 active torsions:
REMARK  status: ('A' for Active; 'I' for Inactive)
REMARK    1  A    between atoms: C_2  and  C_27
REMARK    2  A    between atoms: C_9  and  O_10
REMARK    3  A    between atoms: C_15  and  O_16
REMARK    4  A    between atoms: C_19  and  C_20
REMARK    5  A    between atoms: C_25  and  C_26
REMARK    6  A    between atoms: C_27  and  C_28
REMARK    7  A    between atoms: C_27  and  C_29
REMARK    8  A    between atoms: C_29  and  C_30
REMARK    9  A    between atoms: C_30  and  C_31
REMARK   10  A    between atoms: C_31  and  O_32
REMARK                            x       y       z     vdW  Elec       q    Type
REMARK                         _______ _______ _______ _____ _____    ______ ____
ROOT
ATOM      1  C   UNL     1      -7.615   2.365 131.764  0.00  0.00    +0.000 C 
ATOM      2  C   UNL     1      -6.472   3.177 131.118  0.00  0.00    +0.000 C 
ATOM      3  C   UNL     1      -5.865   2.303 130.028  0.00  0.00    +0.000 C 
ATOM      4  C   UNL     1      -6.833   1.138 129.895  0.00  0.00    +0.000 C 
ATOM      5  C   UNL     1      -6.329  -0.152 129.244  0.00  0.00    +0.000 C 
ATOM      6  C   UNL     1      -5.892   0.049 127.780  0.00  0.00    +0.000 C 
ATOM      7  C   UNL     1      -5.396  -1.263 127.170  0.00  0.00    +0.000 C 
ATOM      8  C   UNL     1      -6.416  -2.408 127.267  0.00  0.00    +0.000 C 
ATOM      9  C   UNL     1      -7.543  -2.185 126.239  0.00  0.00    +0.000 C 
ATOM     10  C   UNL     1      -8.600  -3.280 126.290  0.00  0.00    +0.000 C 
ATOM     11  C   UNL     1      -9.191  -3.388 127.690  0.00  0.00    +0.000 C 
ATOM     12  C   UNL     1      -8.087  -3.674 128.703  0.00  0.00    +0.000 C 
ATOM     13  C   UNL     1      -6.956  -2.607 128.721  0.00  0.00    +0.000 C 
ATOM     14  C   UNL     1      -5.819  -3.180 129.607  0.00  0.00    +0.000 C 
ATOM     15  C   UNL     1      -7.460  -1.230 129.283  0.00  0.00    +0.000 C 
ATOM     16  C   UNL     1      -8.179  -1.353 130.648  0.00  0.00    +0.000 C 
ATOM     17  C   UNL     1      -8.552  -0.006 131.268  0.00  0.00    +0.000 C 
ATOM     18  C   UNL     1      -7.322   0.906 131.347  0.00  0.00    +0.000 C 
ATOM     19  C   UNL     1      -6.259   0.285 132.284  0.00  0.00    +0.000 C 
ENDROOT
BRANCH   6  20
ATOM     20  O   UNL     1      -4.858   1.017 127.656  0.00  0.00    +0.000 OA
ATOM     21  H   UNL     1      -4.917   1.419 126.774  0.00  0.00    +0.000 HD
ENDBRANCH   6  20
BRANCH  10  22
ATOM     22  O   UNL     1      -9.627  -3.000 125.347  0.00  0.00    +0.000 OA
ATOM     23  H   UNL     1      -9.255  -3.092 124.453  0.00  0.00    +0.000 HD
ENDBRANCH  10  22
BRANCH   1  24
ATOM     24  C   UNL     1      -7.821   2.624 133.284  0.00  0.00    +0.000 C 
ATOM     25  C   UNL     1      -6.655   3.355 133.956  0.00  0.00    +0.000 C 
BRANCH  24  26
ATOM     26  C   UNL     1      -9.137   3.370 133.543  0.00  0.00    +0.000 C 
BRANCH  26  27
ATOM     27  C   UNL     1      -9.486   4.338 132.416  0.00  0.00    +0.000 C 
BRANCH  27  28
ATOM     28  C   UNL     1      -9.427   5.804 132.732  0.00  0.00    +0.000 C 
ATOM     29  O   UNL     1      -9.744   6.646 131.895  0.00  0.00    +0.000 OA
BRANCH  28  30
ATOM     30  O   UNL     1      -9.021   6.153 133.963  0.00  0.00    +0.000 OA
ATOM     31  H   UNL     1      -9.323   7.018 134.294  0.00  0.00    +0.000 HD
ENDBRANCH  28  30
ENDBRANCH  27  28
ENDBRANCH  26  27
ENDBRANCH  24  26
ENDBRANCH   1  24
TORSDOF 7
ENDMDL
MODEL 7
REMARK VINA RESULT:      -7.4      7.135      8.775
REMARK  Name = Ursodeoxycholic acid
REMARK  10 active torsions:
REMARK  status: ('A' for Active; 'I' for Inactive)
REMARK    1  A    between atoms: C_2  and  C_27
REMARK    2  A    between atoms: C_9  and  O_10
REMARK    3  A    between atoms: C_15  and  O_16
REMARK    4  A    between atoms: C_19  and  C_20
REMARK    5  A    between atoms: C_25  and  C_26
REMARK    6  A    between atoms: C_27  and  C_28
REMARK    7  A    between atoms: C_27  and  C_29
REMARK    8  A    between atoms: C_29  and  C_30
REMARK    9  A    between atoms: C_30  and  C_31
REMARK   10  A    between atoms: C_31  and  O_32
REMARK                            x       y       z     vdW  Elec       q    Type
REMARK                         _______ _______ _______ _____ _____    ______ ____
ROOT
ATOM      1  C   UNL     1      -7.571  -0.907 124.983  0.00  0.00    +0.000 C 
ATOM      2  C   UNL     1      -8.579  -2.076 124.958  0.00  0.00    +0.000 C 
ATOM      3  C   UNL     1      -8.554  -2.716 126.339  0.00  0.00    +0.000 C 
ATOM      4  C   UNL     1      -7.747  -1.748 127.191  0.00  0.00    +0.000 C 
ATOM      5  C   UNL     1      -7.126  -2.269 128.488  0.00  0.00    +0.000 C 
ATOM      6  C   UNL     1      -8.179  -2.758 129.500  0.00  0.00    +0.000 C 
ATOM      7  C   UNL     1      -7.515  -3.269 130.781  0.00  0.00    +0.000 C 
ATOM      8  C   UNL     1      -6.584  -2.240 131.440  0.00  0.00    +0.000 C 
ATOM      9  C   UNL     1      -7.424  -1.151 132.135  0.00  0.00    +0.000 C 
ATOM     10  C   UNL     1      -6.561  -0.088 132.800  0.00  0.00    +0.000 C 
ATOM     11  C   UNL     1      -5.624   0.553 131.785  0.00  0.00    +0.000 C 
ATOM     12  C   UNL     1      -4.743  -0.513 131.140  0.00  0.00    +0.000 C 
ATOM     13  C   UNL     1      -5.540  -1.648 130.436  0.00  0.00    +0.000 C 
ATOM     14  C   UNL     1      -4.512  -2.750 130.069  0.00  0.00    +0.000 C 
ATOM     15  C   UNL     1      -6.285  -1.132 129.154  0.00  0.00    +0.000 C 
ATOM     16  C   UNL     1      -5.361  -0.364 128.178  0.00  0.00    +0.000 C 
ATOM     17  C   UNL     1      -6.043   0.024 126.866  0.00  0.00    +0.000 C 
ATOM     18  C   UNL     1      -6.678  -1.208 126.208  0.00  0.00    +0.000 C 
ATOM     19  C   UNL     1      -5.582  -2.233 125.833  0.00  0.00    +0.000 C 
ENDROOT
BRANCH   6  20
ATOM     20  O   UNL     1      -8.989  -3.800 128.973  0.00  0.00    +0.000 OA
ATOM     21  H   UNL     1      -9.665  -4.029 129.631  0.00  0.00    +0.000 HD
ENDBRANCH   6  20
BRANCH  10  22
ATOM     22  O   UNL     1      -7.392   0.904 133.391  0.00  0.00    +0.000 OA
ATOM     23  H   UNL     1      -8.319   0.636 133.274  0.00  0.00    +0.000 HD
ENDBRANCH  10  22
BRANCH   1  24
ATOM     24  C   UNL     1      -6.837  -0.649 123.636  0.00  0.00    +0.000 C 
ATOM     25  C   UNL     1      -7.068  -1.736 122.582  0.00  0.00    +0.000 C 
BRANCH  24  26
ATOM     26  C   UNL     1      -7.199   0.730 123.066  0.00  0.00    +0.000 C 
BRANCH  26  27
ATOM     27  C   UNL     1      -7.174   1.822 124.132  0.00  0.00    +0.000 C 
BRANCH  27  28
ATOM     28  C   UNL     1      -8.360   2.738 124.198  0.00  0.00    +0.000 C 
ATOM     29  O   UNL     1      -9.352   2.445 124.863  0.00  0.00    +0.000 OA
BRANCH  28  30
ATOM     30  O   UNL     1      -8.291   3.888 123.509  0.00  0.00    +0.000 OA
ATOM     31  H   UNL     1      -7.662   4.556 123.833  0.00  0.00    +0.000 HD
ENDBRANCH  28  30
ENDBRANCH  27  28
ENDBRANCH  26  27
ENDBRANCH  24  26
ENDBRANCH   1  24
TORSDOF 7
ENDMDL
MODEL 8
REMARK VINA RESULT:      -7.1      4.239      7.157
REMARK  Name = Ursodeoxycholic acid
REMARK  10 active torsions:
REMARK  status: ('A' for Active; 'I' for Inactive)
REMARK    1  A    between atoms: C_2  and  C_27
REMARK    2  A    between atoms: C_9  and  O_10
REMARK    3  A    between atoms: C_15  and  O_16
REMARK    4  A    between atoms: C_19  and  C_20
REMARK    5  A    between atoms: C_25  and  C_26
REMARK    6  A    between atoms: C_27  and  C_28
REMARK    7  A    between atoms: C_27  and  C_29
REMARK    8  A    between atoms: C_29  and  C_30
REMARK    9  A    between atoms: C_30  and  C_31
REMARK   10  A    between atoms: C_31  and  O_32
REMARK                            x       y       z     vdW  Elec       q    Type
REMARK                         _______ _______ _______ _____ _____    ______ ____
ROOT
ATOM      1  C   UNL     1      -5.993   6.842 136.952  0.00  0.00    +0.000 C 
ATOM      2  C   UNL     1      -4.745   7.486 137.592  0.00  0.00    +0.000 C 
ATOM      3  C   UNL     1      -3.610   7.355 136.586  0.00  0.00    +0.000 C 
ATOM      4  C   UNL     1      -4.289   6.890 135.307  0.00  0.00    +0.000 C 
ATOM      5  C   UNL     1      -3.432   6.216 134.235  0.00  0.00    +0.000 C 
ATOM      6  C   UNL     1      -2.336   7.143 133.676  0.00  0.00    +0.000 C 
ATOM      7  C   UNL     1      -1.503   6.430 132.609  0.00  0.00    +0.000 C 
ATOM      8  C   UNL     1      -2.345   5.853 131.461  0.00  0.00    +0.000 C 
ATOM      9  C   UNL     1      -2.817   6.995 130.540  0.00  0.00    +0.000 C 
ATOM     10  C   UNL     1      -3.671   6.492 129.383  0.00  0.00    +0.000 C 
ATOM     11  C   UNL     1      -4.875   5.718 129.905  0.00  0.00    +0.000 C 
ATOM     12  C   UNL     1      -4.411   4.546 130.764  0.00  0.00    +0.000 C 
ATOM     13  C   UNL     1      -3.525   4.963 131.973  0.00  0.00    +0.000 C 
ATOM     14  C   UNL     1      -2.948   3.654 132.572  0.00  0.00    +0.000 C 
ATOM     15  C   UNL     1      -4.345   5.756 133.053  0.00  0.00    +0.000 C 
ATOM     16  C   UNL     1      -5.641   5.031 133.491  0.00  0.00    +0.000 C 
ATOM     17  C   UNL     1      -6.374   5.726 134.637  0.00  0.00    +0.000 C 
ATOM     18  C   UNL     1      -5.422   5.963 135.816  0.00  0.00    +0.000 C 
ATOM     19  C   UNL     1      -4.930   4.610 136.382  0.00  0.00    +0.000 C 
ENDROOT
BRANCH   6  20
ATOM     20  O   UNL     1      -1.454   7.607 134.691  0.00  0.00    +0.000 OA
ATOM     21  H   UNL     1      -0.574   7.231 134.530  0.00  0.00    +0.000 HD
ENDBRANCH   6  20
BRANCH  10  22
ATOM     22  O   UNL     1      -4.104   7.593 128.593  0.00  0.00    +0.000 OA
ATOM     23  H   UNL     1      -3.537   7.645 127.804  0.00  0.00    +0.000 HD
ENDBRANCH  10  22
BRANCH   1  24
ATOM     24  C   UNL     1      -6.953   6.141 137.955  0.00  0.00    +0.000 C 
ATOM     25  C   UNL     1      -6.482   6.197 139.412  0.00  0.00    +0.000 C 
BRANCH  24  26
ATOM     26  C   UNL     1      -8.379   6.697 137.835  0.00  0.00    +0.000 C 
BRANCH  26  27
ATOM     27  C   UNL     1      -8.399   8.218 137.717  0.00  0.00    +0.000 C 
BRANCH  27  28
ATOM     28  C   UNL     1      -9.730   8.866 137.470  0.00  0.00    +0.000 C 
ATOM     29  O   UNL     1     -10.287   9.524 138.348  0.00  0.00    +0.000 OA
BRANCH  28  30
ATOM     30  O   UNL     1     -10.281   8.702 136.258  0.00  0.00    +0.000 OA
ATOM     31  H   UNL     1      -9.799   8.135 135.631  0.00  0.00    +0.000 HD
ENDBRANCH  28  30
ENDBRANCH  27  28
ENDBRANCH  26  27
ENDBRANCH  24  26
ENDBRANCH   1  24
TORSDOF 7
ENDMDL
MODEL 9
REMARK VINA RESULT:      -7.1      7.010      8.452
REMARK  Name = Ursodeoxycholic acid
REMARK  10 active torsions:
REMARK  status: ('A' for Active; 'I' for Inactive)
REMARK    1  A    between atoms: C_2  and  C_27
REMARK    2  A    between atoms: C_9  and  O_10
REMARK    3  A    between atoms: C_15  and  O_16
REMARK    4  A    between atoms: C_19  and  C_20
REMARK    5  A    between atoms: C_25  and  C_26
REMARK    6  A    between atoms: C_27  and  C_28
REMARK    7  A    between atoms: C_27  and  C_29
REMARK    8  A    between atoms: C_29  and  C_30
REMARK    9  A    between atoms: C_30  and  C_31
REMARK   10  A    between atoms: C_31  and  O_32
REMARK                            x       y       z     vdW  Elec       q    Type
REMARK                         _______ _______ _______ _____ _____    ______ ____
ROOT
ATOM      1  C   UNL     1      -7.609   0.956 125.402  0.00  0.00    +0.000 C 
ATOM      2  C   UNL     1      -8.592   1.865 126.170  0.00  0.00    +0.000 C 
ATOM      3  C   UNL     1      -8.630   1.366 127.608  0.00  0.00    +0.000 C 
ATOM      4  C   UNL     1      -7.483   0.371 127.694  0.00  0.00    +0.000 C 
ATOM      5  C   UNL     1      -7.500  -0.658 128.825  0.00  0.00    +0.000 C 
ATOM      6  C   UNL     1      -7.446  -0.012 130.222  0.00  0.00    +0.000 C 
ATOM      7  C   UNL     1      -7.466  -1.075 131.321  0.00  0.00    +0.000 C 
ATOM      8  C   UNL     1      -6.352  -2.124 131.179  0.00  0.00    +0.000 C 
ATOM      9  C   UNL     1      -5.003  -1.505 131.597  0.00  0.00    +0.000 C 
ATOM     10  C   UNL     1      -3.848  -2.490 131.467  0.00  0.00    +0.000 C 
ATOM     11  C   UNL     1      -3.755  -3.019 130.041  0.00  0.00    +0.000 C 
ATOM     12  C   UNL     1      -5.065  -3.690 129.645  0.00  0.00    +0.000 C 
ATOM     13  C   UNL     1      -6.307  -2.759 129.750  0.00  0.00    +0.000 C 
ATOM     14  C   UNL     1      -7.555  -3.661 129.561  0.00  0.00    +0.000 C 
ATOM     15  C   UNL     1      -6.276  -1.618 128.673  0.00  0.00    +0.000 C 
ATOM     16  C   UNL     1      -6.050  -2.142 127.234  0.00  0.00    +0.000 C 
ATOM     17  C   UNL     1      -6.154  -1.056 126.163  0.00  0.00    +0.000 C 
ATOM     18  C   UNL     1      -7.480  -0.298 126.296  0.00  0.00    +0.000 C 
ATOM     19  C   UNL     1      -8.667  -1.257 126.048  0.00  0.00    +0.000 C 
ENDROOT
BRANCH   6  20
ATOM     20  O   UNL     1      -8.533   0.878 130.445  0.00  0.00    +0.000 OA
ATOM     21  H   UNL     1      -9.353   0.439 130.169  0.00  0.00    +0.000 HD
ENDBRANCH   6  20
BRANCH  10  22
ATOM     22  O   UNL     1      -2.631  -1.852 131.831  0.00  0.00    +0.000 OA
ATOM     23  H   UNL     1      -2.671  -0.924 131.540  0.00  0.00    +0.000 HD
ENDBRANCH  10  22
BRANCH   1  24
ATOM     24  C   UNL     1      -7.977   0.710 123.911  0.00  0.00    +0.000 C 
ATOM     25  C   UNL     1      -9.356   1.244 123.512  0.00  0.00    +0.000 C 
BRANCH  24  26
ATOM     26  C   UNL     1      -6.898   1.273 122.975  0.00  0.00    +0.000 C 
BRANCH  26  27
ATOM     27  C   UNL     1      -6.844   2.797 123.005  0.00  0.00    +0.000 C 
BRANCH  27  28
ATOM     28  C   UNL     1      -7.041   3.513 121.701  0.00  0.00    +0.000 C 
ATOM     29  O   UNL     1      -6.083   3.812 120.991  0.00  0.00    +0.000 OA
BRANCH  28  30
ATOM     30  O   UNL     1      -8.301   3.806 121.343  0.00  0.00    +0.000 OA
ATOM     31  H   UNL     1      -8.535   4.750 121.296  0.00  0.00    +0.000 HD
ENDBRANCH  28  30
ENDBRANCH  27  28
ENDBRANCH  26  27
ENDBRANCH  24  26
ENDBRANCH   1  24
TORSDOF 7
ENDMDL
