MODEL 1
REMARK VINA RESULT:      -6.4      0.000      0.000
REMARK  Name = Valaciclovir
REMARK  11 active torsions:
REMARK  status: ('A' for Active; 'I' for Inactive)
REMARK    1  A    between atoms: C_1  and  C_2
REMARK    2  A    between atoms: C_2  and  C_3
REMARK    3  A    between atoms: C_2  and  C_4
REMARK    4  A    between atoms: C_4  and  N_5
REMARK    5  A    between atoms: C_4  and  C_6
REMARK    6  A    between atoms: C_6  and  O_8
REMARK    7  A    between atoms: O_8  and  C_9
REMARK    8  A    between atoms: C_9  and  C_10
REMARK    9  A    between atoms: C_10  and  O_11
REMARK   10  A    between atoms: O_11  and  C_12
REMARK   11  A    between atoms: C_12  and  N_13
REMARK                            x       y       z     vdW  Elec       q    Type
REMARK                         _______ _______ _______ _____ _____    ______ ____
ROOT
ATOM      1  C   UNL     1      -9.447   4.746 130.541  0.00  0.00    +0.000 C 
ENDROOT
BRANCH   1   2
ATOM      2  N   UNL     1     -10.392   5.835 130.659  0.00  0.00    +0.000 N 
ATOM      3  C   UNL     1     -11.001   6.237 131.824  0.00  0.00    +0.000 A 
ATOM      4  N   UNL     1     -11.772   7.293 131.644  0.00  0.00    +0.000 NA
ATOM      5  C   UNL     1     -11.658   7.589 130.302  0.00  0.00    +0.000 A 
ATOM      6  C   UNL     1     -10.798   6.708 129.700  0.00  0.00    +0.000 A 
ATOM      7  N   UNL     1     -10.491   6.780 128.396  0.00  0.00    +0.000 N 
ATOM      8  C   UNL     1     -11.107   7.773 127.673  0.00  0.00    +0.000 A 
ATOM      9  N   UNL     1     -10.767   7.796 126.366  0.00  0.00    +0.000 N 
ATOM     10  N   UNL     1     -11.939   8.658 128.144  0.00  0.00    +0.000 NA
ATOM     11  C   UNL     1     -12.284   8.646 129.499  0.00  0.00    +0.000 A 
ATOM     12  O   UNL     1     -13.060   9.468 129.988  0.00  0.00    +0.000 OA
ATOM     13  H   UNL     1      -9.919   6.097 127.918  0.00  0.00    +0.000 HD
ATOM     14  H   UNL     1     -10.163   7.127 125.919  0.00  0.00    +0.000 HD
ATOM     15  H   UNL     1     -11.206   8.500 125.784  0.00  0.00    +0.000 HD
ENDBRANCH   1   2
BRANCH   1  16
ATOM     16  O   UNL     1      -9.389   4.329 129.175  0.00  0.00    +0.000 OA
BRANCH  16  17
ATOM     17  C   UNL     1      -8.617   3.134 129.035  0.00  0.00    +0.000 C 
BRANCH  17  18
ATOM     18  C   UNL     1      -7.588   3.290 127.912  0.00  0.00    +0.000 C 
BRANCH  18  19
ATOM     19  O   UNL     1      -7.558   4.659 127.460  0.00  0.00    +0.000 OA
BRANCH  19  20
ATOM     20  C   UNL     1      -8.033   4.842 126.191  0.00  0.00    +0.000 C 
ATOM     21  O   UNL     1      -8.907   5.650 125.892  0.00  0.00    +0.000 OA
BRANCH  20  22
ATOM     22  C   UNL     1      -7.336   3.909 125.162  0.00  0.00    +0.000 C 
BRANCH  22  24
ATOM     23  C   UNL     1      -5.712   4.229 123.232  0.00  0.00    +0.000 C 
ATOM     24  C   UNL     1      -5.974   4.498 124.720  0.00  0.00    +0.000 C 
ATOM     25  C   UNL     1      -4.790   3.977 125.542  0.00  0.00    +0.000 C 
ENDBRANCH  22  24
BRANCH  22  26
ATOM     26  N   UNL     1      -8.225   3.700 123.986  0.00  0.00    +0.000 NA
ATOM     27  H   UNL     1      -8.012   4.428 123.297  0.00  0.00    +0.000 HD
ATOM     28  H   UNL     1      -9.185   3.923 124.255  0.00  0.00    +0.000 HD
ENDBRANCH  22  26
ENDBRANCH  20  22
ENDBRANCH  19  20
ENDBRANCH  18  19
ENDBRANCH  17  18
ENDBRANCH  16  17
ENDBRANCH   1  16
TORSDOF 9
ENDMDL
MODEL 2
REMARK VINA RESULT:      -6.4      2.736      7.395
REMARK  Name = Valaciclovir
REMARK  11 active torsions:
REMARK  status: ('A' for Active; 'I' for Inactive)
REMARK    1  A    between atoms: C_1  and  C_2
REMARK    2  A    between atoms: C_2  and  C_3
REMARK    3  A    between atoms: C_2  and  C_4
REMARK    4  A    between atoms: C_4  and  N_5
REMARK    5  A    between atoms: C_4  and  C_6
REMARK    6  A    between atoms: C_6  and  O_8
REMARK    7  A    between atoms: O_8  and  C_9
REMARK    8  A    between atoms: C_9  and  C_10
REMARK    9  A    between atoms: C_10  and  O_11
REMARK   10  A    between atoms: O_11  and  C_12
REMARK   11  A    between atoms: C_12  and  N_13
REMARK                            x       y       z     vdW  Elec       q    Type
REMARK                         _______ _______ _______ _____ _____    ______ ____
ROOT
ATOM      1  C   UNL     1      -7.592   2.821 126.676  0.00  0.00    +0.000 C 
ENDROOT
BRANCH   1   2
ATOM      2  N   UNL     1      -8.452   1.990 125.863  0.00  0.00    +0.000 N 
ATOM      3  C   UNL     1      -9.205   0.935 126.323  0.00  0.00    +0.000 A 
ATOM      4  N   UNL     1      -9.938   0.393 125.368  0.00  0.00    +0.000 NA
ATOM      5  C   UNL     1      -9.647   1.129 124.239  0.00  0.00    +0.000 A 
ATOM      6  C   UNL     1      -8.750   2.119 124.543  0.00  0.00    +0.000 A 
ATOM      7  N   UNL     1      -8.308   2.996 123.629  0.00  0.00    +0.000 N 
ATOM      8  C   UNL     1      -8.778   2.838 122.348  0.00  0.00    +0.000 A 
ATOM      9  N   UNL     1      -8.298   3.742 121.468  0.00  0.00    +0.000 N 
ATOM     10  N   UNL     1      -9.627   1.932 121.951  0.00  0.00    +0.000 NA
ATOM     11  C   UNL     1     -10.138   1.001 122.861  0.00  0.00    +0.000 A 
ATOM     12  O   UNL     1     -10.947   0.134 122.532  0.00  0.00    +0.000 OA
ATOM     13  H   UNL     1      -7.593   3.685 123.816  0.00  0.00    +0.000 HD
ATOM     14  H   UNL     1      -7.613   4.446 121.686  0.00  0.00    +0.000 HD
ATOM     15  H   UNL     1      -8.601   3.659 120.504  0.00  0.00    +0.000 HD
ENDBRANCH   1   2
BRANCH   1  16
ATOM     16  O   UNL     1      -8.389   3.802 127.342  0.00  0.00    +0.000 OA
BRANCH  16  17
ATOM     17  C   UNL     1      -7.721   4.310 128.498  0.00  0.00    +0.000 C 
BRANCH  17  18
ATOM     18  C   UNL     1      -8.722   4.975 129.447  0.00  0.00    +0.000 C 
BRANCH  18  19
ATOM     19  O   UNL     1      -9.488   5.968 128.735  0.00  0.00    +0.000 OA
BRANCH  19  20
ATOM     20  C   UNL     1     -10.703   6.249 129.296  0.00  0.00    +0.000 C 
ATOM     21  O   UNL     1     -11.457   5.402 129.766  0.00  0.00    +0.000 OA
BRANCH  20  22
ATOM     22  C   UNL     1     -11.023   7.770 129.276  0.00  0.00    +0.000 C 
BRANCH  22  24
ATOM     23  C   UNL     1     -12.925   7.609 127.597  0.00  0.00    +0.000 C 
ATOM     24  C   UNL     1     -12.531   8.011 129.025  0.00  0.00    +0.000 C 
ATOM     25  C   UNL     1     -12.968   9.457 129.280  0.00  0.00    +0.000 C 
ENDBRANCH  22  24
BRANCH  22  26
ATOM     26  N   UNL     1     -10.202   8.445 128.233  0.00  0.00    +0.000 NA
ATOM     27  H   UNL     1     -10.766   8.509 127.381  0.00  0.00    +0.000 HD
ATOM     28  H   UNL     1      -9.445   7.817 127.952  0.00  0.00    +0.000 HD
ENDBRANCH  22  26
ENDBRANCH  20  22
ENDBRANCH  19  20
ENDBRANCH  18  19
ENDBRANCH  17  18
ENDBRANCH  16  17
ENDBRANCH   1  16
TORSDOF 9
ENDMDL
MODEL 3
REMARK VINA RESULT:      -6.0      3.859      4.707
REMARK  Name = Valaciclovir
REMARK  11 active torsions:
REMARK  status: ('A' for Active; 'I' for Inactive)
REMARK    1  A    between atoms: C_1  and  C_2
REMARK    2  A    between atoms: C_2  and  C_3
REMARK    3  A    between atoms: C_2  and  C_4
REMARK    4  A    between atoms: C_4  and  N_5
REMARK    5  A    between atoms: C_4  and  C_6
REMARK    6  A    between atoms: C_6  and  O_8
REMARK    7  A    between atoms: O_8  and  C_9
REMARK    8  A    between atoms: C_9  and  C_10
REMARK    9  A    between atoms: C_10  and  O_11
REMARK   10  A    between atoms: O_11  and  C_12
REMARK   11  A    between atoms: C_12  and  N_13
REMARK                            x       y       z     vdW  Elec       q    Type
REMARK                         _______ _______ _______ _____ _____    ______ ____
ROOT
ATOM      1  C   UNL     1      -7.466   6.394 131.042  0.00  0.00    +0.000 C 
ENDROOT
BRANCH   1   2
ATOM      2  N   UNL     1      -8.872   6.424 131.382  0.00  0.00    +0.000 N 
ATOM      3  C   UNL     1      -9.420   5.935 132.545  0.00  0.00    +0.000 A 
ATOM      4  N   UNL     1     -10.721   6.148 132.610  0.00  0.00    +0.000 NA
ATOM      5  C   UNL     1     -11.030   6.805 131.437  0.00  0.00    +0.000 A 
ATOM      6  C   UNL     1      -9.895   6.991 130.691  0.00  0.00    +0.000 A 
ATOM      7  N   UNL     1      -9.907   7.623 129.508  0.00  0.00    +0.000 N 
ATOM      8  C   UNL     1     -11.130   8.057 129.056  0.00  0.00    +0.000 A 
ATOM      9  N   UNL     1     -11.087   8.680 127.858  0.00  0.00    +0.000 N 
ATOM     10  N   UNL     1     -12.266   7.930 129.681  0.00  0.00    +0.000 NA
ATOM     11  C   UNL     1     -12.316   7.297 130.927  0.00  0.00    +0.000 A 
ATOM     12  O   UNL     1     -13.365   7.162 131.556  0.00  0.00    +0.000 OA
ATOM     13  H   UNL     1      -9.097   7.705 128.910  0.00  0.00    +0.000 HD
ATOM     14  H   UNL     1     -10.259   8.784 127.297  0.00  0.00    +0.000 HD
ATOM     15  H   UNL     1     -11.965   9.006 127.471  0.00  0.00    +0.000 HD
ENDBRANCH   1   2
BRANCH   1  16
ATOM     16  O   UNL     1      -7.303   5.695 129.806  0.00  0.00    +0.000 OA
BRANCH  16  17
ATOM     17  C   UNL     1      -6.417   4.583 129.957  0.00  0.00    +0.000 C 
BRANCH  17  18
ATOM     18  C   UNL     1      -5.249   4.692 128.973  0.00  0.00    +0.000 C 
BRANCH  18  19
ATOM     19  O   UNL     1      -4.773   6.052 128.925  0.00  0.00    +0.000 OA
BRANCH  19  20
ATOM     20  C   UNL     1      -3.579   6.252 129.562  0.00  0.00    +0.000 C 
ATOM     21  O   UNL     1      -2.703   5.400 129.665  0.00  0.00    +0.000 OA
BRANCH  20  22
ATOM     22  C   UNL     1      -3.455   7.689 130.141  0.00  0.00    +0.000 C 
BRANCH  22  24
ATOM     23  C   UNL     1      -1.824   7.393 132.069  0.00  0.00    +0.000 C 
ATOM     24  C   UNL     1      -3.286   7.649 131.680  0.00  0.00    +0.000 C 
ATOM     25  C   UNL     1      -4.180   6.610 132.364  0.00  0.00    +0.000 C 
ENDBRANCH  22  24
BRANCH  22  26
ATOM     26  N   UNL     1      -4.652   8.491 129.764  0.00  0.00    +0.000 NA
ATOM     27  H   UNL     1      -5.325   7.861 129.318  0.00  0.00    +0.000 HD
ATOM     28  H   UNL     1      -4.399   9.122 129.001  0.00  0.00    +0.000 HD
ENDBRANCH  22  26
ENDBRANCH  20  22
ENDBRANCH  19  20
ENDBRANCH  18  19
ENDBRANCH  17  18
ENDBRANCH  16  17
ENDBRANCH   1  16
TORSDOF 9
ENDMDL
MODEL 4
REMARK VINA RESULT:      -5.9      6.558      8.723
REMARK  Name = Valaciclovir
REMARK  11 active torsions:
REMARK  status: ('A' for Active; 'I' for Inactive)
REMARK    1  A    between atoms: C_1  and  C_2
REMARK    2  A    between atoms: C_2  and  C_3
REMARK    3  A    between atoms: C_2  and  C_4
REMARK    4  A    between atoms: C_4  and  N_5
REMARK    5  A    between atoms: C_4  and  C_6
REMARK    6  A    between atoms: C_6  and  O_8
REMARK    7  A    between atoms: O_8  and  C_9
REMARK    8  A    between atoms: C_9  and  C_10
REMARK    9  A    between atoms: C_10  and  O_11
REMARK   10  A    between atoms: O_11  and  C_12
REMARK   11  A    between atoms: C_12  and  N_13
REMARK                            x       y       z     vdW  Elec       q    Type
REMARK                         _______ _______ _______ _____ _____    ______ ____
ROOT
ATOM      1  C   UNL     1      -8.341   2.615 123.375  0.00  0.00    +0.000 C 
ENDROOT
BRANCH   1   2
ATOM      2  N   UNL     1      -8.826   1.258 123.245  0.00  0.00    +0.000 N 
ATOM      3  C   UNL     1     -10.036   0.895 122.699  0.00  0.00    +0.000 A 
ATOM      4  N   UNL     1     -10.190  -0.416 122.659  0.00  0.00    +0.000 NA
ATOM      5  C   UNL     1      -9.029  -0.925 123.202  0.00  0.00    +0.000 A 
ATOM      6  C   UNL     1      -8.185   0.099 123.546  0.00  0.00    +0.000 A 
ATOM      7  N   UNL     1      -6.973  -0.116 124.080  0.00  0.00    +0.000 N 
ATOM      8  C   UNL     1      -6.622  -1.427 124.300  0.00  0.00    +0.000 A 
ATOM      9  N   UNL     1      -5.397  -1.586 124.845  0.00  0.00    +0.000 N 
ATOM     10  N   UNL     1      -7.347  -2.471 124.014  0.00  0.00    +0.000 NA
ATOM     11  C   UNL     1      -8.612  -2.312 123.438  0.00  0.00    +0.000 A 
ATOM     12  O   UNL     1      -9.327  -3.270 123.145  0.00  0.00    +0.000 OA
ATOM     13  H   UNL     1      -6.368   0.623 124.408  0.00  0.00    +0.000 HD
ATOM     14  H   UNL     1      -4.794  -0.833 125.128  0.00  0.00    +0.000 HD
ATOM     15  H   UNL     1      -5.096  -2.534 125.042  0.00  0.00    +0.000 HD
ENDBRANCH   1   2
BRANCH   1  16
ATOM     16  O   UNL     1      -6.923   2.618 123.200  0.00  0.00    +0.000 OA
BRANCH  16  17
ATOM     17  C   UNL     1      -6.382   3.925 123.406  0.00  0.00    +0.000 C 
BRANCH  17  18
ATOM     18  C   UNL     1      -5.261   3.883 124.447  0.00  0.00    +0.000 C 
BRANCH  18  19
ATOM     19  O   UNL     1      -5.776   3.398 125.704  0.00  0.00    +0.000 OA
BRANCH  19  20
ATOM     20  C   UNL     1      -4.982   2.466 126.314  0.00  0.00    +0.000 C 
ATOM     21  O   UNL     1      -4.907   1.292 125.967  0.00  0.00    +0.000 OA
BRANCH  20  22
ATOM     22  C   UNL     1      -4.179   3.065 127.502  0.00  0.00    +0.000 C 
BRANCH  22  24
ATOM     23  C   UNL     1      -1.785   3.000 126.648  0.00  0.00    +0.000 C 
ATOM     24  C   UNL     1      -2.980   3.900 126.990  0.00  0.00    +0.000 C 
ATOM     25  C   UNL     1      -2.528   4.985 127.974  0.00  0.00    +0.000 C 
ENDBRANCH  22  24
BRANCH  22  26
ATOM     26  N   UNL     1      -3.713   1.972 128.400  0.00  0.00    +0.000 NA
ATOM     27  H   UNL     1      -3.499   1.157 127.818  0.00  0.00    +0.000 HD
ATOM     28  H   UNL     1      -4.504   1.645 128.959  0.00  0.00    +0.000 HD
ENDBRANCH  22  26
ENDBRANCH  20  22
ENDBRANCH  19  20
ENDBRANCH  18  19
ENDBRANCH  17  18
ENDBRANCH  16  17
ENDBRANCH   1  16
TORSDOF 9
ENDMDL
MODEL 5
REMARK VINA RESULT:      -5.9      3.456      4.665
REMARK  Name = Valaciclovir
REMARK  11 active torsions:
REMARK  status: ('A' for Active; 'I' for Inactive)
REMARK    1  A    between atoms: C_1  and  C_2
REMARK    2  A    between atoms: C_2  and  C_3
REMARK    3  A    between atoms: C_2  and  C_4
REMARK    4  A    between atoms: C_4  and  N_5
REMARK    5  A    between atoms: C_4  and  C_6
REMARK    6  A    between atoms: C_6  and  O_8
REMARK    7  A    between atoms: O_8  and  C_9
REMARK    8  A    between atoms: C_9  and  C_10
REMARK    9  A    between atoms: C_10  and  O_11
REMARK   10  A    between atoms: O_11  and  C_12
REMARK   11  A    between atoms: C_12  and  N_13
REMARK                            x       y       z     vdW  Elec       q    Type
REMARK                         _______ _______ _______ _____ _____    ______ ____
ROOT
ATOM      1  C   UNL     1      -9.880   5.279 131.542  0.00  0.00    +0.000 C 
ENDROOT
BRANCH   1   2
ATOM      2  N   UNL     1      -9.892   5.818 130.200  0.00  0.00    +0.000 N 
ATOM      3  C   UNL     1      -9.161   5.333 129.140  0.00  0.00    +0.000 A 
ATOM      4  N   UNL     1      -9.413   5.987 128.022  0.00  0.00    +0.000 NA
ATOM      5  C   UNL     1     -10.348   6.938 128.371  0.00  0.00    +0.000 A 
ATOM      6  C   UNL     1     -10.656   6.825 129.702  0.00  0.00    +0.000 A 
ATOM      7  N   UNL     1     -11.556   7.619 130.302  0.00  0.00    +0.000 N 
ATOM      8  C   UNL     1     -12.143   8.584 129.519  0.00  0.00    +0.000 A 
ATOM      9  N   UNL     1     -13.035   9.359 130.174  0.00  0.00    +0.000 N 
ATOM     10  N   UNL     1     -11.921   8.779 128.250  0.00  0.00    +0.000 NA
ATOM     11  C   UNL     1     -11.007   7.972 127.564  0.00  0.00    +0.000 A 
ATOM     12  O   UNL     1     -10.773   8.116 126.365  0.00  0.00    +0.000 OA
ATOM     13  H   UNL     1     -11.743   7.601 131.294  0.00  0.00    +0.000 HD
ATOM     14  H   UNL     1     -13.233   9.297 131.158  0.00  0.00    +0.000 HD
ATOM     15  H   UNL     1     -13.485  10.098 129.645  0.00  0.00    +0.000 HD
ENDBRANCH   1   2
BRANCH   1  16
ATOM     16  O   UNL     1      -9.550   6.324 132.459  0.00  0.00    +0.000 OA
BRANCH  16  17
ATOM     17  C   UNL     1      -8.546   5.900 133.383  0.00  0.00    +0.000 C 
BRANCH  17  18
ATOM     18  C   UNL     1      -7.384   5.233 132.644  0.00  0.00    +0.000 C 
BRANCH  18  19
ATOM     19  O   UNL     1      -6.309   6.177 132.465  0.00  0.00    +0.000 OA
BRANCH  19  20
ATOM     20  C   UNL     1      -6.132   6.590 131.173  0.00  0.00    +0.000 C 
ATOM     21  O   UNL     1      -6.802   7.462 130.630  0.00  0.00    +0.000 OA
BRANCH  20  22
ATOM     22  C   UNL     1      -4.978   5.826 130.465  0.00  0.00    +0.000 C 
BRANCH  22  24
ATOM     23  C   UNL     1      -2.573   6.646 130.563  0.00  0.00    +0.000 C 
ATOM     24  C   UNL     1      -3.680   5.888 131.307  0.00  0.00    +0.000 C 
ATOM     25  C   UNL     1      -3.156   4.508 131.720  0.00  0.00    +0.000 C 
ENDBRANCH  22  24
BRANCH  22  26
ATOM     26  N   UNL     1      -4.751   6.398 129.108  0.00  0.00    +0.000 NA
ATOM     27  H   UNL     1      -4.149   5.751 128.591  0.00  0.00    +0.000 HD
ATOM     28  H   UNL     1      -4.163   7.229 129.195  0.00  0.00    +0.000 HD
ENDBRANCH  22  26
ENDBRANCH  20  22
ENDBRANCH  19  20
ENDBRANCH  18  19
ENDBRANCH  17  18
ENDBRANCH  16  17
ENDBRANCH   1  16
TORSDOF 9
ENDMDL
MODEL 6
REMARK VINA RESULT:      -5.9      1.820      2.039
REMARK  Name = Valaciclovir
REMARK  11 active torsions:
REMARK  status: ('A' for Active; 'I' for Inactive)
REMARK    1  A    between atoms: C_1  and  C_2
REMARK    2  A    between atoms: C_2  and  C_3
REMARK    3  A    between atoms: C_2  and  C_4
REMARK    4  A    between atoms: C_4  and  N_5
REMARK    5  A    between atoms: C_4  and  C_6
REMARK    6  A    between atoms: C_6  and  O_8
REMARK    7  A    between atoms: O_8  and  C_9
REMARK    8  A    between atoms: C_9  and  C_10
REMARK    9  A    between atoms: C_10  and  O_11
REMARK   10  A    between atoms: O_11  and  C_12
REMARK   11  A    between atoms: C_12  and  N_13
REMARK                            x       y       z     vdW  Elec       q    Type
REMARK                         _______ _______ _______ _____ _____    ______ ____
ROOT
ATOM      1  C   UNL     1      -7.565   6.131 131.006  0.00  0.00    +0.000 C 
ENDROOT
BRANCH   1   2
ATOM      2  N   UNL     1      -8.967   6.230 131.346  0.00  0.00    +0.000 N 
ATOM      3  C   UNL     1      -9.544   5.738 132.494  0.00  0.00    +0.000 A 
ATOM      4  N   UNL     1     -10.831   6.023 132.565  0.00  0.00    +0.000 NA
ATOM      5  C   UNL     1     -11.101   6.731 131.413  0.00  0.00    +0.000 A 
ATOM      6  C   UNL     1      -9.956   6.875 130.673  0.00  0.00    +0.000 A 
ATOM      7  N   UNL     1      -9.931   7.542 129.510  0.00  0.00    +0.000 N 
ATOM      8  C   UNL     1     -11.126   8.057 129.070  0.00  0.00    +0.000 A 
ATOM      9  N   UNL     1     -11.045   8.713 127.892  0.00  0.00    +0.000 N 
ATOM     10  N   UNL     1     -12.269   7.976 129.691  0.00  0.00    +0.000 NA
ATOM     11  C   UNL     1     -12.356   7.309 130.918  0.00  0.00    +0.000 A 
ATOM     12  O   UNL     1     -13.412   7.215 131.542  0.00  0.00    +0.000 OA
ATOM     13  H   UNL     1      -9.116   7.596 128.914  0.00  0.00    +0.000 HD
ATOM     14  H   UNL     1     -10.212   8.787 127.335  0.00  0.00    +0.000 HD
ATOM     15  H   UNL     1     -11.903   9.099 127.515  0.00  0.00    +0.000 HD
ENDBRANCH   1   2
BRANCH   1  16
ATOM     16  O   UNL     1      -7.447   5.769 129.629  0.00  0.00    +0.000 OA
BRANCH  16  17
ATOM     17  C   UNL     1      -7.386   4.349 129.473  0.00  0.00    +0.000 C 
BRANCH  17  18
ATOM     18  C   UNL     1      -6.048   3.934 128.857  0.00  0.00    +0.000 C 
BRANCH  18  19
ATOM     19  O   UNL     1      -6.272   3.284 127.590  0.00  0.00    +0.000 OA
BRANCH  19  20
ATOM     20  C   UNL     1      -6.531   4.142 126.556  0.00  0.00    +0.000 C 
ATOM     21  O   UNL     1      -5.890   5.164 126.332  0.00  0.00    +0.000 OA
BRANCH  20  22
ATOM     22  C   UNL     1      -7.734   3.673 125.691  0.00  0.00    +0.000 C 
BRANCH  22  24
ATOM     23  C   UNL     1      -8.366   3.035 123.313  0.00  0.00    +0.000 C 
ATOM     24  C   UNL     1      -7.245   3.051 124.361  0.00  0.00    +0.000 C 
ATOM     25  C   UNL     1      -6.684   1.634 124.521  0.00  0.00    +0.000 C 
ENDBRANCH  22  24
BRANCH  22  26
ATOM     26  N   UNL     1      -8.646   4.821 125.430  0.00  0.00    +0.000 NA
ATOM     27  H   UNL     1      -8.379   5.584 126.058  0.00  0.00    +0.000 HD
ATOM     28  H   UNL     1      -9.583   4.579 125.760  0.00  0.00    +0.000 HD
ENDBRANCH  22  26
ENDBRANCH  20  22
ENDBRANCH  19  20
ENDBRANCH  18  19
ENDBRANCH  17  18
ENDBRANCH  16  17
ENDBRANCH   1  16
TORSDOF 9
ENDMDL
MODEL 7
REMARK VINA RESULT:      -5.9      2.349      6.742
REMARK  Name = Valaciclovir
REMARK  11 active torsions:
REMARK  status: ('A' for Active; 'I' for Inactive)
REMARK    1  A    between atoms: C_1  and  C_2
REMARK    2  A    between atoms: C_2  and  C_3
REMARK    3  A    between atoms: C_2  and  C_4
REMARK    4  A    between atoms: C_4  and  N_5
REMARK    5  A    between atoms: C_4  and  C_6
REMARK    6  A    between atoms: C_6  and  O_8
REMARK    7  A    between atoms: O_8  and  C_9
REMARK    8  A    between atoms: C_9  and  C_10
REMARK    9  A    between atoms: C_10  and  O_11
REMARK   10  A    between atoms: O_11  and  C_12
REMARK   11  A    between atoms: C_12  and  N_13
REMARK                            x       y       z     vdW  Elec       q    Type
REMARK                         _______ _______ _______ _____ _____    ______ ____
ROOT
ATOM      1  C   UNL     1      -8.477   2.133 129.266  0.00  0.00    +0.000 C 
ENDROOT
BRANCH   1   2
ATOM      2  N   UNL     1      -8.133   1.649 127.946  0.00  0.00    +0.000 N 
ATOM      3  C   UNL     1      -8.036   0.326 127.584  0.00  0.00    +0.000 A 
ATOM      4  N   UNL     1      -7.762   0.180 126.301  0.00  0.00    +0.000 NA
ATOM      5  C   UNL     1      -7.678   1.465 125.809  0.00  0.00    +0.000 A 
ATOM      6  C   UNL     1      -7.923   2.367 126.812  0.00  0.00    +0.000 A 
ATOM      7  N   UNL     1      -7.923   3.692 126.604  0.00  0.00    +0.000 N 
ATOM      8  C   UNL     1      -7.633   4.114 125.328  0.00  0.00    +0.000 A 
ATOM      9  N   UNL     1      -7.641   5.456 125.175  0.00  0.00    +0.000 N 
ATOM     10  N   UNL     1      -7.384   3.345 124.307  0.00  0.00    +0.000 NA
ATOM     11  C   UNL     1      -7.388   1.954 124.456  0.00  0.00    +0.000 A 
ATOM     12  O   UNL     1      -7.165   1.190 123.517  0.00  0.00    +0.000 OA
ATOM     13  H   UNL     1      -8.027   4.374 127.342  0.00  0.00    +0.000 HD
ATOM     14  H   UNL     1      -7.786   6.116 125.920  0.00  0.00    +0.000 HD
ATOM     15  H   UNL     1      -7.417   5.820 124.256  0.00  0.00    +0.000 HD
ENDBRANCH   1   2
BRANCH   1  16
ATOM     16  O   UNL     1      -9.301   3.292 129.134  0.00  0.00    +0.000 OA
BRANCH  16  17
ATOM     17  C   UNL     1      -8.859   4.339 130.002  0.00  0.00    +0.000 C 
BRANCH  17  18
ATOM     18  C   UNL     1      -9.380   5.693 129.516  0.00  0.00    +0.000 C 
BRANCH  18  19
ATOM     19  O   UNL     1      -9.245   5.786 128.083  0.00  0.00    +0.000 OA
BRANCH  19  20
ATOM     20  C   UNL     1     -10.185   6.576 127.480  0.00  0.00    +0.000 C 
ATOM     21  O   UNL     1     -10.388   6.603 126.270  0.00  0.00    +0.000 OA
BRANCH  20  22
ATOM     22  C   UNL     1     -10.973   7.439 128.504  0.00  0.00    +0.000 C 
BRANCH  22  24
ATOM     23  C   UNL     1     -13.375   7.655 127.701  0.00  0.00    +0.000 C 
ATOM     24  C   UNL     1     -12.425   6.922 128.657  0.00  0.00    +0.000 C 
ATOM     25  C   UNL     1     -12.964   7.033 130.087  0.00  0.00    +0.000 C 
ENDBRANCH  22  24
BRANCH  22  26
ATOM     26  N   UNL     1     -10.964   8.865 128.076  0.00  0.00    +0.000 NA
ATOM     27  H   UNL     1     -10.047   9.257 128.306  0.00  0.00    +0.000 HD
ATOM     28  H   UNL     1     -11.591   9.396 128.685  0.00  0.00    +0.000 HD
ENDBRANCH  22  26
ENDBRANCH  20  22
ENDBRANCH  19  20
ENDBRANCH  18  19
ENDBRANCH  17  18
ENDBRANCH  16  17
ENDBRANCH   1  16
TORSDOF 9
ENDMDL
MODEL 8
REMARK VINA RESULT:      -5.8      2.178      7.540
REMARK  Name = Valaciclovir
REMARK  11 active torsions:
REMARK  status: ('A' for Active; 'I' for Inactive)
REMARK    1  A    between atoms: C_1  and  C_2
REMARK    2  A    between atoms: C_2  and  C_3
REMARK    3  A    between atoms: C_2  and  C_4
REMARK    4  A    between atoms: C_4  and  N_5
REMARK    5  A    between atoms: C_4  and  C_6
REMARK    6  A    between atoms: C_6  and  O_8
REMARK    7  A    between atoms: O_8  and  C_9
REMARK    8  A    between atoms: C_9  and  C_10
REMARK    9  A    between atoms: C_10  and  O_11
REMARK   10  A    between atoms: O_11  and  C_12
REMARK   11  A    between atoms: C_12  and  N_13
REMARK                            x       y       z     vdW  Elec       q    Type
REMARK                         _______ _______ _______ _____ _____    ______ ____
ROOT
ATOM      1  C   UNL     1      -6.842   3.808 127.216  0.00  0.00    +0.000 C 
ENDROOT
BRANCH   1   2
ATOM      2  N   UNL     1      -6.718   3.886 125.777  0.00  0.00    +0.000 N 
ATOM      3  C   UNL     1      -5.674   4.474 125.100  0.00  0.00    +0.000 A 
ATOM      4  N   UNL     1      -5.797   4.347 123.792  0.00  0.00    +0.000 NA
ATOM      5  C   UNL     1      -6.972   3.647 123.613  0.00  0.00    +0.000 A 
ATOM      6  C   UNL     1      -7.529   3.349 124.829  0.00  0.00    +0.000 A 
ATOM      7  N   UNL     1      -8.670   2.654 124.946  0.00  0.00    +0.000 N 
ATOM      8  C   UNL     1      -9.282   2.275 123.775  0.00  0.00    +0.000 A 
ATOM      9  N   UNL     1     -10.430   1.584 123.951  0.00  0.00    +0.000 N 
ATOM     10  N   UNL     1      -8.842   2.509 122.572  0.00  0.00    +0.000 NA
ATOM     11  C   UNL     1      -7.647   3.212 122.384  0.00  0.00    +0.000 A 
ATOM     12  O   UNL     1      -7.191   3.448 121.267  0.00  0.00    +0.000 OA
ATOM     13  H   UNL     1      -9.135   2.487 125.828  0.00  0.00    +0.000 HD
ATOM     14  H   UNL     1     -10.854   1.397 124.843  0.00  0.00    +0.000 HD
ATOM     15  H   UNL     1     -10.930   1.295 123.118  0.00  0.00    +0.000 HD
ENDBRANCH   1   2
BRANCH   1  16
ATOM     16  O   UNL     1      -8.229   3.818 127.562  0.00  0.00    +0.000 OA
BRANCH  16  17
ATOM     17  C   UNL     1      -8.411   3.592 128.962  0.00  0.00    +0.000 C 
BRANCH  17  18
ATOM     18  C   UNL     1      -8.777   4.898 129.672  0.00  0.00    +0.000 C 
BRANCH  18  19
ATOM     19  O   UNL     1     -10.203   5.104 129.616  0.00  0.00    +0.000 OA
BRANCH  19  20
ATOM     20  C   UNL     1     -10.605   6.356 129.991  0.00  0.00    +0.000 C 
ATOM     21  O   UNL     1      -9.839   7.252 130.330  0.00  0.00    +0.000 OA
BRANCH  20  22
ATOM     22  C   UNL     1     -12.150   6.520 129.936  0.00  0.00    +0.000 C 
BRANCH  22  24
ATOM     23  C   UNL     1     -12.813   8.934 129.496  0.00  0.00    +0.000 C 
ATOM     24  C   UNL     1     -12.555   7.560 128.864  0.00  0.00    +0.000 C 
ATOM     25  C   UNL     1     -13.782   7.144 128.045  0.00  0.00    +0.000 C 
ENDBRANCH  22  24
BRANCH  22  26
ATOM     26  N   UNL     1     -12.663   6.918 131.276  0.00  0.00    +0.000 NA
ATOM     27  H   UNL     1     -12.931   7.905 131.229  0.00  0.00    +0.000 HD
ATOM     28  H   UNL     1     -11.884   6.930 131.937  0.00  0.00    +0.000 HD
ENDBRANCH  22  26
ENDBRANCH  20  22
ENDBRANCH  19  20
ENDBRANCH  18  19
ENDBRANCH  17  18
ENDBRANCH  16  17
ENDBRANCH   1  16
TORSDOF 9
ENDMDL
MODEL 9
REMARK VINA RESULT:      -5.8      6.528      8.299
REMARK  Name = Valaciclovir
REMARK  11 active torsions:
REMARK  status: ('A' for Active; 'I' for Inactive)
REMARK    1  A    between atoms: C_1  and  C_2
REMARK    2  A    between atoms: C_2  and  C_3
REMARK    3  A    between atoms: C_2  and  C_4
REMARK    4  A    between atoms: C_4  and  N_5
REMARK    5  A    between atoms: C_4  and  C_6
REMARK    6  A    between atoms: C_6  and  O_8
REMARK    7  A    between atoms: O_8  and  C_9
REMARK    8  A    between atoms: C_9  and  C_10
REMARK    9  A    between atoms: C_10  and  O_11
REMARK   10  A    between atoms: O_11  and  C_12
REMARK   11  A    between atoms: C_12  and  N_13
REMARK                            x       y       z     vdW  Elec       q    Type
REMARK                         _______ _______ _______ _____ _____    ______ ____
ROOT
ATOM      1  C   UNL     1      -6.159  -2.691 124.495  0.00  0.00    +0.000 C 
ENDROOT
BRANCH   1   2
ATOM      2  N   UNL     1      -7.416  -2.185 123.989  0.00  0.00    +0.000 N 
ATOM      3  C   UNL     1      -8.549  -2.936 123.776  0.00  0.00    +0.000 A 
ATOM      4  N   UNL     1      -9.563  -2.200 123.362  0.00  0.00    +0.000 NA
ATOM      5  C   UNL     1      -9.067  -0.915 123.305  0.00  0.00    +0.000 A 
ATOM      6  C   UNL     1      -7.756  -0.901 123.705  0.00  0.00    +0.000 A 
ATOM      7  N   UNL     1      -7.034   0.228 123.763  0.00  0.00    +0.000 N 
ATOM      8  C   UNL     1      -7.666   1.383 123.369  0.00  0.00    +0.000 A 
ATOM      9  N   UNL     1      -6.892   2.488 123.440  0.00  0.00    +0.000 N 
ATOM     10  N   UNL     1      -8.902   1.481 122.970  0.00  0.00    +0.000 NA
ATOM     11  C   UNL     1      -9.712   0.342 122.906  0.00  0.00    +0.000 A 
ATOM     12  O   UNL     1     -10.887   0.389 122.543  0.00  0.00    +0.000 OA
ATOM     13  H   UNL     1      -6.048   0.250 123.984  0.00  0.00    +0.000 HD
ATOM     14  H   UNL     1      -5.921   2.490 123.701  0.00  0.00    +0.000 HD
ATOM     15  H   UNL     1      -7.305   3.365 123.145  0.00  0.00    +0.000 HD
ENDBRANCH   1   2
BRANCH   1  16
ATOM     16  O   UNL     1      -5.541  -1.682 125.295  0.00  0.00    +0.000 OA
BRANCH  16  17
ATOM     17  C   UNL     1      -5.792  -1.902 126.685  0.00  0.00    +0.000 C 
BRANCH  17  18
ATOM     18  C   UNL     1      -6.275  -0.613 127.353  0.00  0.00    +0.000 C 
BRANCH  18  19
ATOM     19  O   UNL     1      -5.228   0.379 127.322  0.00  0.00    +0.000 OA
BRANCH  19  20
ATOM     20  C   UNL     1      -5.579   1.547 126.702  0.00  0.00    +0.000 C 
ATOM     21  O   UNL     1      -6.737   1.918 126.538  0.00  0.00    +0.000 OA
BRANCH  20  22
ATOM     22  C   UNL     1      -4.341   2.358 126.231  0.00  0.00    +0.000 C 
BRANCH  22  24
ATOM     23  C   UNL     1      -4.056   3.700 128.371  0.00  0.00    +0.000 C 
ATOM     24  C   UNL     1      -3.408   2.682 127.424  0.00  0.00    +0.000 C 
ATOM     25  C   UNL     1      -2.029   3.196 126.997  0.00  0.00    +0.000 C 
ENDBRANCH  22  24
BRANCH  22  26
ATOM     26  N   UNL     1      -4.783   3.609 125.555  0.00  0.00    +0.000 NA
ATOM     27  H   UNL     1      -5.365   4.134 126.214  0.00  0.00    +0.000 HD
ATOM     28  H   UNL     1      -5.447   3.368 124.816  0.00  0.00    +0.000 HD
ENDBRANCH  22  26
ENDBRANCH  20  22
ENDBRANCH  19  20
ENDBRANCH  18  19
ENDBRANCH  17  18
ENDBRANCH  16  17
ENDBRANCH   1  16
TORSDOF 9
ENDMDL
