MODEL 1
REMARK VINA RESULT:      -7.4      0.000      0.000
REMARK  Name = Valbenazine
REMARK  15 active torsions:
REMARK  status: ('A' for Active; 'I' for Inactive)
REMARK    1  A    between atoms: C_1  and  O_2
REMARK    2  A    between atoms: O_2  and  C_3
REMARK    3  A    between atoms: C_4  and  O_5
REMARK    4  A    between atoms: O_5  and  C_6
REMARK    5  A    between atoms: C_11  and  O_12
REMARK    6  A    between atoms: O_12  and  C_13
REMARK    7  A    between atoms: C_13  and  C_15
REMARK    8  A    between atoms: C_15  and  N_16
REMARK    9  A    between atoms: C_15  and  C_17
REMARK   10  A    between atoms: C_17  and  C_18
REMARK   11  A    between atoms: C_17  and  C_19
REMARK   12  A    between atoms: C_20  and  C_21
REMARK   13  A    between atoms: C_21  and  C_22
REMARK   14  A    between atoms: C_22  and  C_23
REMARK   15  A    between atoms: C_22  and  C_24
REMARK                            x       y       z     vdW  Elec       q    Type
REMARK                         _______ _______ _______ _____ _____    ______ ____
ROOT
ATOM      1  C   UNL     1     -11.003   6.222 131.391  0.00  0.00    +0.000 A 
ATOM      2  C   UNL     1     -10.308   6.054 130.186  0.00  0.00    +0.000 A 
ATOM      3  C   UNL     1      -8.920   5.829 130.226  0.00  0.00    +0.000 A 
ATOM      4  C   UNL     1      -8.221   5.789 131.453  0.00  0.00    +0.000 A 
ATOM      5  C   UNL     1      -6.719   5.634 131.533  0.00  0.00    +0.000 C 
ATOM      6  C   UNL     1      -6.074   6.718 130.657  0.00  0.00    +0.000 C 
ATOM      7  C   UNL     1      -4.570   6.538 130.733  0.00  0.00    +0.000 C 
ATOM      8  C   UNL     1      -3.978   6.669 132.134  0.00  0.00    +0.000 C 
ATOM      9  C   UNL     1      -4.746   5.731 133.053  0.00  0.00    +0.000 C 
ATOM     10  N   UNL     1      -6.156   5.938 132.853  0.00  0.00    +0.000 NA
ATOM     11  C   UNL     1      -6.856   5.642 134.062  0.00  0.00    +0.000 C 
ATOM     12  C   UNL     1      -8.342   5.831 133.993  0.00  0.00    +0.000 C 
ATOM     13  C   UNL     1      -8.946   5.924 132.632  0.00  0.00    +0.000 A 
ATOM     14  C   UNL     1     -10.316   6.150 132.592  0.00  0.00    +0.000 A 
ENDROOT
BRANCH   1  16
ATOM     15  C   UNL     1     -12.885   7.629 131.370  0.00  0.00    +0.000 C 
ATOM     16  O   UNL     1     -12.366   6.305 131.426  0.00  0.00    +0.000 OA
ENDBRANCH   1  16
BRANCH   2  17
ATOM     17  O   UNL     1     -10.840   6.094 128.919  0.00  0.00    +0.000 OA
ATOM     18  C   UNL     1     -10.667   7.313 128.205  0.00  0.00    +0.000 C 
ENDBRANCH   2  17
BRANCH   7  19
ATOM     19  O   UNL     1      -3.932   7.345 129.756  0.00  0.00    +0.000 OA
BRANCH  19  20
ATOM     20  C   UNL     1      -3.411   6.779 128.625  0.00  0.00    +0.000 C 
ATOM     21  O   UNL     1      -2.422   7.269 128.117  0.00  0.00    +0.000 OA
BRANCH  20  22
ATOM     22  C   UNL     1      -4.081   5.467 128.096  0.00  0.00    +0.000 C 
BRANCH  22  23
ATOM     23  N   UNL     1      -4.827   5.610 126.824  0.00  0.00    +0.000 NA
ATOM     24  H   UNL     1      -4.350   5.144 126.062  0.00  0.00    +0.000 HD
ATOM     25  H   UNL     1      -5.022   6.569 126.550  0.00  0.00    +0.000 HD
ENDBRANCH  22  23
BRANCH  22  26
ATOM     26  C   UNL     1      -3.122   4.277 127.988  0.00  0.00    +0.000 C 
ATOM     27  C   UNL     1      -3.524   3.097 128.884  0.00  0.00    +0.000 C 
ATOM     28  C   UNL     1      -3.051   3.770 126.534  0.00  0.00    +0.000 C 
ENDBRANCH  22  26
ENDBRANCH  20  22
ENDBRANCH  19  20
ENDBRANCH   7  19
BRANCH   8  29
ATOM     29  C   UNL     1      -2.455   6.432 132.198  0.00  0.00    +0.000 C 
BRANCH  29  30
ATOM     30  C   UNL     1      -1.642   7.455 133.052  0.00  0.00    +0.000 C 
ATOM     31  C   UNL     1      -0.095   7.522 132.943  0.00  0.00    +0.000 C 
ATOM     32  C   UNL     1      -2.170   8.863 132.803  0.00  0.00    +0.000 C 
ENDBRANCH  29  30
ENDBRANCH   8  29
TORSDOF 9
ENDMDL
MODEL 2
REMARK VINA RESULT:      -7.4      1.644      2.416
REMARK  Name = Valbenazine
REMARK  15 active torsions:
REMARK  status: ('A' for Active; 'I' for Inactive)
REMARK    1  A    between atoms: C_1  and  O_2
REMARK    2  A    between atoms: O_2  and  C_3
REMARK    3  A    between atoms: C_4  and  O_5
REMARK    4  A    between atoms: O_5  and  C_6
REMARK    5  A    between atoms: C_11  and  O_12
REMARK    6  A    between atoms: O_12  and  C_13
REMARK    7  A    between atoms: C_13  and  C_15
REMARK    8  A    between atoms: C_15  and  N_16
REMARK    9  A    between atoms: C_15  and  C_17
REMARK   10  A    between atoms: C_17  and  C_18
REMARK   11  A    between atoms: C_17  and  C_19
REMARK   12  A    between atoms: C_20  and  C_21
REMARK   13  A    between atoms: C_21  and  C_22
REMARK   14  A    between atoms: C_22  and  C_23
REMARK   15  A    between atoms: C_22  and  C_24
REMARK                            x       y       z     vdW  Elec       q    Type
REMARK                         _______ _______ _______ _____ _____    ______ ____
ROOT
ATOM      1  C   UNL     1     -11.929   8.012 129.475  0.00  0.00    +0.000 A 
ATOM      2  C   UNL     1     -10.809   8.005 128.633  0.00  0.00    +0.000 A 
ATOM      3  C   UNL     1      -9.633   7.368 129.070  0.00  0.00    +0.000 A 
ATOM      4  C   UNL     1      -9.562   6.756 130.341  0.00  0.00    +0.000 A 
ATOM      5  C   UNL     1      -8.293   6.136 130.879  0.00  0.00    +0.000 C 
ATOM      6  C   UNL     1      -7.170   7.180 130.796  0.00  0.00    +0.000 C 
ATOM      7  C   UNL     1      -5.901   6.538 131.321  0.00  0.00    +0.000 C 
ATOM      8  C   UNL     1      -5.975   6.061 132.769  0.00  0.00    +0.000 C 
ATOM      9  C   UNL     1      -7.203   5.174 132.906  0.00  0.00    +0.000 C 
ATOM     10  N   UNL     1      -8.331   5.849 132.318  0.00  0.00    +0.000 NA
ATOM     11  C   UNL     1      -9.529   5.436 132.978  0.00  0.00    +0.000 C 
ATOM     12  C   UNL     1     -10.783   6.079 132.467  0.00  0.00    +0.000 C 
ATOM     13  C   UNL     1     -10.703   6.750 131.137  0.00  0.00    +0.000 A 
ATOM     14  C   UNL     1     -11.863   7.382 130.708  0.00  0.00    +0.000 A 
ENDROOT
BRANCH   1  16
ATOM     15  C   UNL     1     -13.294   9.901 129.170  0.00  0.00    +0.000 C 
ATOM     16  O   UNL     1     -13.138   8.492 129.056  0.00  0.00    +0.000 OA
ENDBRANCH   1  16
BRANCH   2  17
ATOM     17  O   UNL     1     -10.714   8.579 127.388  0.00  0.00    +0.000 OA
ATOM     18  C   UNL     1     -10.998   7.728 126.282  0.00  0.00    +0.000 C 
ENDBRANCH   2  17
BRANCH   7  19
ATOM     19  O   UNL     1      -4.783   7.363 131.038  0.00  0.00    +0.000 OA
BRANCH  19  20
ATOM     20  C   UNL     1      -3.732   6.878 130.311  0.00  0.00    +0.000 C 
ATOM     21  O   UNL     1      -2.600   7.189 130.624  0.00  0.00    +0.000 OA
BRANCH  20  22
ATOM     22  C   UNL     1      -4.052   5.872 129.156  0.00  0.00    +0.000 C 
BRANCH  22  23
ATOM     23  N   UNL     1      -4.069   6.459 127.796  0.00  0.00    +0.000 NA
ATOM     24  H   UNL     1      -5.007   6.484 127.417  0.00  0.00    +0.000 HD
ATOM     25  H   UNL     1      -3.458   6.000 127.126  0.00  0.00    +0.000 HD
ENDBRANCH  22  23
BRANCH  22  26
ATOM     26  C   UNL     1      -3.166   4.621 129.155  0.00  0.00    +0.000 C 
ATOM     27  C   UNL     1      -3.898   3.366 129.651  0.00  0.00    +0.000 C 
ATOM     28  C   UNL     1      -2.636   4.336 127.736  0.00  0.00    +0.000 C 
ENDBRANCH  22  26
ENDBRANCH  20  22
ENDBRANCH  19  20
ENDBRANCH   7  19
BRANCH   8  29
ATOM     29  C   UNL     1      -4.694   5.365 133.269  0.00  0.00    +0.000 C 
BRANCH  29  30
ATOM     30  C   UNL     1      -3.926   6.094 134.417  0.00  0.00    +0.000 C 
ATOM     31  C   UNL     1      -3.036   7.329 134.111  0.00  0.00    +0.000 C 
ATOM     32  C   UNL     1      -4.906   6.505 135.508  0.00  0.00    +0.000 C 
ENDBRANCH  29  30
ENDBRANCH   8  29
TORSDOF 9
ENDMDL
MODEL 3
REMARK VINA RESULT:      -7.4      7.053      9.940
REMARK  Name = Valbenazine
REMARK  15 active torsions:
REMARK  status: ('A' for Active; 'I' for Inactive)
REMARK    1  A    between atoms: C_1  and  O_2
REMARK    2  A    between atoms: O_2  and  C_3
REMARK    3  A    between atoms: C_4  and  O_5
REMARK    4  A    between atoms: O_5  and  C_6
REMARK    5  A    between atoms: C_11  and  O_12
REMARK    6  A    between atoms: O_12  and  C_13
REMARK    7  A    between atoms: C_13  and  C_15
REMARK    8  A    between atoms: C_15  and  N_16
REMARK    9  A    between atoms: C_15  and  C_17
REMARK   10  A    between atoms: C_17  and  C_18
REMARK   11  A    between atoms: C_17  and  C_19
REMARK   12  A    between atoms: C_20  and  C_21
REMARK   13  A    between atoms: C_21  and  C_22
REMARK   14  A    between atoms: C_22  and  C_23
REMARK   15  A    between atoms: C_22  and  C_24
REMARK                            x       y       z     vdW  Elec       q    Type
REMARK                         _______ _______ _______ _____ _____    ______ ____
ROOT
ATOM      1  C   UNL     1      -5.571   4.131 123.639  0.00  0.00    +0.000 A 
ATOM      2  C   UNL     1      -6.748   3.405 123.418  0.00  0.00    +0.000 A 
ATOM      3  C   UNL     1      -7.106   2.395 124.330  0.00  0.00    +0.000 A 
ATOM      4  C   UNL     1      -6.293   2.095 125.446  0.00  0.00    +0.000 A 
ATOM      5  C   UNL     1      -6.600   0.964 126.400  0.00  0.00    +0.000 C 
ATOM      6  C   UNL     1      -6.772  -0.324 125.584  0.00  0.00    +0.000 C 
ATOM      7  C   UNL     1      -7.097  -1.446 126.552  0.00  0.00    +0.000 C 
ATOM      8  C   UNL     1      -6.027  -1.712 127.607  0.00  0.00    +0.000 C 
ATOM      9  C   UNL     1      -5.711  -0.393 128.294  0.00  0.00    +0.000 C 
ATOM     10  N   UNL     1      -5.485   0.612 127.288  0.00  0.00    +0.000 NA
ATOM     11  C   UNL     1      -4.577   1.593 127.791  0.00  0.00    +0.000 C 
ATOM     12  C   UNL     1      -4.245   2.695 126.830  0.00  0.00    +0.000 C 
ATOM     13  C   UNL     1      -5.150   2.861 125.656  0.00  0.00    +0.000 A 
ATOM     14  C   UNL     1      -4.794   3.855 124.753  0.00  0.00    +0.000 A 
ENDROOT
BRANCH   1  16
ATOM     15  C   UNL     1      -4.484   4.906 121.705  0.00  0.00    +0.000 C 
ATOM     16  O   UNL     1      -5.241   5.212 122.871  0.00  0.00    +0.000 OA
ENDBRANCH   1  16
BRANCH   2  17
ATOM     17  O   UNL     1      -7.624   3.558 122.370  0.00  0.00    +0.000 OA
ATOM     18  C   UNL     1      -8.802   2.761 122.415  0.00  0.00    +0.000 C 
ENDBRANCH   2  17
BRANCH   7  19
ATOM     19  O   UNL     1      -7.512  -2.600 125.840  0.00  0.00    +0.000 OA
BRANCH  19  20
ATOM     20  C   UNL     1      -8.754  -2.653 125.271  0.00  0.00    +0.000 C 
ATOM     21  O   UNL     1      -9.709  -2.227 125.888  0.00  0.00    +0.000 OA
BRANCH  20  22
ATOM     22  C   UNL     1      -8.857  -3.190 123.805  0.00  0.00    +0.000 C 
BRANCH  22  23
ATOM     23  N   UNL     1     -10.160  -3.799 123.447  0.00  0.00    +0.000 NA
ATOM     24  H   UNL     1     -10.039  -4.725 123.056  0.00  0.00    +0.000 HD
ATOM     25  H   UNL     1     -10.727  -3.246 122.811  0.00  0.00    +0.000 HD
ENDBRANCH  22  23
BRANCH  22  26
ATOM     26  C   UNL     1      -8.468  -2.164 122.735  0.00  0.00    +0.000 C 
ATOM     27  C   UNL     1      -9.096  -0.783 122.970  0.00  0.00    +0.000 C 
ATOM     28  C   UNL     1      -6.937  -1.991 122.682  0.00  0.00    +0.000 C 
ENDBRANCH  22  26
ENDBRANCH  20  22
ENDBRANCH  19  20
ENDBRANCH   7  19
BRANCH   8  29
ATOM     29  C   UNL     1      -6.398  -2.820 128.614  0.00  0.00    +0.000 C 
BRANCH  29  30
ATOM     30  C   UNL     1      -7.825  -2.721 129.240  0.00  0.00    +0.000 C 
ATOM     31  C   UNL     1      -8.928  -3.746 128.860  0.00  0.00    +0.000 C 
ATOM     32  C   UNL     1      -7.719  -2.720 130.760  0.00  0.00    +0.000 C 
ENDBRANCH  29  30
ENDBRANCH   8  29
TORSDOF 9
ENDMDL
MODEL 4
REMARK VINA RESULT:      -7.3      5.446      7.975
REMARK  Name = Valbenazine
REMARK  15 active torsions:
REMARK  status: ('A' for Active; 'I' for Inactive)
REMARK    1  A    between atoms: C_1  and  O_2
REMARK    2  A    between atoms: O_2  and  C_3
REMARK    3  A    between atoms: C_4  and  O_5
REMARK    4  A    between atoms: O_5  and  C_6
REMARK    5  A    between atoms: C_11  and  O_12
REMARK    6  A    between atoms: O_12  and  C_13
REMARK    7  A    between atoms: C_13  and  C_15
REMARK    8  A    between atoms: C_15  and  N_16
REMARK    9  A    between atoms: C_15  and  C_17
REMARK   10  A    between atoms: C_17  and  C_18
REMARK   11  A    between atoms: C_17  and  C_19
REMARK   12  A    between atoms: C_20  and  C_21
REMARK   13  A    between atoms: C_21  and  C_22
REMARK   14  A    between atoms: C_22  and  C_23
REMARK   15  A    between atoms: C_22  and  C_24
REMARK                            x       y       z     vdW  Elec       q    Type
REMARK                         _______ _______ _______ _____ _____    ______ ____
ROOT
ATOM      1  C   UNL     1      -8.730  -2.518 126.200  0.00  0.00    +0.000 A 
ATOM      2  C   UNL     1      -8.814  -1.189 125.764  0.00  0.00    +0.000 A 
ATOM      3  C   UNL     1      -8.333  -0.167 126.602  0.00  0.00    +0.000 A 
ATOM      4  C   UNL     1      -7.789  -0.457 127.873  0.00  0.00    +0.000 A 
ATOM      5  C   UNL     1      -7.340   0.618 128.835  0.00  0.00    +0.000 C 
ATOM      6  C   UNL     1      -8.500   1.604 129.034  0.00  0.00    +0.000 C 
ATOM      7  C   UNL     1      -8.030   2.687 129.986  0.00  0.00    +0.000 C 
ATOM      8  C   UNL     1      -7.611   2.188 131.367  0.00  0.00    +0.000 C 
ATOM      9  C   UNL     1      -6.597   1.072 131.172  0.00  0.00    +0.000 C 
ATOM     10  N   UNL     1      -7.114   0.140 130.204  0.00  0.00    +0.000 NA
ATOM     11  C   UNL     1      -6.596  -1.163 130.476  0.00  0.00    +0.000 C 
ATOM     12  C   UNL     1      -7.071  -2.237 129.542  0.00  0.00    +0.000 C 
ATOM     13  C   UNL     1      -7.688  -1.790 128.260  0.00  0.00    +0.000 A 
ATOM     14  C   UNL     1      -8.166  -2.800 127.434  0.00  0.00    +0.000 A 
ENDROOT
BRANCH   1  16
ATOM     15  C   UNL     1      -7.996  -4.003 124.534  0.00  0.00    +0.000 C 
ATOM     16  O   UNL     1      -9.051  -3.563 125.380  0.00  0.00    +0.000 OA
ENDBRANCH   1  16
BRANCH   2  17
ATOM     17  O   UNL     1      -9.340  -0.747 124.574  0.00  0.00    +0.000 OA
ATOM     18  C   UNL     1      -8.785   0.456 124.051  0.00  0.00    +0.000 C 
ENDBRANCH   2  17
BRANCH   7  19
ATOM     19  O   UNL     1      -8.963   3.754 130.013  0.00  0.00    +0.000 OA
BRANCH  19  20
ATOM     20  C   UNL     1      -8.728   4.896 129.300  0.00  0.00    +0.000 C 
ATOM     21  O   UNL     1      -7.833   4.910 128.478  0.00  0.00    +0.000 OA
BRANCH  20  22
ATOM     22  C   UNL     1      -9.692   6.107 129.531  0.00  0.00    +0.000 C 
BRANCH  22  23
ATOM     23  N   UNL     1     -11.134   5.803 129.374  0.00  0.00    +0.000 NA
ATOM     24  H   UNL     1     -11.286   4.816 129.209  0.00  0.00    +0.000 HD
ATOM     25  H   UNL     1     -11.604   6.333 128.646  0.00  0.00    +0.000 HD
ENDBRANCH  22  23
BRANCH  22  26
ATOM     26  C   UNL     1      -9.472   6.835 130.861  0.00  0.00    +0.000 C 
ATOM     27  C   UNL     1     -10.310   6.257 132.009  0.00  0.00    +0.000 C 
ATOM     28  C   UNL     1      -7.988   6.771 131.273  0.00  0.00    +0.000 C 
ENDBRANCH  22  26
ENDBRANCH  20  22
ENDBRANCH  19  20
ENDBRANCH   7  19
BRANCH   8  29
ATOM     29  C   UNL     1      -7.086   3.296 132.303  0.00  0.00    +0.000 C 
BRANCH  29  30
ATOM     30  C   UNL     1      -7.820   3.433 133.674  0.00  0.00    +0.000 C 
ATOM     31  C   UNL     1      -7.715   4.744 134.500  0.00  0.00    +0.000 C 
ATOM     32  C   UNL     1      -9.304   3.135 133.493  0.00  0.00    +0.000 C 
ENDBRANCH  29  30
ENDBRANCH   8  29
TORSDOF 9
ENDMDL
MODEL 5
REMARK VINA RESULT:      -7.3      5.091      7.780
REMARK  Name = Valbenazine
REMARK  15 active torsions:
REMARK  status: ('A' for Active; 'I' for Inactive)
REMARK    1  A    between atoms: C_1  and  O_2
REMARK    2  A    between atoms: O_2  and  C_3
REMARK    3  A    between atoms: C_4  and  O_5
REMARK    4  A    between atoms: O_5  and  C_6
REMARK    5  A    between atoms: C_11  and  O_12
REMARK    6  A    between atoms: O_12  and  C_13
REMARK    7  A    between atoms: C_13  and  C_15
REMARK    8  A    between atoms: C_15  and  N_16
REMARK    9  A    between atoms: C_15  and  C_17
REMARK   10  A    between atoms: C_17  and  C_18
REMARK   11  A    between atoms: C_17  and  C_19
REMARK   12  A    between atoms: C_20  and  C_21
REMARK   13  A    between atoms: C_21  and  C_22
REMARK   14  A    between atoms: C_22  and  C_23
REMARK   15  A    between atoms: C_22  and  C_24
REMARK                            x       y       z     vdW  Elec       q    Type
REMARK                         _______ _______ _______ _____ _____    ______ ____
ROOT
ATOM      1  C   UNL     1      -9.130  -1.224 125.682  0.00  0.00    +0.000 A 
ATOM      2  C   UNL     1      -9.393   0.138 125.483  0.00  0.00    +0.000 A 
ATOM      3  C   UNL     1      -8.888   1.071 126.408  0.00  0.00    +0.000 A 
ATOM      4  C   UNL     1      -8.142   0.655 127.533  0.00  0.00    +0.000 A 
ATOM      5  C   UNL     1      -7.656   1.617 128.592  0.00  0.00    +0.000 C 
ATOM      6  C   UNL     1      -8.857   2.428 129.098  0.00  0.00    +0.000 C 
ATOM      7  C   UNL     1      -8.351   3.401 130.145  0.00  0.00    +0.000 C 
ATOM      8  C   UNL     1      -7.694   2.751 131.360  0.00  0.00    +0.000 C 
ATOM      9  C   UNL     1      -6.624   1.795 130.855  0.00  0.00    +0.000 C 
ATOM     10  N   UNL     1      -7.191   0.967 129.823  0.00  0.00    +0.000 NA
ATOM     11  C   UNL     1      -6.527  -0.297 129.809  0.00  0.00    +0.000 C 
ATOM     12  C   UNL     1      -7.035  -1.265 128.782  0.00  0.00    +0.000 C 
ATOM     13  C   UNL     1      -7.868  -0.702 127.680  0.00  0.00    +0.000 A 
ATOM     14  C   UNL     1      -8.370  -1.623 126.770  0.00  0.00    +0.000 A 
ENDROOT
BRANCH   1  16
ATOM     15  C   UNL     1      -8.727  -3.373 124.820  0.00  0.00    +0.000 C 
ATOM     16  O   UNL     1      -9.472  -2.163 124.750  0.00  0.00    +0.000 OA
ENDBRANCH   1  16
BRANCH   2  17
ATOM     17  O   UNL     1     -10.123   0.693 124.460  0.00  0.00    +0.000 OA
ATOM     18  C   UNL     1      -9.376   1.341 123.435  0.00  0.00    +0.000 C 
ENDBRANCH   2  17
BRANCH   7  19
ATOM     19  O   UNL     1      -9.362   4.342 130.466  0.00  0.00    +0.000 OA
BRANCH  19  20
ATOM     20  C   UNL     1      -9.298   5.619 129.979  0.00  0.00    +0.000 C 
ATOM     21  O   UNL     1      -8.253   6.233 130.057  0.00  0.00    +0.000 OA
BRANCH  20  22
ATOM     22  C   UNL     1     -10.570   6.186 129.266  0.00  0.00    +0.000 C 
BRANCH  22  23
ATOM     23  N   UNL     1     -11.835   5.478 129.574  0.00  0.00    +0.000 NA
ATOM     24  H   UNL     1     -11.948   5.344 130.571  0.00  0.00    +0.000 HD
ATOM     25  H   UNL     1     -11.945   4.582 129.109  0.00  0.00    +0.000 HD
ENDBRANCH  22  23
BRANCH  22  26
ATOM     26  C   UNL     1     -10.775   7.692 129.460  0.00  0.00    +0.000 C 
ATOM     27  C   UNL     1     -10.503   8.506 128.187  0.00  0.00    +0.000 C 
ATOM     28  C   UNL     1     -12.217   7.988 129.918  0.00  0.00    +0.000 C 
ENDBRANCH  22  26
ENDBRANCH  20  22
ENDBRANCH  19  20
ENDBRANCH   7  19
BRANCH   8  29
ATOM     29  C   UNL     1      -7.139   3.757 132.389  0.00  0.00    +0.000 C 
BRANCH  29  30
ATOM     30  C   UNL     1      -7.695   3.621 133.842  0.00  0.00    +0.000 C 
ATOM     31  C   UNL     1      -7.290   4.640 134.941  0.00  0.00    +0.000 C 
ATOM     32  C   UNL     1      -9.218   3.581 133.806  0.00  0.00    +0.000 C 
ENDBRANCH  29  30
ENDBRANCH   8  29
TORSDOF 9
ENDMDL
MODEL 6
REMARK VINA RESULT:      -7.0      5.667      8.306
REMARK  Name = Valbenazine
REMARK  15 active torsions:
REMARK  status: ('A' for Active; 'I' for Inactive)
REMARK    1  A    between atoms: C_1  and  O_2
REMARK    2  A    between atoms: O_2  and  C_3
REMARK    3  A    between atoms: C_4  and  O_5
REMARK    4  A    between atoms: O_5  and  C_6
REMARK    5  A    between atoms: C_11  and  O_12
REMARK    6  A    between atoms: O_12  and  C_13
REMARK    7  A    between atoms: C_13  and  C_15
REMARK    8  A    between atoms: C_15  and  N_16
REMARK    9  A    between atoms: C_15  and  C_17
REMARK   10  A    between atoms: C_17  and  C_18
REMARK   11  A    between atoms: C_17  and  C_19
REMARK   12  A    between atoms: C_20  and  C_21
REMARK   13  A    between atoms: C_21  and  C_22
REMARK   14  A    between atoms: C_22  and  C_23
REMARK   15  A    between atoms: C_22  and  C_24
REMARK                            x       y       z     vdW  Elec       q    Type
REMARK                         _______ _______ _______ _____ _____    ______ ____
ROOT
ATOM      1  C   UNL     1      -8.038   2.945 131.423  0.00  0.00    +0.000 A 
ATOM      2  C   UNL     1      -8.549   3.460 130.224  0.00  0.00    +0.000 A 
ATOM      3  C   UNL     1      -8.647   2.613 129.106  0.00  0.00    +0.000 A 
ATOM      4  C   UNL     1      -8.223   1.266 129.169  0.00  0.00    +0.000 A 
ATOM      5  C   UNL     1      -8.234   0.349 127.968  0.00  0.00    +0.000 C 
ATOM      6  C   UNL     1      -7.461   1.032 126.831  0.00  0.00    +0.000 C 
ATOM      7  C   UNL     1      -7.495   0.109 125.628  0.00  0.00    +0.000 C 
ATOM      8  C   UNL     1      -6.862  -1.262 125.853  0.00  0.00    +0.000 C 
ATOM      9  C   UNL     1      -7.492  -1.867 127.099  0.00  0.00    +0.000 C 
ATOM     10  N   UNL     1      -7.466  -0.888 128.154  0.00  0.00    +0.000 NA
ATOM     11  C   UNL     1      -7.391  -1.552 129.416  0.00  0.00    +0.000 C 
ATOM     12  C   UNL     1      -7.344  -0.640 130.606  0.00  0.00    +0.000 C 
ATOM     13  C   UNL     1      -7.755   0.777 130.385  0.00  0.00    +0.000 A 
ATOM     14  C   UNL     1      -7.655   1.615 131.488  0.00  0.00    +0.000 A 
ENDROOT
BRANCH   1  16
ATOM     15  C   UNL     1      -9.111   3.368 133.471  0.00  0.00    +0.000 C 
ATOM     16  O   UNL     1      -8.047   3.675 132.578  0.00  0.00    +0.000 OA
ENDBRANCH   1  16
BRANCH   2  17
ATOM     17  O   UNL     1      -8.973   4.748 129.998  0.00  0.00    +0.000 OA
ATOM     18  C   UNL     1     -10.351   5.008 130.243  0.00  0.00    +0.000 C 
ENDBRANCH   2  17
BRANCH   7  19
ATOM     19  O   UNL     1      -7.018   0.787 124.478  0.00  0.00    +0.000 OA
BRANCH  19  20
ATOM     20  C   UNL     1      -7.893   1.239 123.529  0.00  0.00    +0.000 C 
ATOM     21  O   UNL     1      -8.768   0.498 123.127  0.00  0.00    +0.000 OA
BRANCH  20  22
ATOM     22  C   UNL     1      -7.761   2.730 123.072  0.00  0.00    +0.000 C 
BRANCH  22  23
ATOM     23  N   UNL     1      -8.260   3.732 124.043  0.00  0.00    +0.000 NA
ATOM     24  H   UNL     1      -7.540   3.994 124.704  0.00  0.00    +0.000 HD
ATOM     25  H   UNL     1      -9.090   3.450 124.557  0.00  0.00    +0.000 HD
ENDBRANCH  22  23
BRANCH  22  26
ATOM     26  C   UNL     1      -6.351   3.122 122.621  0.00  0.00    +0.000 C 
ATOM     27  C   UNL     1      -6.321   3.760 121.224  0.00  0.00    +0.000 C 
ATOM     28  C   UNL     1      -5.723   4.119 123.615  0.00  0.00    +0.000 C 
ENDBRANCH  22  26
ENDBRANCH  20  22
ENDBRANCH  19  20
ENDBRANCH   7  19
BRANCH   8  29
ATOM     29  C   UNL     1      -6.954  -2.204 124.636  0.00  0.00    +0.000 C 
BRANCH  29  30
ATOM     30  C   UNL     1      -5.672  -2.297 123.749  0.00  0.00    +0.000 C 
ATOM     31  C   UNL     1      -4.825  -3.598 123.719  0.00  0.00    +0.000 C 
ATOM     32  C   UNL     1      -6.022  -1.957 122.306  0.00  0.00    +0.000 C 
ENDBRANCH  29  30
ENDBRANCH   8  29
TORSDOF 9
ENDMDL
MODEL 7
REMARK VINA RESULT:      -6.8      6.004      7.852
REMARK  Name = Valbenazine
REMARK  15 active torsions:
REMARK  status: ('A' for Active; 'I' for Inactive)
REMARK    1  A    between atoms: C_1  and  O_2
REMARK    2  A    between atoms: O_2  and  C_3
REMARK    3  A    between atoms: C_4  and  O_5
REMARK    4  A    between atoms: O_5  and  C_6
REMARK    5  A    between atoms: C_11  and  O_12
REMARK    6  A    between atoms: O_12  and  C_13
REMARK    7  A    between atoms: C_13  and  C_15
REMARK    8  A    between atoms: C_15  and  N_16
REMARK    9  A    between atoms: C_15  and  C_17
REMARK   10  A    between atoms: C_17  and  C_18
REMARK   11  A    between atoms: C_17  and  C_19
REMARK   12  A    between atoms: C_20  and  C_21
REMARK   13  A    between atoms: C_21  and  C_22
REMARK   14  A    between atoms: C_22  and  C_23
REMARK   15  A    between atoms: C_22  and  C_24
REMARK                            x       y       z     vdW  Elec       q    Type
REMARK                         _______ _______ _______ _____ _____    ______ ____
ROOT
ATOM      1  C   UNL     1      -7.859   4.847 129.988  0.00  0.00    +0.000 A 
ATOM      2  C   UNL     1      -8.181   4.217 128.779  0.00  0.00    +0.000 A 
ATOM      3  C   UNL     1      -8.297   2.815 128.752  0.00  0.00    +0.000 A 
ATOM      4  C   UNL     1      -8.078   2.041 129.913  0.00  0.00    +0.000 A 
ATOM      5  C   UNL     1      -8.111   0.530 129.906  0.00  0.00    +0.000 C 
ATOM      6  C   UNL     1      -7.150   0.030 128.819  0.00  0.00    +0.000 C 
ATOM      7  C   UNL     1      -7.207  -1.486 128.812  0.00  0.00    +0.000 C 
ATOM      8  C   UNL     1      -6.799  -2.150 130.124  0.00  0.00    +0.000 C 
ATOM      9  C   UNL     1      -7.618  -1.519 131.240  0.00  0.00    +0.000 C 
ATOM     10  N   UNL     1      -7.548  -0.087 131.114  0.00  0.00    +0.000 NA
ATOM     11  C   UNL     1      -7.684   0.511 132.403  0.00  0.00    +0.000 C 
ATOM     12  C   UNL     1      -7.614   2.009 132.414  0.00  0.00    +0.000 C 
ATOM     13  C   UNL     1      -7.796   2.701 131.105  0.00  0.00    +0.000 A 
ATOM     14  C   UNL     1      -7.678   4.085 131.130  0.00  0.00    +0.000 A 
ENDROOT
BRANCH   1  16
ATOM     15  C   UNL     1      -9.041   6.747 130.706  0.00  0.00    +0.000 C 
ATOM     16  O   UNL     1      -7.867   6.208 130.110  0.00  0.00    +0.000 OA
ENDBRANCH   1  16
BRANCH   2  17
ATOM     17  O   UNL     1      -8.394   4.826 127.565  0.00  0.00    +0.000 OA
ATOM     18  C   UNL     1      -7.667   4.297 126.461  0.00  0.00    +0.000 C 
ENDBRANCH   2  17
BRANCH   7  19
ATOM     19  O   UNL     1      -6.535  -1.994 127.670  0.00  0.00    +0.000 OA
BRANCH  19  20
ATOM     20  C   UNL     1      -7.237  -2.318 126.542  0.00  0.00    +0.000 C 
ATOM     21  O   UNL     1      -8.181  -3.078 126.627  0.00  0.00    +0.000 OA
BRANCH  20  22
ATOM     22  C   UNL     1      -6.827  -1.614 125.206  0.00  0.00    +0.000 C 
BRANCH  22  23
ATOM     23  N   UNL     1      -5.700  -0.658 125.318  0.00  0.00    +0.000 NA
ATOM     24  H   UNL     1      -4.811  -1.116 125.163  0.00  0.00    +0.000 HD
ATOM     25  H   UNL     1      -5.658  -0.151 126.198  0.00  0.00    +0.000 HD
ENDBRANCH  22  23
BRANCH  22  26
ATOM     26  C   UNL     1      -6.555  -2.581 124.049  0.00  0.00    +0.000 C 
ATOM     27  C   UNL     1      -6.437  -1.876 122.691  0.00  0.00    +0.000 C 
ATOM     28  C   UNL     1      -5.251  -3.366 124.296  0.00  0.00    +0.000 C 
ENDBRANCH  22  26
ENDBRANCH  20  22
ENDBRANCH  19  20
ENDBRANCH   7  19
BRANCH   8  29
ATOM     29  C   UNL     1      -6.914  -3.687 130.114  0.00  0.00    +0.000 C 
BRANCH  29  30
ATOM     30  C   UNL     1      -5.584  -4.471 130.349  0.00  0.00    +0.000 C 
ATOM     31  C   UNL     1      -4.224  -3.875 129.895  0.00  0.00    +0.000 C 
ATOM     32  C   UNL     1      -5.450  -4.820 131.826  0.00  0.00    +0.000 C 
ENDBRANCH  29  30
ENDBRANCH   8  29
TORSDOF 9
ENDMDL
MODEL 8
REMARK VINA RESULT:      -6.8      3.733      5.549
REMARK  Name = Valbenazine
REMARK  15 active torsions:
REMARK  status: ('A' for Active; 'I' for Inactive)
REMARK    1  A    between atoms: C_1  and  O_2
REMARK    2  A    between atoms: O_2  and  C_3
REMARK    3  A    between atoms: C_4  and  O_5
REMARK    4  A    between atoms: O_5  and  C_6
REMARK    5  A    between atoms: C_11  and  O_12
REMARK    6  A    between atoms: O_12  and  C_13
REMARK    7  A    between atoms: C_13  and  C_15
REMARK    8  A    between atoms: C_15  and  N_16
REMARK    9  A    between atoms: C_15  and  C_17
REMARK   10  A    between atoms: C_17  and  C_18
REMARK   11  A    between atoms: C_17  and  C_19
REMARK   12  A    between atoms: C_20  and  C_21
REMARK   13  A    between atoms: C_21  and  C_22
REMARK   14  A    between atoms: C_22  and  C_23
REMARK   15  A    between atoms: C_22  and  C_24
REMARK                            x       y       z     vdW  Elec       q    Type
REMARK                         _______ _______ _______ _____ _____    ______ ____
ROOT
ATOM      1  C   UNL     1      -9.867   5.538 131.285  0.00  0.00    +0.000 A 
ATOM      2  C   UNL     1      -9.338   5.636 129.991  0.00  0.00    +0.000 A 
ATOM      3  C   UNL     1      -8.825   4.480 129.376  0.00  0.00    +0.000 A 
ATOM      4  C   UNL     1      -8.819   3.236 130.046  0.00  0.00    +0.000 A 
ATOM      5  C   UNL     1      -8.201   1.991 129.452  0.00  0.00    +0.000 C 
ATOM      6  C   UNL     1      -6.756   2.314 129.047  0.00  0.00    +0.000 C 
ATOM      7  C   UNL     1      -6.156   1.062 128.437  0.00  0.00    +0.000 C 
ATOM      8  C   UNL     1      -6.110  -0.147 129.367  0.00  0.00    +0.000 C 
ATOM      9  C   UNL     1      -7.509  -0.357 129.926  0.00  0.00    +0.000 C 
ATOM     10  N   UNL     1      -8.007   0.901 130.416  0.00  0.00    +0.000 NA
ATOM     11  C   UNL     1      -8.921   0.666 131.488  0.00  0.00    +0.000 C 
ATOM     12  C   UNL     1      -9.506   1.904 132.101  0.00  0.00    +0.000 C 
ATOM     13  C   UNL     1      -9.385   3.166 131.315  0.00  0.00    +0.000 A 
ATOM     14  C   UNL     1      -9.888   4.308 131.924  0.00  0.00    +0.000 A 
ENDROOT
BRANCH   1  16
ATOM     15  C   UNL     1     -11.908   6.641 131.660  0.00  0.00    +0.000 C 
ATOM     16  O   UNL     1     -10.503   6.590 131.881  0.00  0.00    +0.000 OA
ENDBRANCH   1  16
BRANCH   2  17
ATOM     17  O   UNL     1      -9.247   6.774 129.225  0.00  0.00    +0.000 OA
ATOM     18  C   UNL     1     -10.328   7.017 128.332  0.00  0.00    +0.000 C 
ENDBRANCH   2  17
BRANCH   7  19
ATOM     19  O   UNL     1      -4.916   1.367 127.819  0.00  0.00    +0.000 OA
BRANCH  19  20
ATOM     20  C   UNL     1      -4.884   1.980 126.597  0.00  0.00    +0.000 C 
ATOM     21  O   UNL     1      -5.502   1.492 125.672  0.00  0.00    +0.000 OA
BRANCH  20  22
ATOM     22  C   UNL     1      -4.109   3.335 126.486  0.00  0.00    +0.000 C 
BRANCH  22  23
ATOM     23  N   UNL     1      -4.924   4.548 126.736  0.00  0.00    +0.000 NA
ATOM     24  H   UNL     1      -5.673   4.634 126.061  0.00  0.00    +0.000 HD
ATOM     25  H   UNL     1      -4.398   5.417 126.754  0.00  0.00    +0.000 HD
ENDBRANCH  22  23
BRANCH  22  26
ATOM     26  C   UNL     1      -2.836   3.398 127.337  0.00  0.00    +0.000 C 
ATOM     27  C   UNL     1      -1.579   2.961 126.571  0.00  0.00    +0.000 C 
ATOM     28  C   UNL     1      -2.605   4.830 127.858  0.00  0.00    +0.000 C 
ENDBRANCH  22  26
ENDBRANCH  20  22
ENDBRANCH  19  20
ENDBRANCH   7  19
BRANCH   8  29
ATOM     29  C   UNL     1      -5.545  -1.423 128.713  0.00  0.00    +0.000 C 
BRANCH  29  30
ATOM     30  C   UNL     1      -4.628  -2.304 129.620  0.00  0.00    +0.000 C 
ATOM     31  C   UNL     1      -3.785  -3.456 129.009  0.00  0.00    +0.000 C 
ATOM     32  C   UNL     1      -3.670  -1.412 130.399  0.00  0.00    +0.000 C 
ENDBRANCH  29  30
ENDBRANCH   8  29
TORSDOF 9
ENDMDL
MODEL 9
REMARK VINA RESULT:      -6.6      5.743      8.723
REMARK  Name = Valbenazine
REMARK  15 active torsions:
REMARK  status: ('A' for Active; 'I' for Inactive)
REMARK    1  A    between atoms: C_1  and  O_2
REMARK    2  A    between atoms: O_2  and  C_3
REMARK    3  A    between atoms: C_4  and  O_5
REMARK    4  A    between atoms: O_5  and  C_6
REMARK    5  A    between atoms: C_11  and  O_12
REMARK    6  A    between atoms: O_12  and  C_13
REMARK    7  A    between atoms: C_13  and  C_15
REMARK    8  A    between atoms: C_15  and  N_16
REMARK    9  A    between atoms: C_15  and  C_17
REMARK   10  A    between atoms: C_17  and  C_18
REMARK   11  A    between atoms: C_17  and  C_19
REMARK   12  A    between atoms: C_20  and  C_21
REMARK   13  A    between atoms: C_21  and  C_22
REMARK   14  A    between atoms: C_22  and  C_23
REMARK   15  A    between atoms: C_22  and  C_24
REMARK                            x       y       z     vdW  Elec       q    Type
REMARK                         _______ _______ _______ _____ _____    ______ ____
ROOT
ATOM      1  C   UNL     1      -4.479   5.192 127.630  0.00  0.00    +0.000 A 
ATOM      2  C   UNL     1      -5.376   4.541 126.772  0.00  0.00    +0.000 A 
ATOM      3  C   UNL     1      -5.784   3.230 127.081  0.00  0.00    +0.000 A 
ATOM      4  C   UNL     1      -5.291   2.562 128.224  0.00  0.00    +0.000 A 
ATOM      5  C   UNL     1      -5.640   1.126 128.545  0.00  0.00    +0.000 C 
ATOM      6  C   UNL     1      -5.313   0.264 127.318  0.00  0.00    +0.000 C 
ATOM      7  C   UNL     1      -5.684  -1.169 127.647  0.00  0.00    +0.000 C 
ATOM      8  C   UNL     1      -4.940  -1.767 128.838  0.00  0.00    +0.000 C 
ATOM      9  C   UNL     1      -5.101  -0.815 130.014  0.00  0.00    +0.000 C 
ATOM     10  N   UNL     1      -4.789   0.520 129.575  0.00  0.00    +0.000 NA
ATOM     11  C   UNL     1      -4.276   1.273 130.675  0.00  0.00    +0.000 C 
ATOM     12  C   UNL     1      -3.896   2.687 130.347  0.00  0.00    +0.000 C 
ATOM     13  C   UNL     1      -4.431   3.250 129.074  0.00  0.00    +0.000 A 
ATOM     14  C   UNL     1      -4.026   4.543 128.767  0.00  0.00    +0.000 A 
ENDROOT
BRANCH   1  16
ATOM     15  C   UNL     1      -3.061   6.959 128.251  0.00  0.00    +0.000 C 
ATOM     16  O   UNL     1      -4.154   6.508 127.460  0.00  0.00    +0.000 OA
ENDBRANCH   1  16
BRANCH   2  17
ATOM     17  O   UNL     1      -5.918   5.044 125.613  0.00  0.00    +0.000 OA
ATOM     18  C   UNL     1      -5.586   4.354 124.414  0.00  0.00    +0.000 C 
ENDBRANCH   2  17
BRANCH   7  19
ATOM     19  O   UNL     1      -5.639  -1.967 126.475  0.00  0.00    +0.000 OA
BRANCH  19  20
ATOM     20  C   UNL     1      -6.789  -2.491 125.951  0.00  0.00    +0.000 C 
ATOM     21  O   UNL     1      -7.810  -2.456 126.608  0.00  0.00    +0.000 OA
BRANCH  20  22
ATOM     22  C   UNL     1      -6.735  -3.035 124.485  0.00  0.00    +0.000 C 
BRANCH  22  23
ATOM     23  N   UNL     1      -7.939  -2.759 123.666  0.00  0.00    +0.000 NA
ATOM     24  H   UNL     1      -8.023  -3.416 122.901  0.00  0.00    +0.000 HD
ATOM     25  H   UNL     1      -7.993  -1.814 123.295  0.00  0.00    +0.000 HD
ENDBRANCH  22  23
BRANCH  22  26
ATOM     26  C   UNL     1      -5.486  -2.609 123.707  0.00  0.00    +0.000 C 
ATOM     27  C   UNL     1      -4.485  -3.755 123.501  0.00  0.00    +0.000 C 
ATOM     28  C   UNL     1      -5.875  -2.060 122.320  0.00  0.00    +0.000 C 
ENDBRANCH  22  26
ENDBRANCH  20  22
ENDBRANCH  19  20
ENDBRANCH   7  19
BRANCH   8  29
ATOM     29  C   UNL     1      -5.368  -3.206 129.190  0.00  0.00    +0.000 C 
BRANCH  29  30
ATOM     30  C   UNL     1      -5.912  -3.420 130.638  0.00  0.00    +0.000 C 
ATOM     31  C   UNL     1      -7.412  -3.184 130.962  0.00  0.00    +0.000 C 
ATOM     32  C   UNL     1      -5.567  -4.826 131.112  0.00  0.00    +0.000 C 
ENDBRANCH  29  30
ENDBRANCH   8  29
TORSDOF 9
ENDMDL
