MODEL 1
REMARK VINA RESULT:      -7.5      0.000      0.000
REMARK  Name = Valdecoxib
REMARK  5 active torsions:
REMARK  status: ('A' for Active; 'I' for Inactive)
REMARK    1  A    between atoms: C_1  and  C_2
REMARK    2  A    between atoms: C_3  and  C_13
REMARK    3  A    between atoms: C_4  and  C_7
REMARK    4  A    between atoms: C_16  and  S_19
REMARK    5  A    between atoms: S_19  and  N_20
REMARK                            x       y       z     vdW  Elec       q    Type
REMARK                         _______ _______ _______ _____ _____    ______ ____
ROOT
ATOM      1  C   UNL     1      -5.194   1.983 127.377  0.00  0.00    +0.000 C 
ATOM      2  C   UNL     1      -5.490   2.597 126.070  0.00  0.00    +0.000 A 
ATOM      3  C   UNL     1      -6.180   2.207 124.947  0.00  0.00    +0.000 A 
ATOM      4  C   UNL     1      -6.066   3.314 124.061  0.00  0.00    +0.000 A 
ATOM      5  N   UNL     1      -5.325   4.290 124.606  0.00  0.00    +0.000 NA
ATOM      6  O   UNL     1      -4.979   3.843 125.868  0.00  0.00    +0.000 OA
ENDROOT
BRANCH   4   7
ATOM      7  C   UNL     1      -6.699   3.465 122.761  0.00  0.00    +0.000 A 
ATOM      8  C   UNL     1      -5.949   3.826 121.639  0.00  0.00    +0.000 A 
ATOM      9  C   UNL     1      -6.588   4.034 120.416  0.00  0.00    +0.000 A 
ATOM     10  C   UNL     1      -7.958   3.803 120.293  0.00  0.00    +0.000 A 
ATOM     11  C   UNL     1      -8.704   3.403 121.399  0.00  0.00    +0.000 A 
ATOM     12  C   UNL     1      -8.078   3.243 122.633  0.00  0.00    +0.000 A 
ENDBRANCH   4   7
BRANCH   3  13
ATOM     13  C   UNL     1      -6.912   0.972 124.768  0.00  0.00    +0.000 A 
ATOM     14  C   UNL     1      -8.064   0.728 125.529  0.00  0.00    +0.000 A 
ATOM     15  C   UNL     1      -8.677  -0.527 125.496  0.00  0.00    +0.000 A 
ATOM     16  C   UNL     1      -8.179  -1.511 124.637  0.00  0.00    +0.000 A 
ATOM     17  C   UNL     1      -7.031  -1.278 123.875  0.00  0.00    +0.000 A 
ATOM     18  C   UNL     1      -6.396  -0.037 123.948  0.00  0.00    +0.000 A 
BRANCH  16  19
ATOM     19  S   UNL     1      -9.099  -3.012 124.404  0.00  0.00    +0.000 S 
ATOM     20  O   UNL     1      -9.913  -2.835 123.221  0.00  0.00    +0.000 OA
ATOM     21  O   UNL     1      -8.206  -4.127 124.580  0.00  0.00    +0.000 OA
BRANCH  19  22
ATOM     22  N   UNL     1     -10.122  -3.002 125.715  0.00  0.00    +0.000 NA
ATOM     23  H   UNL     1     -11.054  -2.630 125.567  0.00  0.00    +0.000 HD
ATOM     24  H   UNL     1      -9.687  -2.992 126.632  0.00  0.00    +0.000 HD
ENDBRANCH  19  22
ENDBRANCH  16  19
ENDBRANCH   3  13
TORSDOF 4
ENDMDL
MODEL 2
REMARK VINA RESULT:      -7.1      3.064      7.252
REMARK  Name = Valdecoxib
REMARK  5 active torsions:
REMARK  status: ('A' for Active; 'I' for Inactive)
REMARK    1  A    between atoms: C_1  and  C_2
REMARK    2  A    between atoms: C_3  and  C_13
REMARK    3  A    between atoms: C_4  and  C_7
REMARK    4  A    between atoms: C_16  and  S_19
REMARK    5  A    between atoms: S_19  and  N_20
REMARK                            x       y       z     vdW  Elec       q    Type
REMARK                         _______ _______ _______ _____ _____    ______ ____
ROOT
ATOM      1  C   UNL     1      -9.363  -1.513 122.527  0.00  0.00    +0.000 C 
ATOM      2  C   UNL     1      -8.781  -2.046 123.771  0.00  0.00    +0.000 A 
ATOM      3  C   UNL     1      -8.172  -1.495 124.874  0.00  0.00    +0.000 A 
ATOM      4  C   UNL     1      -7.868  -2.609 125.704  0.00  0.00    +0.000 A 
ATOM      5  N   UNL     1      -8.238  -3.757 125.118  0.00  0.00    +0.000 NA
ATOM      6  O   UNL     1      -8.822  -3.399 123.917  0.00  0.00    +0.000 OA
ENDROOT
BRANCH   4   7
ATOM      7  C   UNL     1      -7.301  -2.576 127.041  0.00  0.00    +0.000 A 
ATOM      8  C   UNL     1      -5.978  -2.174 127.246  0.00  0.00    +0.000 A 
ATOM      9  C   UNL     1      -5.432  -2.217 128.530  0.00  0.00    +0.000 A 
ATOM     10  C   UNL     1      -6.226  -2.582 129.618  0.00  0.00    +0.000 A 
ATOM     11  C   UNL     1      -7.557  -2.944 129.424  0.00  0.00    +0.000 A 
ATOM     12  C   UNL     1      -8.091  -2.951 128.138  0.00  0.00    +0.000 A 
ENDBRANCH   4   7
BRANCH   3  13
ATOM     13  C   UNL     1      -7.972  -0.085 125.135  0.00  0.00    +0.000 A 
ATOM     14  C   UNL     1      -8.915   0.625 125.891  0.00  0.00    +0.000 A 
ATOM     15  C   UNL     1      -8.827   2.015 126.001  0.00  0.00    +0.000 A 
ATOM     16  C   UNL     1      -7.745   2.681 125.419  0.00  0.00    +0.000 A 
ATOM     17  C   UNL     1      -6.800   1.983 124.663  0.00  0.00    +0.000 A 
ATOM     18  C   UNL     1      -6.920   0.600 124.518  0.00  0.00    +0.000 A 
BRANCH  16  19
ATOM     19  S   UNL     1      -7.492   4.404 125.769  0.00  0.00    +0.000 S 
ATOM     20  O   UNL     1      -8.786   5.048 125.702  0.00  0.00    +0.000 OA
ATOM     21  O   UNL     1      -6.620   4.516 126.909  0.00  0.00    +0.000 OA
BRANCH  19  22
ATOM     22  N   UNL     1      -6.620   4.905 124.444  0.00  0.00    +0.000 NA
ATOM     23  H   UNL     1      -6.532   4.247 123.677  0.00  0.00    +0.000 HD
ATOM     24  H   UNL     1      -5.928   5.630 124.602  0.00  0.00    +0.000 HD
ENDBRANCH  19  22
ENDBRANCH  16  19
ENDBRANCH   3  13
TORSDOF 4
ENDMDL
MODEL 3
REMARK VINA RESULT:      -7.1      5.452      7.406
REMARK  Name = Valdecoxib
REMARK  5 active torsions:
REMARK  status: ('A' for Active; 'I' for Inactive)
REMARK    1  A    between atoms: C_1  and  C_2
REMARK    2  A    between atoms: C_3  and  C_13
REMARK    3  A    between atoms: C_4  and  C_7
REMARK    4  A    between atoms: C_16  and  S_19
REMARK    5  A    between atoms: S_19  and  N_20
REMARK                            x       y       z     vdW  Elec       q    Type
REMARK                         _______ _______ _______ _____ _____    ______ ____
ROOT
ATOM      1  C   UNL     1      -5.609  -5.171 130.852  0.00  0.00    +0.000 C 
ATOM      2  C   UNL     1      -6.112  -3.823 131.171  0.00  0.00    +0.000 A 
ATOM      3  C   UNL     1      -6.694  -2.806 130.451  0.00  0.00    +0.000 A 
ATOM      4  C   UNL     1      -6.937  -1.786 131.411  0.00  0.00    +0.000 A 
ATOM      5  N   UNL     1      -6.495  -2.155 132.623  0.00  0.00    +0.000 NA
ATOM      6  O   UNL     1      -5.993  -3.434 132.471  0.00  0.00    +0.000 OA
ENDROOT
BRANCH   4   7
ATOM      7  C   UNL     1      -7.627  -0.526 131.196  0.00  0.00    +0.000 A 
ATOM      8  C   UNL     1      -7.166   0.387 130.243  0.00  0.00    +0.000 A 
ATOM      9  C   UNL     1      -7.802   1.621 130.101  0.00  0.00    +0.000 A 
ATOM     10  C   UNL     1      -8.944   1.911 130.848  0.00  0.00    +0.000 A 
ATOM     11  C   UNL     1      -9.432   0.988 131.770  0.00  0.00    +0.000 A 
ATOM     12  C   UNL     1      -8.770  -0.224 131.950  0.00  0.00    +0.000 A 
ENDBRANCH   4   7
BRANCH   3  13
ATOM     13  C   UNL     1      -7.039  -2.832 129.046  0.00  0.00    +0.000 A 
ATOM     14  C   UNL     1      -6.161  -2.282 128.101  0.00  0.00    +0.000 A 
ATOM     15  C   UNL     1      -6.557  -2.141 126.769  0.00  0.00    +0.000 A 
ATOM     16  C   UNL     1      -7.805  -2.627 126.370  0.00  0.00    +0.000 A 
ATOM     17  C   UNL     1      -8.688  -3.177 127.304  0.00  0.00    +0.000 A 
ATOM     18  C   UNL     1      -8.304  -3.272 128.642  0.00  0.00    +0.000 A 
BRANCH  16  19
ATOM     19  S   UNL     1      -8.208  -2.681 124.641  0.00  0.00    +0.000 S 
ATOM     20  O   UNL     1      -8.094  -1.330 124.134  0.00  0.00    +0.000 OA
ATOM     21  O   UNL     1      -7.524  -3.800 124.047  0.00  0.00    +0.000 OA
BRANCH  19  22
ATOM     22  N   UNL     1      -9.825  -3.064 124.671  0.00  0.00    +0.000 NA
ATOM     23  H   UNL     1     -10.122  -3.847 124.100  0.00  0.00    +0.000 HD
ATOM     24  H   UNL     1     -10.466  -2.317 124.920  0.00  0.00    +0.000 HD
ENDBRANCH  19  22
ENDBRANCH  16  19
ENDBRANCH   3  13
TORSDOF 4
ENDMDL
MODEL 4
REMARK VINA RESULT:      -7.0      3.048      6.587
REMARK  Name = Valdecoxib
REMARK  5 active torsions:
REMARK  status: ('A' for Active; 'I' for Inactive)
REMARK    1  A    between atoms: C_1  and  C_2
REMARK    2  A    between atoms: C_3  and  C_13
REMARK    3  A    between atoms: C_4  and  C_7
REMARK    4  A    between atoms: C_16  and  S_19
REMARK    5  A    between atoms: S_19  and  N_20
REMARK                            x       y       z     vdW  Elec       q    Type
REMARK                         _______ _______ _______ _____ _____    ______ ____
ROOT
ATOM      1  C   UNL     1     -10.240   1.637 123.912  0.00  0.00    +0.000 C 
ATOM      2  C   UNL     1      -9.483   0.396 123.669  0.00  0.00    +0.000 A 
ATOM      3  C   UNL     1      -8.213  -0.042 123.964  0.00  0.00    +0.000 A 
ATOM      4  C   UNL     1      -8.162  -1.361 123.433  0.00  0.00    +0.000 A 
ATOM      5  N   UNL     1      -9.316  -1.678 122.827  0.00  0.00    +0.000 NA
ATOM      6  O   UNL     1     -10.144  -0.582 122.990  0.00  0.00    +0.000 OA
ENDROOT
BRANCH   4   7
ATOM      7  C   UNL     1      -7.072  -2.313 123.557  0.00  0.00    +0.000 A 
ATOM      8  C   UNL     1      -7.211  -3.460 124.344  0.00  0.00    +0.000 A 
ATOM      9  C   UNL     1      -6.128  -4.325 124.505  0.00  0.00    +0.000 A 
ATOM     10  C   UNL     1      -4.936  -4.092 123.819  0.00  0.00    +0.000 A 
ATOM     11  C   UNL     1      -4.805  -2.971 123.001  0.00  0.00    +0.000 A 
ATOM     12  C   UNL     1      -5.867  -2.079 122.878  0.00  0.00    +0.000 A 
ENDBRANCH   4   7
BRANCH   3  13
ATOM     13  C   UNL     1      -7.206   0.674 124.716  0.00  0.00    +0.000 A 
ATOM     14  C   UNL     1      -6.810   0.205 125.976  0.00  0.00    +0.000 A 
ATOM     15  C   UNL     1      -5.974   0.978 126.785  0.00  0.00    +0.000 A 
ATOM     16  C   UNL     1      -5.470   2.185 126.295  0.00  0.00    +0.000 A 
ATOM     17  C   UNL     1      -5.859   2.663 125.040  0.00  0.00    +0.000 A 
ATOM     18  C   UNL     1      -6.732   1.908 124.256  0.00  0.00    +0.000 A 
BRANCH  16  19
ATOM     19  S   UNL     1      -4.214   3.043 127.212  0.00  0.00    +0.000 S 
ATOM     20  O   UNL     1      -4.299   4.441 126.849  0.00  0.00    +0.000 OA
ATOM     21  O   UNL     1      -4.251   2.584 128.576  0.00  0.00    +0.000 OA
BRANCH  19  22
ATOM     22  N   UNL     1      -2.818   2.441 126.538  0.00  0.00    +0.000 NA
ATOM     23  H   UNL     1      -2.542   1.505 126.814  0.00  0.00    +0.000 HD
ATOM     24  H   UNL     1      -2.137   3.121 126.217  0.00  0.00    +0.000 HD
ENDBRANCH  19  22
ENDBRANCH  16  19
ENDBRANCH   3  13
TORSDOF 4
ENDMDL
MODEL 5
REMARK VINA RESULT:      -7.0      7.965      9.527
REMARK  Name = Valdecoxib
REMARK  5 active torsions:
REMARK  status: ('A' for Active; 'I' for Inactive)
REMARK    1  A    between atoms: C_1  and  C_2
REMARK    2  A    between atoms: C_3  and  C_13
REMARK    3  A    between atoms: C_4  and  C_7
REMARK    4  A    between atoms: C_16  and  S_19
REMARK    5  A    between atoms: S_19  and  N_20
REMARK                            x       y       z     vdW  Elec       q    Type
REMARK                         _______ _______ _______ _____ _____    ______ ____
ROOT
ATOM      1  C   UNL     1      -8.631   4.012 134.117  0.00  0.00    +0.000 C 
ATOM      2  C   UNL     1      -7.313   4.342 133.546  0.00  0.00    +0.000 A 
ATOM      3  C   UNL     1      -6.877   4.911 132.373  0.00  0.00    +0.000 A 
ATOM      4  C   UNL     1      -5.460   4.933 132.497  0.00  0.00    +0.000 A 
ATOM      5  N   UNL     1      -5.072   4.379 133.655  0.00  0.00    +0.000 NA
ATOM      6  O   UNL     1      -6.235   4.024 134.314  0.00  0.00    +0.000 OA
ENDROOT
BRANCH   4   7
ATOM      7  C   UNL     1      -4.509   5.524 131.571  0.00  0.00    +0.000 A 
ATOM      8  C   UNL     1      -3.774   4.721 130.694  0.00  0.00    +0.000 A 
ATOM      9  C   UNL     1      -2.815   5.301 129.862  0.00  0.00    +0.000 A 
ATOM     10  C   UNL     1      -2.647   6.686 129.845  0.00  0.00    +0.000 A 
ATOM     11  C   UNL     1      -3.406   7.495 130.689  0.00  0.00    +0.000 A 
ATOM     12  C   UNL     1      -4.328   6.915 131.556  0.00  0.00    +0.000 A 
ENDBRANCH   4   7
BRANCH   3  13
ATOM     13  C   UNL     1      -7.704   5.432 131.306  0.00  0.00    +0.000 A 
ATOM     14  C   UNL     1      -8.178   6.750 131.371  0.00  0.00    +0.000 A 
ATOM     15  C   UNL     1      -9.117   7.207 130.442  0.00  0.00    +0.000 A 
ATOM     16  C   UNL     1      -9.518   6.365 129.401  0.00  0.00    +0.000 A 
ATOM     17  C   UNL     1      -9.052   5.049 129.329  0.00  0.00    +0.000 A 
ATOM     18  C   UNL     1      -8.150   4.584 130.286  0.00  0.00    +0.000 A 
BRANCH  16  19
ATOM     19  S   UNL     1     -10.510   7.021 128.082  0.00  0.00    +0.000 S 
ATOM     20  O   UNL     1     -11.839   6.469 128.232  0.00  0.00    +0.000 OA
ATOM     21  O   UNL     1     -10.256   8.434 127.979  0.00  0.00    +0.000 OA
BRANCH  19  22
ATOM     22  N   UNL     1      -9.826   6.309 126.744  0.00  0.00    +0.000 NA
ATOM     23  H   UNL     1      -9.002   5.738 126.899  0.00  0.00    +0.000 HD
ATOM     24  H   UNL     1     -10.000   6.757 125.851  0.00  0.00    +0.000 HD
ENDBRANCH  19  22
ENDBRANCH  16  19
ENDBRANCH   3  13
TORSDOF 4
ENDMDL
MODEL 6
REMARK VINA RESULT:      -6.9     10.378     13.260
REMARK  Name = Valdecoxib
REMARK  5 active torsions:
REMARK  status: ('A' for Active; 'I' for Inactive)
REMARK    1  A    between atoms: C_1  and  C_2
REMARK    2  A    between atoms: C_3  and  C_13
REMARK    3  A    between atoms: C_4  and  C_7
REMARK    4  A    between atoms: C_16  and  S_19
REMARK    5  A    between atoms: S_19  and  N_20
REMARK                            x       y       z     vdW  Elec       q    Type
REMARK                         _______ _______ _______ _____ _____    ______ ____
ROOT
ATOM      1  C   UNL     1      -1.470   7.274 136.117  0.00  0.00    +0.000 C 
ATOM      2  C   UNL     1      -1.008   8.515 135.471  0.00  0.00    +0.000 A 
ATOM      3  C   UNL     1      -0.924   8.963 134.174  0.00  0.00    +0.000 A 
ATOM      4  C   UNL     1      -0.387  10.275 134.287  0.00  0.00    +0.000 A 
ATOM      5  N   UNL     1      -0.132  10.579 135.569  0.00  0.00    +0.000 NA
ATOM      6  O   UNL     1      -0.536   9.481 136.307  0.00  0.00    +0.000 OA
ENDROOT
BRANCH   4   7
ATOM      7  C   UNL     1      -0.183  11.234 133.215  0.00  0.00    +0.000 A 
ATOM      8  C   UNL     1      -1.263  11.933 132.668  0.00  0.00    +0.000 A 
ATOM      9  C   UNL     1      -1.056  12.797 131.592  0.00  0.00    +0.000 A 
ATOM     10  C   UNL     1       0.235  13.026 131.115  0.00  0.00    +0.000 A 
ATOM     11  C   UNL     1       1.320  12.363 131.684  0.00  0.00    +0.000 A 
ATOM     12  C   UNL     1       1.111  11.462 132.725  0.00  0.00    +0.000 A 
ENDBRANCH   4   7
BRANCH   3  13
ATOM     13  C   UNL     1      -1.364   8.261 132.988  0.00  0.00    +0.000 A 
ATOM     14  C   UNL     1      -2.626   8.534 132.443  0.00  0.00    +0.000 A 
ATOM     15  C   UNL     1      -3.134   7.743 131.409  0.00  0.00    +0.000 A 
ATOM     16  C   UNL     1      -2.339   6.729 130.869  0.00  0.00    +0.000 A 
ATOM     17  C   UNL     1      -1.079   6.447 131.405  0.00  0.00    +0.000 A 
ATOM     18  C   UNL     1      -0.597   7.211 132.469  0.00  0.00    +0.000 A 
BRANCH  16  19
ATOM     19  S   UNL     1      -2.875   5.892 129.397  0.00  0.00    +0.000 S 
ATOM     20  O   UNL     1      -2.119   6.442 128.293  0.00  0.00    +0.000 OA
ATOM     21  O   UNL     1      -2.943   4.480 129.673  0.00  0.00    +0.000 OA
BRANCH  19  22
ATOM     22  N   UNL     1      -4.441   6.429 129.241  0.00  0.00    +0.000 NA
ATOM     23  H   UNL     1      -4.975   6.065 128.459  0.00  0.00    +0.000 HD
ATOM     24  H   UNL     1      -4.658   7.328 129.657  0.00  0.00    +0.000 HD
ENDBRANCH  19  22
ENDBRANCH  16  19
ENDBRANCH   3  13
TORSDOF 4
ENDMDL
MODEL 7
REMARK VINA RESULT:      -6.8      3.947      6.636
REMARK  Name = Valdecoxib
REMARK  5 active torsions:
REMARK  status: ('A' for Active; 'I' for Inactive)
REMARK    1  A    between atoms: C_1  and  C_2
REMARK    2  A    between atoms: C_3  and  C_13
REMARK    3  A    between atoms: C_4  and  C_7
REMARK    4  A    between atoms: C_16  and  S_19
REMARK    5  A    between atoms: S_19  and  N_20
REMARK                            x       y       z     vdW  Elec       q    Type
REMARK                         _______ _______ _______ _____ _____    ______ ____
ROOT
ATOM      1  C   UNL     1      -7.269  -0.391 130.818  0.00  0.00    +0.000 C 
ATOM      2  C   UNL     1      -7.562  -1.208 129.627  0.00  0.00    +0.000 A 
ATOM      3  C   UNL     1      -7.658  -0.960 128.278  0.00  0.00    +0.000 A 
ATOM      4  C   UNL     1      -7.962  -2.226 127.706  0.00  0.00    +0.000 A 
ATOM      5  N   UNL     1      -8.075  -3.165 128.657  0.00  0.00    +0.000 NA
ATOM      6  O   UNL     1      -7.809  -2.527 129.855  0.00  0.00    +0.000 OA
ENDROOT
BRANCH   4   7
ATOM      7  C   UNL     1      -8.075  -2.546 126.293  0.00  0.00    +0.000 A 
ATOM      8  C   UNL     1      -9.324  -2.790 125.715  0.00  0.00    +0.000 A 
ATOM      9  C   UNL     1      -9.404  -3.163 124.373  0.00  0.00    +0.000 A 
ATOM     10  C   UNL     1      -8.251  -3.214 123.589  0.00  0.00    +0.000 A 
ATOM     11  C   UNL     1      -7.008  -2.931 124.151  0.00  0.00    +0.000 A 
ATOM     12  C   UNL     1      -6.919  -2.607 125.502  0.00  0.00    +0.000 A 
ENDBRANCH   4   7
BRANCH   3  13
ATOM     13  C   UNL     1      -7.422   0.304 127.613  0.00  0.00    +0.000 A 
ATOM     14  C   UNL     1      -8.501   1.029 127.089  0.00  0.00    +0.000 A 
ATOM     15  C   UNL     1      -8.273   2.156 126.294  0.00  0.00    +0.000 A 
ATOM     16  C   UNL     1      -6.964   2.600 126.094  0.00  0.00    +0.000 A 
ATOM     17  C   UNL     1      -5.881   1.883 126.612  0.00  0.00    +0.000 A 
ATOM     18  C   UNL     1      -6.113   0.733 127.365  0.00  0.00    +0.000 A 
BRANCH  16  19
ATOM     19  S   UNL     1      -6.685   4.165 125.303  0.00  0.00    +0.000 S 
ATOM     20  O   UNL     1      -6.063   5.033 126.279  0.00  0.00    +0.000 OA
ATOM     21  O   UNL     1      -6.123   3.924 123.999  0.00  0.00    +0.000 OA
BRANCH  19  22
ATOM     22  N   UNL     1      -8.236   4.717 125.065  0.00  0.00    +0.000 NA
ATOM     23  H   UNL     1      -8.866   4.109 124.554  0.00  0.00    +0.000 HD
ATOM     24  H   UNL     1      -8.369   5.723 125.084  0.00  0.00    +0.000 HD
ENDBRANCH  19  22
ENDBRANCH  16  19
ENDBRANCH   3  13
TORSDOF 4
ENDMDL
MODEL 8
REMARK VINA RESULT:      -6.8      6.583      8.662
REMARK  Name = Valdecoxib
REMARK  5 active torsions:
REMARK  status: ('A' for Active; 'I' for Inactive)
REMARK    1  A    between atoms: C_1  and  C_2
REMARK    2  A    between atoms: C_3  and  C_13
REMARK    3  A    between atoms: C_4  and  C_7
REMARK    4  A    between atoms: C_16  and  S_19
REMARK    5  A    between atoms: S_19  and  N_20
REMARK                            x       y       z     vdW  Elec       q    Type
REMARK                         _______ _______ _______ _____ _____    ______ ____
ROOT
ATOM      1  C   UNL     1      -5.969  -0.910 133.820  0.00  0.00    +0.000 C 
ATOM      2  C   UNL     1      -6.330  -1.636 132.590  0.00  0.00    +0.000 A 
ATOM      3  C   UNL     1      -7.102  -1.356 131.487  0.00  0.00    +0.000 A 
ATOM      4  C   UNL     1      -6.995  -2.520 130.676  0.00  0.00    +0.000 A 
ATOM      5  N   UNL     1      -6.237  -3.451 131.273  0.00  0.00    +0.000 NA
ATOM      6  O   UNL     1      -5.812  -2.889 132.463  0.00  0.00    +0.000 OA
ENDROOT
BRANCH   4   7
ATOM      7  C   UNL     1      -7.545  -2.713 129.345  0.00  0.00    +0.000 A 
ATOM      8  C   UNL     1      -8.604  -3.599 129.131  0.00  0.00    +0.000 A 
ATOM      9  C   UNL     1      -9.070  -3.823 127.835  0.00  0.00    +0.000 A 
ATOM     10  C   UNL     1      -8.536  -3.105 126.764  0.00  0.00    +0.000 A 
ATOM     11  C   UNL     1      -7.507  -2.190 126.977  0.00  0.00    +0.000 A 
ATOM     12  C   UNL     1      -7.006  -2.001 128.263  0.00  0.00    +0.000 A 
ENDBRANCH   4   7
BRANCH   3  13
ATOM     13  C   UNL     1      -7.792  -0.114 131.208  0.00  0.00    +0.000 A 
ATOM     14  C   UNL     1      -7.166   0.873 130.435  0.00  0.00    +0.000 A 
ATOM     15  C   UNL     1      -7.744   2.139 130.307  0.00  0.00    +0.000 A 
ATOM     16  C   UNL     1      -8.990   2.386 130.889  0.00  0.00    +0.000 A 
ATOM     17  C   UNL     1      -9.622   1.408 131.663  0.00  0.00    +0.000 A 
ATOM     18  C   UNL     1      -9.017   0.161 131.825  0.00  0.00    +0.000 A 
BRANCH  16  19
ATOM     19  S   UNL     1      -9.841   3.900 130.519  0.00  0.00    +0.000 S 
ATOM     20  O   UNL     1      -9.774   4.728 131.704  0.00  0.00    +0.000 OA
ATOM     21  O   UNL     1      -9.417   4.356 129.220  0.00  0.00    +0.000 OA
BRANCH  19  22
ATOM     22  N   UNL     1     -11.414   3.387 130.361  0.00  0.00    +0.000 NA
ATOM     23  H   UNL     1     -11.715   2.635 130.971  0.00  0.00    +0.000 HD
ATOM     24  H   UNL     1     -11.858   3.550 129.463  0.00  0.00    +0.000 HD
ENDBRANCH  19  22
ENDBRANCH  16  19
ENDBRANCH   3  13
TORSDOF 4
ENDMDL
MODEL 9
REMARK VINA RESULT:      -6.8      7.772      9.348
REMARK  Name = Valdecoxib
REMARK  5 active torsions:
REMARK  status: ('A' for Active; 'I' for Inactive)
REMARK    1  A    between atoms: C_1  and  C_2
REMARK    2  A    between atoms: C_3  and  C_13
REMARK    3  A    between atoms: C_4  and  C_7
REMARK    4  A    between atoms: C_16  and  S_19
REMARK    5  A    between atoms: S_19  and  N_20
REMARK                            x       y       z     vdW  Elec       q    Type
REMARK                         _______ _______ _______ _____ _____    ______ ____
ROOT
ATOM      1  C   UNL     1      -5.583   5.585 135.145  0.00  0.00    +0.000 C 
ATOM      2  C   UNL     1      -4.688   5.453 133.982  0.00  0.00    +0.000 A 
ATOM      3  C   UNL     1      -4.867   5.392 132.620  0.00  0.00    +0.000 A 
ATOM      4  C   UNL     1      -3.550   5.274 132.095  0.00  0.00    +0.000 A 
ATOM      5  N   UNL     1      -2.644   5.230 133.083  0.00  0.00    +0.000 NA
ATOM      6  O   UNL     1      -3.358   5.357 134.260  0.00  0.00    +0.000 OA
ENDROOT
BRANCH   4   7
ATOM      7  C   UNL     1      -3.163   5.269 130.695  0.00  0.00    +0.000 A 
ATOM      8  C   UNL     1      -2.528   6.377 130.126  0.00  0.00    +0.000 A 
ATOM      9  C   UNL     1      -2.227   6.379 128.763  0.00  0.00    +0.000 A 
ATOM     10  C   UNL     1      -2.484   5.249 127.986  0.00  0.00    +0.000 A 
ATOM     11  C   UNL     1      -3.080   4.127 128.558  0.00  0.00    +0.000 A 
ATOM     12  C   UNL     1      -3.427   4.140 129.906  0.00  0.00    +0.000 A 
ENDBRANCH   4   7
BRANCH   3  13
ATOM     13  C   UNL     1      -6.122   5.505 131.908  0.00  0.00    +0.000 A 
ATOM     14  C   UNL     1      -6.552   6.756 131.446  0.00  0.00    +0.000 A 
ATOM     15  C   UNL     1      -7.837   6.909 130.917  0.00  0.00    +0.000 A 
ATOM     16  C   UNL     1      -8.658   5.787 130.778  0.00  0.00    +0.000 A 
ATOM     17  C   UNL     1      -8.239   4.535 131.236  0.00  0.00    +0.000 A 
ATOM     18  C   UNL     1      -6.973   4.398 131.806  0.00  0.00    +0.000 A 
BRANCH  16  19
ATOM     19  S   UNL     1     -10.183   5.929 129.879  0.00  0.00    +0.000 S 
ATOM     20  O   UNL     1     -10.816   4.628 129.902  0.00  0.00    +0.000 OA
ATOM     21  O   UNL     1     -10.852   7.133 130.301  0.00  0.00    +0.000 OA
BRANCH  19  22
ATOM     22  N   UNL     1      -9.650   6.193 128.326  0.00  0.00    +0.000 NA
ATOM     23  H   UNL     1     -10.140   6.897 127.786  0.00  0.00    +0.000 HD
ATOM     24  H   UNL     1      -9.159   5.427 127.877  0.00  0.00    +0.000 HD
ENDBRANCH  19  22
ENDBRANCH  16  19
ENDBRANCH   3  13
TORSDOF 4
ENDMDL
