MODEL 1
REMARK VINA RESULT:      -4.5      0.000      0.000
REMARK  Name = Valine
REMARK  6 active torsions:
REMARK  status: ('A' for Active; 'I' for Inactive)
REMARK    1  A    between atoms: CG1_1  and  CB_2
REMARK    2  A    between atoms: CB_2  and  CG2_3
REMARK    3  A    between atoms: CB_2  and  CA_4
REMARK    4  A    between atoms: CA_4  and  N_5
REMARK    5  A    between atoms: CA_4  and  C_6
REMARK    6  A    between atoms: C_6  and  O_7
REMARK                            x       y       z     vdW  Elec       q    Type
REMARK                         _______ _______ _______ _____ _____    ______ ____
ROOT
ATOM      1  CA  VAL A   1     -11.708   7.781 127.257  0.00  0.00    +0.000 C 
ENDROOT
BRANCH   1   3
ATOM      2  CG1 VAL A   1     -13.178   9.340 128.697  0.00  0.00    +0.000 C 
ATOM      3  CB  VAL A   1     -12.966   7.924 128.152  0.00  0.00    +0.000 C 
ATOM      4  CG2 VAL A   1     -13.162   6.906 129.280  0.00  0.00    +0.000 C 
ENDBRANCH   1   3
BRANCH   1   5
ATOM      5  N   VAL A   1     -11.993   6.793 126.192  0.00  0.00    +0.000 NA
ATOM      6  H1  VAL A   1     -12.828   7.011 125.658  0.00  0.00    +0.000 HD
ATOM      7  H2  VAL A   1     -11.940   5.831 126.513  0.00  0.00    +0.000 HD
ENDBRANCH   1   5
BRANCH   1   8
ATOM      8  C   VAL A   1     -10.380   7.466 127.979  0.00  0.00    +0.000 C 
ATOM      9  OXT VAL A   1      -9.860   8.194 128.817  0.00  0.00    +0.000 OA
BRANCH   8  10
ATOM     10  O   VAL A   1      -9.771   6.324 127.570  0.00  0.00    +0.000 OA
ATOM     11  H   VAL A   1     -10.374   5.559 127.590  0.00  0.00    +0.000 HD
ENDBRANCH   8  10
ENDBRANCH   1   8
TORSDOF 4
ENDMDL
MODEL 2
REMARK VINA RESULT:      -4.4      2.032      2.179
REMARK  Name = Valine
REMARK  6 active torsions:
REMARK  status: ('A' for Active; 'I' for Inactive)
REMARK    1  A    between atoms: CG1_1  and  CB_2
REMARK    2  A    between atoms: CB_2  and  CG2_3
REMARK    3  A    between atoms: CB_2  and  CA_4
REMARK    4  A    between atoms: CA_4  and  N_5
REMARK    5  A    between atoms: CA_4  and  C_6
REMARK    6  A    between atoms: C_6  and  O_7
REMARK                            x       y       z     vdW  Elec       q    Type
REMARK                         _______ _______ _______ _____ _____    ______ ____
ROOT
ATOM      1  CA  VAL A   1     -11.200   7.478 128.016  0.00  0.00    +0.000 C 
ENDROOT
BRANCH   1   3
ATOM      2  CG1 VAL A   1     -13.102   9.133 128.570  0.00  0.00    +0.000 C 
ATOM      3  CB  VAL A   1     -12.468   7.769 128.860  0.00  0.00    +0.000 C 
ATOM      4  CG2 VAL A   1     -12.386   7.553 130.374  0.00  0.00    +0.000 C 
ENDBRANCH   1   3
BRANCH   1   5
ATOM      5  N   VAL A   1     -10.156   8.466 128.373  0.00  0.00    +0.000 NA
ATOM      6  H1  VAL A   1      -9.567   8.725 127.588  0.00  0.00    +0.000 HD
ATOM      7  H2  VAL A   1      -9.648   8.224 129.217  0.00  0.00    +0.000 HD
ENDBRANCH   1   5
BRANCH   1   8
ATOM      8  C   VAL A   1     -11.395   7.389 126.487  0.00  0.00    +0.000 C 
ATOM      9  OXT VAL A   1     -10.765   8.052 125.670  0.00  0.00    +0.000 OA
BRANCH   8  10
ATOM     10  O   VAL A   1     -12.383   6.548 126.090  0.00  0.00    +0.000 OA
ATOM     11  H   VAL A   1     -12.735   6.019 126.830  0.00  0.00    +0.000 HD
ENDBRANCH   8  10
ENDBRANCH   1   8
TORSDOF 4
ENDMDL
MODEL 3
REMARK VINA RESULT:      -4.3      1.791      2.213
REMARK  Name = Valine
REMARK  6 active torsions:
REMARK  status: ('A' for Active; 'I' for Inactive)
REMARK    1  A    between atoms: CG1_1  and  CB_2
REMARK    2  A    between atoms: CB_2  and  CG2_3
REMARK    3  A    between atoms: CB_2  and  CA_4
REMARK    4  A    between atoms: CA_4  and  N_5
REMARK    5  A    between atoms: CA_4  and  C_6
REMARK    6  A    between atoms: C_6  and  O_7
REMARK                            x       y       z     vdW  Elec       q    Type
REMARK                         _______ _______ _______ _____ _____    ______ ____
ROOT
ATOM      1  CA  VAL A   1     -12.245   7.043 128.606  0.00  0.00    +0.000 C 
ENDROOT
BRANCH   1   3
ATOM      2  CG1 VAL A   1     -12.867   7.597 131.049  0.00  0.00    +0.000 C 
ATOM      3  CB  VAL A   1     -12.301   8.116 129.723  0.00  0.00    +0.000 C 
ATOM      4  CG2 VAL A   1     -12.941   9.467 129.388  0.00  0.00    +0.000 C 
ENDBRANCH   1   3
BRANCH   1   5
ATOM      5  N   VAL A   1     -12.022   5.719 129.231  0.00  0.00    +0.000 NA
ATOM      6  H1  VAL A   1     -11.746   5.004 128.565  0.00  0.00    +0.000 HD
ATOM      7  H2  VAL A   1     -12.770   5.441 129.859  0.00  0.00    +0.000 HD
ENDBRANCH   1   5
BRANCH   1   8
ATOM      8  C   VAL A   1     -11.249   7.298 127.454  0.00  0.00    +0.000 C 
ATOM      9  OXT VAL A   1     -10.274   8.036 127.534  0.00  0.00    +0.000 OA
BRANCH   8  10
ATOM     10  O   VAL A   1     -11.566   6.682 126.286  0.00  0.00    +0.000 OA
ATOM     11  H   VAL A   1     -10.787   6.280 125.860  0.00  0.00    +0.000 HD
ENDBRANCH   8  10
ENDBRANCH   1   8
TORSDOF 4
ENDMDL
MODEL 4
REMARK VINA RESULT:      -4.2      2.878      3.450
REMARK  Name = Valine
REMARK  6 active torsions:
REMARK  status: ('A' for Active; 'I' for Inactive)
REMARK    1  A    between atoms: CG1_1  and  CB_2
REMARK    2  A    between atoms: CB_2  and  CG2_3
REMARK    3  A    between atoms: CB_2  and  CA_4
REMARK    4  A    between atoms: CA_4  and  N_5
REMARK    5  A    between atoms: CA_4  and  C_6
REMARK    6  A    between atoms: C_6  and  O_7
REMARK                            x       y       z     vdW  Elec       q    Type
REMARK                         _______ _______ _______ _____ _____    ______ ____
ROOT
ATOM      1  CA  VAL A   1     -11.696   6.844 129.940  0.00  0.00    +0.000 C 
ENDROOT
BRANCH   1   3
ATOM      2  CG1 VAL A   1     -13.599   7.093 128.214  0.00  0.00    +0.000 C 
ATOM      3  CB  VAL A   1     -12.374   7.738 128.870  0.00  0.00    +0.000 C 
ATOM      4  CG2 VAL A   1     -11.484   8.362 127.790  0.00  0.00    +0.000 C 
ENDBRANCH   1   3
BRANCH   1   5
ATOM      5  N   VAL A   1     -11.544   5.478 129.389  0.00  0.00    +0.000 NA
ATOM      6  H1  VAL A   1     -10.779   4.961 129.810  0.00  0.00    +0.000 HD
ATOM      7  H2  VAL A   1     -11.561   5.451 128.374  0.00  0.00    +0.000 HD
ENDBRANCH   1   5
BRANCH   1   8
ATOM      8  C   VAL A   1     -12.355   6.820 131.336  0.00  0.00    +0.000 C 
ATOM      9  OXT VAL A   1     -13.243   7.586 131.694  0.00  0.00    +0.000 OA
BRANCH   8  10
ATOM     10  O   VAL A   1     -11.831   5.907 132.193  0.00  0.00    +0.000 OA
ATOM     11  H   VAL A   1     -10.889   6.075 132.378  0.00  0.00    +0.000 HD
ENDBRANCH   8  10
ENDBRANCH   1   8
TORSDOF 4
ENDMDL
MODEL 5
REMARK VINA RESULT:      -4.1      2.781      3.368
REMARK  Name = Valine
REMARK  6 active torsions:
REMARK  status: ('A' for Active; 'I' for Inactive)
REMARK    1  A    between atoms: CG1_1  and  CB_2
REMARK    2  A    between atoms: CB_2  and  CG2_3
REMARK    3  A    between atoms: CB_2  and  CA_4
REMARK    4  A    between atoms: CA_4  and  N_5
REMARK    5  A    between atoms: CA_4  and  C_6
REMARK    6  A    between atoms: C_6  and  O_7
REMARK                            x       y       z     vdW  Elec       q    Type
REMARK                         _______ _______ _______ _____ _____    ______ ____
ROOT
ATOM      1  CA  VAL A   1     -10.990   7.358 130.092  0.00  0.00    +0.000 C 
ENDROOT
BRANCH   1   3
ATOM      2  CG1 VAL A   1     -10.812   8.365 127.722  0.00  0.00    +0.000 C 
ATOM      3  CB  VAL A   1     -11.733   7.995 128.890  0.00  0.00    +0.000 C 
ATOM      4  CG2 VAL A   1     -12.692   9.156 129.174  0.00  0.00    +0.000 C 
ENDBRANCH   1   3
BRANCH   1   5
ATOM      5  N   VAL A   1      -9.544   7.301 129.780  0.00  0.00    +0.000 NA
ATOM      6  H1  VAL A   1      -9.344   7.415 128.792  0.00  0.00    +0.000 HD
ATOM      7  H2  VAL A   1      -9.070   6.516 130.217  0.00  0.00    +0.000 HD
ENDBRANCH   1   5
BRANCH   1   8
ATOM      8  C   VAL A   1     -11.516   5.991 130.582  0.00  0.00    +0.000 C 
ATOM      9  OXT VAL A   1     -11.528   4.971 129.901  0.00  0.00    +0.000 OA
BRANCH   8  10
ATOM     10  O   VAL A   1     -12.039   6.002 131.834  0.00  0.00    +0.000 OA
ATOM     11  H   VAL A   1     -12.075   6.900 132.210  0.00  0.00    +0.000 HD
ENDBRANCH   8  10
ENDBRANCH   1   8
TORSDOF 4
ENDMDL
MODEL 6
REMARK VINA RESULT:      -4.0      2.988      3.585
REMARK  Name = Valine
REMARK  6 active torsions:
REMARK  status: ('A' for Active; 'I' for Inactive)
REMARK    1  A    between atoms: CG1_1  and  CB_2
REMARK    2  A    between atoms: CB_2  and  CG2_3
REMARK    3  A    between atoms: CB_2  and  CA_4
REMARK    4  A    between atoms: CA_4  and  N_5
REMARK    5  A    between atoms: CA_4  and  C_6
REMARK    6  A    between atoms: C_6  and  O_7
REMARK                            x       y       z     vdW  Elec       q    Type
REMARK                         _______ _______ _______ _____ _____    ______ ____
ROOT
ATOM      1  CA  VAL A   1     -12.482   6.917 130.332  0.00  0.00    +0.000 C 
ENDROOT
BRANCH   1   3
ATOM      2  CG1 VAL A   1     -12.601   8.837 128.611  0.00  0.00    +0.000 C 
ATOM      3  CB  VAL A   1     -11.757   8.115 129.666  0.00  0.00    +0.000 C 
ATOM      4  CG2 VAL A   1     -10.343   7.885 129.123  0.00  0.00    +0.000 C 
ENDBRANCH   1   3
BRANCH   1   5
ATOM      5  N   VAL A   1     -13.190   7.403 131.539  0.00  0.00    +0.000 NA
ATOM      6  H1  VAL A   1     -13.029   6.823 132.356  0.00  0.00    +0.000 HD
ATOM      7  H2  VAL A   1     -14.165   7.627 131.368  0.00  0.00    +0.000 HD
ENDBRANCH   1   5
BRANCH   1   8
ATOM      8  C   VAL A   1     -11.618   5.676 130.645  0.00  0.00    +0.000 C 
ATOM      9  OXT VAL A   1     -11.456   4.735 129.876  0.00  0.00    +0.000 OA
BRANCH   8  10
ATOM     10  O   VAL A   1     -11.080   5.661 131.891  0.00  0.00    +0.000 OA
ATOM     11  H   VAL A   1     -11.673   6.060 132.553  0.00  0.00    +0.000 HD
ENDBRANCH   8  10
ENDBRANCH   1   8
TORSDOF 4
ENDMDL
MODEL 7
REMARK VINA RESULT:      -3.9      2.354      2.896
REMARK  Name = Valine
REMARK  6 active torsions:
REMARK  status: ('A' for Active; 'I' for Inactive)
REMARK    1  A    between atoms: CG1_1  and  CB_2
REMARK    2  A    between atoms: CB_2  and  CG2_3
REMARK    3  A    between atoms: CB_2  and  CA_4
REMARK    4  A    between atoms: CA_4  and  N_5
REMARK    5  A    between atoms: CA_4  and  C_6
REMARK    6  A    between atoms: C_6  and  O_7
REMARK                            x       y       z     vdW  Elec       q    Type
REMARK                         _______ _______ _______ _____ _____    ______ ____
ROOT
ATOM      1  CA  VAL A   1     -11.908   6.280 130.005  0.00  0.00    +0.000 C 
ENDROOT
BRANCH   1   3
ATOM      2  CG1 VAL A   1     -13.617   6.964 128.196  0.00  0.00    +0.000 C 
ATOM      3  CB  VAL A   1     -12.988   7.295 129.553  0.00  0.00    +0.000 C 
ATOM      4  CG2 VAL A   1     -12.638   8.786 129.604  0.00  0.00    +0.000 C 
ENDBRANCH   1   3
BRANCH   1   5
ATOM      5  N   VAL A   1     -12.023   6.085 131.468  0.00  0.00    +0.000 NA
ATOM      6  H1  VAL A   1     -11.766   6.909 132.002  0.00  0.00    +0.000 HD
ATOM      7  H2  VAL A   1     -11.594   5.224 131.792  0.00  0.00    +0.000 HD
ENDBRANCH   1   5
BRANCH   1   8
ATOM      8  C   VAL A   1     -10.453   6.590 129.589  0.00  0.00    +0.000 C 
ATOM      9  OXT VAL A   1      -9.986   6.351 128.481  0.00  0.00    +0.000 OA
BRANCH   8  10
ATOM     10  O   VAL A   1      -9.680   7.104 130.578  0.00  0.00    +0.000 OA
ATOM     11  H   VAL A   1      -9.419   6.429 131.231  0.00  0.00    +0.000 HD
ENDBRANCH   8  10
ENDBRANCH   1   8
TORSDOF 4
ENDMDL
MODEL 8
REMARK VINA RESULT:      -3.8      2.201      2.871
REMARK  Name = Valine
REMARK  6 active torsions:
REMARK  status: ('A' for Active; 'I' for Inactive)
REMARK    1  A    between atoms: CG1_1  and  CB_2
REMARK    2  A    between atoms: CB_2  and  CG2_3
REMARK    3  A    between atoms: CB_2  and  CA_4
REMARK    4  A    between atoms: CA_4  and  N_5
REMARK    5  A    between atoms: CA_4  and  C_6
REMARK    6  A    between atoms: C_6  and  O_7
REMARK                            x       y       z     vdW  Elec       q    Type
REMARK                         _______ _______ _______ _____ _____    ______ ____
ROOT
ATOM      1  CA  VAL A   1     -12.865   7.330 129.050  0.00  0.00    +0.000 C 
ENDROOT
BRANCH   1   3
ATOM      2  CG1 VAL A   1     -13.014   7.871 131.569  0.00  0.00    +0.000 C 
ATOM      3  CB  VAL A   1     -12.451   6.938 130.491  0.00  0.00    +0.000 C 
ATOM      4  CG2 VAL A   1     -10.966   6.676 130.765  0.00  0.00    +0.000 C 
ENDBRANCH   1   3
BRANCH   1   5
ATOM      5  N   VAL A   1     -12.228   6.387 128.101  0.00  0.00    +0.000 NA
ATOM      6  H1  VAL A   1     -12.695   5.488 128.059  0.00  0.00    +0.000 HD
ATOM      7  H2  VAL A   1     -11.220   6.332 128.208  0.00  0.00    +0.000 HD
ENDBRANCH   1   5
BRANCH   1   8
ATOM      8  C   VAL A   1     -12.621   8.798 128.637  0.00  0.00    +0.000 C 
ATOM      9  OXT VAL A   1     -13.491   9.661 128.606  0.00  0.00    +0.000 OA
BRANCH   8  10
ATOM     10  O   VAL A   1     -11.353   9.069 128.237  0.00  0.00    +0.000 OA
ATOM     11  H   VAL A   1     -10.720   8.390 128.534  0.00  0.00    +0.000 HD
ENDBRANCH   8  10
ENDBRANCH   1   8
TORSDOF 4
ENDMDL
MODEL 9
REMARK VINA RESULT:      -3.8      2.330      3.101
REMARK  Name = Valine
REMARK  6 active torsions:
REMARK  status: ('A' for Active; 'I' for Inactive)
REMARK    1  A    between atoms: CG1_1  and  CB_2
REMARK    2  A    between atoms: CB_2  and  CG2_3
REMARK    3  A    between atoms: CB_2  and  CA_4
REMARK    4  A    between atoms: CA_4  and  N_5
REMARK    5  A    between atoms: CA_4  and  C_6
REMARK    6  A    between atoms: C_6  and  O_7
REMARK                            x       y       z     vdW  Elec       q    Type
REMARK                         _______ _______ _______ _____ _____    ______ ____
ROOT
ATOM      1  CA  VAL A   1     -11.373   6.980 129.353  0.00  0.00    +0.000 C 
ENDROOT
BRANCH   1   3
ATOM      2  CG1 VAL A   1      -9.106   6.987 130.587  0.00  0.00    +0.000 C 
ATOM      3  CB  VAL A   1     -10.626   7.140 130.702  0.00  0.00    +0.000 C 
ATOM      4  CG2 VAL A   1     -11.132   6.333 131.902  0.00  0.00    +0.000 C 
ENDBRANCH   1   3
BRANCH   1   5
ATOM      5  N   VAL A   1     -11.841   5.580 129.234  0.00  0.00    +0.000 NA
ATOM      6  H1  VAL A   1     -12.680   5.392 129.772  0.00  0.00    +0.000 HD
ATOM      7  H2  VAL A   1     -11.099   4.898 129.360  0.00  0.00    +0.000 HD
ENDBRANCH   1   5
BRANCH   1   8
ATOM      8  C   VAL A   1     -10.615   7.433 128.087  0.00  0.00    +0.000 C 
ATOM      9  OXT VAL A   1     -10.040   6.672 127.317  0.00  0.00    +0.000 OA
BRANCH   8  10
ATOM     10  O   VAL A   1     -10.571   8.777 127.904  0.00  0.00    +0.000 OA
ATOM     11  H   VAL A   1      -9.702   9.076 127.579  0.00  0.00    +0.000 HD
ENDBRANCH   8  10
ENDBRANCH   1   8
TORSDOF 4
ENDMDL
