MODEL 1
REMARK VINA RESULT:      -5.0      0.000      0.000
REMARK  Name = Valproic acid
REMARK  8 active torsions:
REMARK  status: ('A' for Active; 'I' for Inactive)
REMARK    1  A    between atoms: C_1  and  C_2
REMARK    2  A    between atoms: C_2  and  C_3
REMARK    3  A    between atoms: C_3  and  C_4
REMARK    4  A    between atoms: C_4  and  C_5
REMARK    5  A    between atoms: C_4  and  C_8
REMARK    6  A    between atoms: C_5  and  C_6
REMARK    7  A    between atoms: C_6  and  C_7
REMARK    8  A    between atoms: C_8  and  O_9
REMARK                            x       y       z     vdW  Elec       q    Type
REMARK                         _______ _______ _______ _____ _____    ______ ____
ROOT
ATOM      1  C   UNL     1     -11.428   8.300 127.678  0.00  0.00    +0.000 C 
ENDROOT
BRANCH   1   2
ATOM      2  C   UNL     1     -11.282   7.162 126.648  0.00  0.00    +0.000 C 
ATOM      3  O   UNL     1     -10.204   6.681 126.348  0.00  0.00    +0.000 OA
BRANCH   2   4
ATOM      4  O   UNL     1     -12.414   6.695 126.075  0.00  0.00    +0.000 OA
ATOM      5  H   UNL     1     -12.406   5.802 125.692  0.00  0.00    +0.000 HD
ENDBRANCH   2   4
ENDBRANCH   1   2
BRANCH   1   6
ATOM      6  C   UNL     1     -12.784   8.278 128.421  0.00  0.00    +0.000 C 
BRANCH   6   8
ATOM      7  C   UNL     1     -13.208  10.235 129.999  0.00  0.00    +0.000 C 
ATOM      8  C   UNL     1     -13.445   9.631 128.643  0.00  0.00    +0.000 C 
ENDBRANCH   6   8
ENDBRANCH   1   6
BRANCH   1   9
ATOM      9  C   UNL     1     -10.188   8.250 128.615  0.00  0.00    +0.000 C 
BRANCH   9  10
ATOM     10  C   UNL     1     -10.338   7.375 129.858  0.00  0.00    +0.000 C 
ATOM     11  C   UNL     1      -9.067   7.047 130.594  0.00  0.00    +0.000 C 
ENDBRANCH   9  10
ENDBRANCH   1   9
TORSDOF 6
ENDMDL
MODEL 2
REMARK VINA RESULT:      -4.9      1.523      3.201
REMARK  Name = Valproic acid
REMARK  8 active torsions:
REMARK  status: ('A' for Active; 'I' for Inactive)
REMARK    1  A    between atoms: C_1  and  C_2
REMARK    2  A    between atoms: C_2  and  C_3
REMARK    3  A    between atoms: C_3  and  C_4
REMARK    4  A    between atoms: C_4  and  C_5
REMARK    5  A    between atoms: C_4  and  C_8
REMARK    6  A    between atoms: C_5  and  C_6
REMARK    7  A    between atoms: C_6  and  C_7
REMARK    8  A    between atoms: C_8  and  O_9
REMARK                            x       y       z     vdW  Elec       q    Type
REMARK                         _______ _______ _______ _____ _____    ______ ____
ROOT
ATOM      1  C   UNL     1     -12.642   7.778 128.251  0.00  0.00    +0.000 C 
ENDROOT
BRANCH   1   2
ATOM      2  C   UNL     1     -11.417   7.401 127.393  0.00  0.00    +0.000 C 
ATOM      3  O   UNL     1     -10.279   7.708 127.703  0.00  0.00    +0.000 OA
BRANCH   2   4
ATOM      4  O   UNL     1     -11.645   6.698 126.262  0.00  0.00    +0.000 OA
ATOM      5  H   UNL     1     -11.469   7.125 125.407  0.00  0.00    +0.000 HD
ENDBRANCH   2   4
ENDBRANCH   1   2
BRANCH   1   6
ATOM      6  C   UNL     1     -12.977   6.721 129.330  0.00  0.00    +0.000 C 
BRANCH   6   8
ATOM      7  C   UNL     1     -11.718   6.570 131.542  0.00  0.00    +0.000 C 
ATOM      8  C   UNL     1     -12.857   7.182 130.775  0.00  0.00    +0.000 C 
ENDBRANCH   6   8
ENDBRANCH   1   6
BRANCH   1   9
ATOM      9  C   UNL     1     -12.403   9.208 128.813  0.00  0.00    +0.000 C 
BRANCH   9  10
ATOM     10  C   UNL     1     -13.624  10.127 128.811  0.00  0.00    +0.000 C 
ATOM     11  C   UNL     1     -13.663  11.177 129.888  0.00  0.00    +0.000 C 
ENDBRANCH   9  10
ENDBRANCH   1   9
TORSDOF 6
ENDMDL
MODEL 3
REMARK VINA RESULT:      -4.8      2.791      4.162
REMARK  Name = Valproic acid
REMARK  8 active torsions:
REMARK  status: ('A' for Active; 'I' for Inactive)
REMARK    1  A    between atoms: C_1  and  C_2
REMARK    2  A    between atoms: C_2  and  C_3
REMARK    3  A    between atoms: C_3  and  C_4
REMARK    4  A    between atoms: C_4  and  C_5
REMARK    5  A    between atoms: C_4  and  C_8
REMARK    6  A    between atoms: C_5  and  C_6
REMARK    7  A    between atoms: C_6  and  C_7
REMARK    8  A    between atoms: C_8  and  O_9
REMARK                            x       y       z     vdW  Elec       q    Type
REMARK                         _______ _______ _______ _____ _____    ______ ____
ROOT
ATOM      1  C   UNL     1     -12.656   8.550 129.692  0.00  0.00    +0.000 C 
ENDROOT
BRANCH   1   2
ATOM      2  C   UNL     1     -13.201   9.993 129.713  0.00  0.00    +0.000 C 
ATOM      3  O   UNL     1     -13.260  10.658 130.732  0.00  0.00    +0.000 OA
BRANCH   2   4
ATOM      4  O   UNL     1     -13.617  10.516 128.539  0.00  0.00    +0.000 OA
ATOM      5  H   UNL     1     -13.020  11.112 128.058  0.00  0.00    +0.000 HD
ENDBRANCH   2   4
ENDBRANCH   1   2
BRANCH   1   6
ATOM      6  C   UNL     1     -12.852   7.807 131.034  0.00  0.00    +0.000 C 
BRANCH   6   8
ATOM      7  C   UNL     1     -10.518   6.806 130.806  0.00  0.00    +0.000 C 
ATOM      8  C   UNL     1     -11.933   6.619 131.279  0.00  0.00    +0.000 C 
ENDBRANCH   6   8
ENDBRANCH   1   6
BRANCH   1   9
ATOM      9  C   UNL     1     -13.280   7.827 128.466  0.00  0.00    +0.000 C 
BRANCH   9  10
ATOM     10  C   UNL     1     -12.289   7.373 127.396  0.00  0.00    +0.000 C 
ATOM     11  C   UNL     1     -10.984   8.122 127.343  0.00  0.00    +0.000 C 
ENDBRANCH   9  10
ENDBRANCH   1   9
TORSDOF 6
ENDMDL
MODEL 4
REMARK VINA RESULT:      -4.8      2.466      3.216
REMARK  Name = Valproic acid
REMARK  8 active torsions:
REMARK  status: ('A' for Active; 'I' for Inactive)
REMARK    1  A    between atoms: C_1  and  C_2
REMARK    2  A    between atoms: C_2  and  C_3
REMARK    3  A    between atoms: C_3  and  C_4
REMARK    4  A    between atoms: C_4  and  C_5
REMARK    5  A    between atoms: C_4  and  C_8
REMARK    6  A    between atoms: C_5  and  C_6
REMARK    7  A    between atoms: C_6  and  C_7
REMARK    8  A    between atoms: C_8  and  O_9
REMARK                            x       y       z     vdW  Elec       q    Type
REMARK                         _______ _______ _______ _____ _____    ______ ____
ROOT
ATOM      1  C   UNL     1     -12.106   7.388 129.443  0.00  0.00    +0.000 C 
ENDROOT
BRANCH   1   2
ATOM      2  C   UNL     1     -11.928   6.131 130.319  0.00  0.00    +0.000 C 
ATOM      3  O   UNL     1     -11.535   5.068 129.870  0.00  0.00    +0.000 OA
BRANCH   2   4
ATOM      4  O   UNL     1     -12.220   6.243 131.633  0.00  0.00    +0.000 OA
ATOM      5  H   UNL     1     -12.273   7.132 132.022  0.00  0.00    +0.000 HD
ENDBRANCH   2   4
ENDBRANCH   1   2
BRANCH   1   6
ATOM      6  C   UNL     1     -12.755   8.569 130.201  0.00  0.00    +0.000 C 
BRANCH   6   8
ATOM      7  C   UNL     1     -13.483  11.013 130.151  0.00  0.00    +0.000 C 
ATOM      8  C   UNL     1     -13.098   9.792 129.362  0.00  0.00    +0.000 C 
ENDBRANCH   6   8
ENDBRANCH   1   6
BRANCH   1   9
ATOM      9  C   UNL     1     -10.727   7.720 128.806  0.00  0.00    +0.000 C 
BRANCH   9  10
ATOM     10  C   UNL     1     -10.613   7.448 127.308  0.00  0.00    +0.000 C 
ATOM     11  C   UNL     1     -11.911   7.251 126.571  0.00  0.00    +0.000 C 
ENDBRANCH   9  10
ENDBRANCH   1   9
TORSDOF 6
ENDMDL
MODEL 5
REMARK VINA RESULT:      -4.8     11.653     12.722
REMARK  Name = Valproic acid
REMARK  8 active torsions:
REMARK  status: ('A' for Active; 'I' for Inactive)
REMARK    1  A    between atoms: C_1  and  C_2
REMARK    2  A    between atoms: C_2  and  C_3
REMARK    3  A    between atoms: C_3  and  C_4
REMARK    4  A    between atoms: C_4  and  C_5
REMARK    5  A    between atoms: C_4  and  C_8
REMARK    6  A    between atoms: C_5  and  C_6
REMARK    7  A    between atoms: C_6  and  C_7
REMARK    8  A    between atoms: C_8  and  O_9
REMARK                            x       y       z     vdW  Elec       q    Type
REMARK                         _______ _______ _______ _____ _____    ______ ____
ROOT
ATOM      1  C   UNL     1      -7.911  -3.312 124.397  0.00  0.00    +0.000 C 
ENDROOT
BRANCH   1   2
ATOM      2  C   UNL     1      -9.191  -2.710 123.782  0.00  0.00    +0.000 C 
ATOM      3  O   UNL     1      -9.359  -1.509 123.659  0.00  0.00    +0.000 OA
BRANCH   2   4
ATOM      4  O   UNL     1     -10.146  -3.572 123.368  0.00  0.00    +0.000 OA
ATOM      5  H   UNL     1     -10.112  -4.489 123.687  0.00  0.00    +0.000 HD
ENDBRANCH   2   4
ENDBRANCH   1   2
BRANCH   1   6
ATOM      6  C   UNL     1      -6.626  -2.915 123.634  0.00  0.00    +0.000 C 
BRANCH   6   8
ATOM      7  C   UNL     1      -4.523  -4.357 123.662  0.00  0.00    +0.000 C 
ATOM      8  C   UNL     1      -5.311  -3.258 124.319  0.00  0.00    +0.000 C 
ENDBRANCH   6   8
ENDBRANCH   1   6
BRANCH   1   9
ATOM      9  C   UNL     1      -7.894  -2.943 125.908  0.00  0.00    +0.000 C 
BRANCH   9  10
ATOM     10  C   UNL     1      -9.104  -3.416 126.712  0.00  0.00    +0.000 C 
ATOM     11  C   UNL     1      -8.821  -3.902 128.108  0.00  0.00    +0.000 C 
ENDBRANCH   9  10
ENDBRANCH   1   9
TORSDOF 6
ENDMDL
MODEL 6
REMARK VINA RESULT:      -4.7      2.275      4.266
REMARK  Name = Valproic acid
REMARK  8 active torsions:
REMARK  status: ('A' for Active; 'I' for Inactive)
REMARK    1  A    between atoms: C_1  and  C_2
REMARK    2  A    between atoms: C_2  and  C_3
REMARK    3  A    between atoms: C_3  and  C_4
REMARK    4  A    between atoms: C_4  and  C_5
REMARK    5  A    between atoms: C_4  and  C_8
REMARK    6  A    between atoms: C_5  and  C_6
REMARK    7  A    between atoms: C_6  and  C_7
REMARK    8  A    between atoms: C_8  and  O_9
REMARK                            x       y       z     vdW  Elec       q    Type
REMARK                         _______ _______ _______ _____ _____    ______ ____
ROOT
ATOM      1  C   UNL     1     -11.992   8.429 129.798  0.00  0.00    +0.000 C 
ENDROOT
BRANCH   1   2
ATOM      2  C   UNL     1     -12.946   7.256 130.103  0.00  0.00    +0.000 C 
ATOM      3  O   UNL     1     -13.391   6.528 129.233  0.00  0.00    +0.000 OA
BRANCH   2   4
ATOM      4  O   UNL     1     -13.281   7.049 131.396  0.00  0.00    +0.000 OA
ATOM      5  H   UNL     1     -13.222   7.794 132.016  0.00  0.00    +0.000 HD
ENDBRANCH   2   4
ENDBRANCH   1   2
BRANCH   1   6
ATOM      6  C   UNL     1     -10.767   8.011 128.952  0.00  0.00    +0.000 C 
BRANCH   6   8
ATOM      7  C   UNL     1     -11.326   7.314 126.564  0.00  0.00    +0.000 C 
ATOM      8  C   UNL     1     -10.814   8.391 127.478  0.00  0.00    +0.000 C 
ENDBRANCH   6   8
ENDBRANCH   1   6
BRANCH   1   9
ATOM      9  C   UNL     1     -12.836   9.576 129.174  0.00  0.00    +0.000 C 
BRANCH   9  10
ATOM     10  C   UNL     1     -13.416  10.580 130.168  0.00  0.00    +0.000 C 
ATOM     11  C   UNL     1     -13.887  11.887 129.588  0.00  0.00    +0.000 C 
ENDBRANCH   9  10
ENDBRANCH   1   9
TORSDOF 6
ENDMDL
MODEL 7
REMARK VINA RESULT:      -4.7      2.692      3.767
REMARK  Name = Valproic acid
REMARK  8 active torsions:
REMARK  status: ('A' for Active; 'I' for Inactive)
REMARK    1  A    between atoms: C_1  and  C_2
REMARK    2  A    between atoms: C_2  and  C_3
REMARK    3  A    between atoms: C_3  and  C_4
REMARK    4  A    between atoms: C_4  and  C_5
REMARK    5  A    between atoms: C_4  and  C_8
REMARK    6  A    between atoms: C_5  and  C_6
REMARK    7  A    between atoms: C_6  and  C_7
REMARK    8  A    between atoms: C_8  and  O_9
REMARK                            x       y       z     vdW  Elec       q    Type
REMARK                         _______ _______ _______ _____ _____    ______ ____
ROOT
ATOM      1  C   UNL     1     -12.631   8.553 129.074  0.00  0.00    +0.000 C 
ENDROOT
BRANCH   1   2
ATOM      2  C   UNL     1     -13.203   9.928 129.474  0.00  0.00    +0.000 C 
ATOM      3  O   UNL     1     -13.193  10.334 130.623  0.00  0.00    +0.000 OA
BRANCH   2   4
ATOM      4  O   UNL     1     -13.726  10.693 128.490  0.00  0.00    +0.000 OA
ATOM      5  H   UNL     1     -13.224  10.795 127.665  0.00  0.00    +0.000 HD
ENDBRANCH   2   4
ENDBRANCH   1   2
BRANCH   1   6
ATOM      6  C   UNL     1     -11.222   8.642 128.442  0.00  0.00    +0.000 C 
BRANCH   6   8
ATOM      7  C   UNL     1     -12.239   7.153 126.639  0.00  0.00    +0.000 C 
ATOM      8  C   UNL     1     -11.050   7.950 127.097  0.00  0.00    +0.000 C 
ENDBRANCH   6   8
ENDBRANCH   1   6
BRANCH   1   9
ATOM      9  C   UNL     1     -12.713   7.626 130.320  0.00  0.00    +0.000 C 
BRANCH   9  10
ATOM     10  C   UNL     1     -11.421   6.893 130.678  0.00  0.00    +0.000 C 
ATOM     11  C   UNL     1     -11.377   5.428 130.339  0.00  0.00    +0.000 C 
ENDBRANCH   9  10
ENDBRANCH   1   9
TORSDOF 6
ENDMDL
MODEL 8
REMARK VINA RESULT:      -4.6     11.418     12.353
REMARK  Name = Valproic acid
REMARK  8 active torsions:
REMARK  status: ('A' for Active; 'I' for Inactive)
REMARK    1  A    between atoms: C_1  and  C_2
REMARK    2  A    between atoms: C_2  and  C_3
REMARK    3  A    between atoms: C_3  and  C_4
REMARK    4  A    between atoms: C_4  and  C_5
REMARK    5  A    between atoms: C_4  and  C_8
REMARK    6  A    between atoms: C_5  and  C_6
REMARK    7  A    between atoms: C_6  and  C_7
REMARK    8  A    between atoms: C_8  and  O_9
REMARK                            x       y       z     vdW  Elec       q    Type
REMARK                         _______ _______ _______ _____ _____    ______ ____
ROOT
ATOM      1  C   UNL     1      -8.138  -2.512 124.459  0.00  0.00    +0.000 C 
ENDROOT
BRANCH   1   2
ATOM      2  C   UNL     1      -9.350  -2.409 123.510  0.00  0.00    +0.000 C 
ATOM      3  O   UNL     1      -9.617  -1.392 122.896  0.00  0.00    +0.000 OA
BRANCH   2   4
ATOM      4  O   UNL     1     -10.125  -3.507 123.371  0.00  0.00    +0.000 OA
ATOM      5  H   UNL     1      -9.708  -4.335 123.082  0.00  0.00    +0.000 HD
ENDBRANCH   2   4
ENDBRANCH   1   2
BRANCH   1   6
ATOM      6  C   UNL     1      -8.333  -3.558 125.582  0.00  0.00    +0.000 C 
BRANCH   6   8
ATOM      7  C   UNL     1      -8.997  -4.037 127.997  0.00  0.00    +0.000 C 
ATOM      8  C   UNL     1      -8.655  -3.002 126.962  0.00  0.00    +0.000 C 
ENDBRANCH   6   8
ENDBRANCH   1   6
BRANCH   1   9
ATOM      9  C   UNL     1      -6.873  -2.744 123.586  0.00  0.00    +0.000 C 
BRANCH   9  10
ATOM     10  C   UNL     1      -5.639  -3.241 124.337  0.00  0.00    +0.000 C 
ATOM     11  C   UNL     1      -4.494  -3.719 123.485  0.00  0.00    +0.000 C 
ENDBRANCH   9  10
ENDBRANCH   1   9
TORSDOF 6
ENDMDL
MODEL 9
REMARK VINA RESULT:      -4.4      2.998      4.925
REMARK  Name = Valproic acid
REMARK  8 active torsions:
REMARK  status: ('A' for Active; 'I' for Inactive)
REMARK    1  A    between atoms: C_1  and  C_2
REMARK    2  A    between atoms: C_2  and  C_3
REMARK    3  A    between atoms: C_3  and  C_4
REMARK    4  A    between atoms: C_4  and  C_5
REMARK    5  A    between atoms: C_4  and  C_8
REMARK    6  A    between atoms: C_5  and  C_6
REMARK    7  A    between atoms: C_6  and  C_7
REMARK    8  A    between atoms: C_8  and  O_9
REMARK                            x       y       z     vdW  Elec       q    Type
REMARK                         _______ _______ _______ _____ _____    ______ ____
ROOT
ATOM      1  C   UNL     1     -10.598   6.997 130.522  0.00  0.00    +0.000 C 
ENDROOT
BRANCH   1   2
ATOM      2  C   UNL     1     -11.569   6.550 131.634  0.00  0.00    +0.000 C 
ATOM      3  O   UNL     1     -12.757   6.816 131.613  0.00  0.00    +0.000 OA
BRANCH   2   4
ATOM      4  O   UNL     1     -11.053   5.832 132.656  0.00  0.00    +0.000 OA
ATOM      5  H   UNL     1     -11.040   4.864 132.582  0.00  0.00    +0.000 HD
ENDBRANCH   2   4
ENDBRANCH   1   2
BRANCH   1   6
ATOM      6  C   UNL     1      -9.826   5.821 129.880  0.00  0.00    +0.000 C 
BRANCH   6   8
ATOM      7  C   UNL     1      -7.801   6.829 131.057  0.00  0.00    +0.000 C 
ATOM      8  C   UNL     1      -8.379   5.652 130.322  0.00  0.00    +0.000 C 
ENDBRANCH   6   8
ENDBRANCH   1   6
BRANCH   1   9
ATOM      9  C   UNL     1     -11.404   7.859 129.509  0.00  0.00    +0.000 C 
BRANCH   9  10
ATOM     10  C   UNL     1     -10.601   8.410 128.332  0.00  0.00    +0.000 C 
ATOM     11  C   UNL     1     -10.991   7.902 126.970  0.00  0.00    +0.000 C 
ENDBRANCH   9  10
ENDBRANCH   1   9
TORSDOF 6
ENDMDL
