MODEL 1
REMARK VINA RESULT:      -7.9      0.000      0.000
REMARK  Name = Valsartan
REMARK  14 active torsions:
REMARK  status: ('A' for Active; 'I' for Inactive)
REMARK    1  A    between atoms: C_1  and  C_2
REMARK    2  A    between atoms: C_2  and  C_3
REMARK    3  A    between atoms: C_3  and  C_4
REMARK    4  A    between atoms: C_4  and  C_5
REMARK    5  A    between atoms: N_7  and  C_8
REMARK    6  A    between atoms: N_7  and  C_26
REMARK    7  A    between atoms: C_8  and  C_9
REMARK    8  A    between atoms: C_12  and  C_15
REMARK    9  A    between atoms: C_20  and  C_21
REMARK   10  A    between atoms: C_26  and  C_27
REMARK   11  A    between atoms: C_26  and  C_30
REMARK   12  A    between atoms: C_27  and  C_28
REMARK   13  A    between atoms: C_27  and  C_29
REMARK   14  A    between atoms: C_30  and  O_31
REMARK                            x       y       z     vdW  Elec       q    Type
REMARK                         _______ _______ _______ _____ _____    ______ ____
ROOT
ATOM      1  C   UNL     1      -7.973   5.985 132.320  0.00  0.00    +0.000 A 
ATOM      2  C   UNL     1      -7.543   6.872 131.337  0.00  0.00    +0.000 A 
ATOM      3  C   UNL     1      -6.172   7.023 131.124  0.00  0.00    +0.000 A 
ATOM      4  C   UNL     1      -5.255   6.315 131.912  0.00  0.00    +0.000 A 
ATOM      5  C   UNL     1      -5.747   5.716 133.066  0.00  0.00    +0.000 A 
ATOM      6  C   UNL     1      -7.104   5.703 133.345  0.00  0.00    +0.000 A 
ENDROOT
BRANCH   4   7
ATOM      7  C   UNL     1      -3.810   6.469 131.754  0.00  0.00    +0.000 A 
ATOM      8  C   UNL     1      -3.157   6.828 132.950  0.00  0.00    +0.000 A 
ATOM      9  C   UNL     1      -1.796   7.083 132.987  0.00  0.00    +0.000 A 
ATOM     10  C   UNL     1      -1.027   6.851 131.859  0.00  0.00    +0.000 A 
ATOM     11  C   UNL     1      -1.630   6.407 130.687  0.00  0.00    +0.000 A 
ATOM     12  C   UNL     1      -3.026   6.246 130.597  0.00  0.00    +0.000 A 
BRANCH  12  13
ATOM     13  C   UNL     1      -3.521   5.826 129.292  0.00  0.00    +0.000 A 
ATOM     14  N   UNL     1      -3.581   4.530 128.917  0.00  0.00    +0.000 NA
ATOM     15  N   UNL     1      -4.227   4.649 127.745  0.00  0.00    +0.000 N 
ATOM     16  N   UNL     1      -4.432   5.901 127.321  0.00  0.00    +0.000 NA
ATOM     17  N   UNL     1      -3.991   6.669 128.313  0.00  0.00    +0.000 NA
ATOM     18  H   UNL     1      -4.687   3.853 127.306  0.00  0.00    +0.000 HD
ENDBRANCH  12  13
ENDBRANCH   4   7
BRANCH   1  19
ATOM     19  C   UNL     1      -9.316   5.347 132.329  0.00  0.00    +0.000 C 
BRANCH  19  22
ATOM     20  C   UNL     1     -11.129   5.318 130.465  0.00  0.00    +0.000 C 
ATOM     21  O   UNL     1     -11.905   4.649 129.818  0.00  0.00    +0.000 OA
ATOM     22  N   UNL     1      -9.997   4.779 131.155  0.00  0.00    +0.000 N 
BRANCH  20  23
ATOM     23  C   UNL     1     -11.318   6.815 130.447  0.00  0.00    +0.000 C 
BRANCH  23  24
ATOM     24  C   UNL     1     -10.582   7.670 129.442  0.00  0.00    +0.000 C 
BRANCH  24  26
ATOM     25  C   UNL     1     -12.662   9.048 129.380  0.00  0.00    +0.000 C 
ATOM     26  C   UNL     1     -11.614   8.356 128.550  0.00  0.00    +0.000 C 
ENDBRANCH  24  26
ENDBRANCH  23  24
ENDBRANCH  20  23
BRANCH  22  27
ATOM     27  C   UNL     1      -9.690   3.310 130.898  0.00  0.00    +0.000 C 
BRANCH  27  28
ATOM     28  C   UNL     1      -8.334   3.157 130.078  0.00  0.00    +0.000 C 
ATOM     29  C   UNL     1      -8.186   1.795 129.381  0.00  0.00    +0.000 C 
ATOM     30  C   UNL     1      -8.129   4.182 128.951  0.00  0.00    +0.000 C 
ENDBRANCH  27  28
BRANCH  27  31
ATOM     31  C   UNL     1      -9.679   2.212 132.069  0.00  0.00    +0.000 C 
ATOM     32  O   UNL     1     -10.448   1.244 132.049  0.00  0.00    +0.000 OA
BRANCH  31  33
ATOM     33  O   UNL     1      -8.845   2.239 133.116  0.00  0.00    +0.000 OA
ATOM     34  H   UNL     1      -8.312   2.965 133.464  0.00  0.00    +0.000 HD
ENDBRANCH  31  33
ENDBRANCH  27  31
ENDBRANCH  22  27
ENDBRANCH  19  22
ENDBRANCH   1  19
TORSDOF 11
ENDMDL
MODEL 2
REMARK VINA RESULT:      -7.8      7.259     10.132
REMARK  Name = Valsartan
REMARK  14 active torsions:
REMARK  status: ('A' for Active; 'I' for Inactive)
REMARK    1  A    between atoms: C_1  and  C_2
REMARK    2  A    between atoms: C_2  and  C_3
REMARK    3  A    between atoms: C_3  and  C_4
REMARK    4  A    between atoms: C_4  and  C_5
REMARK    5  A    between atoms: N_7  and  C_8
REMARK    6  A    between atoms: N_7  and  C_26
REMARK    7  A    between atoms: C_8  and  C_9
REMARK    8  A    between atoms: C_12  and  C_15
REMARK    9  A    between atoms: C_20  and  C_21
REMARK   10  A    between atoms: C_26  and  C_27
REMARK   11  A    between atoms: C_26  and  C_30
REMARK   12  A    between atoms: C_27  and  C_28
REMARK   13  A    between atoms: C_27  and  C_29
REMARK   14  A    between atoms: C_30  and  O_31
REMARK                            x       y       z     vdW  Elec       q    Type
REMARK                         _______ _______ _______ _____ _____    ______ ____
ROOT
ATOM      1  C   UNL     1      -8.457  -2.765 126.383  0.00  0.00    +0.000 A 
ATOM      2  C   UNL     1      -9.004  -3.746 127.205  0.00  0.00    +0.000 A 
ATOM      3  C   UNL     1      -8.529  -3.864 128.512  0.00  0.00    +0.000 A 
ATOM      4  C   UNL     1      -7.500  -3.029 128.966  0.00  0.00    +0.000 A 
ATOM      5  C   UNL     1      -6.797  -2.316 128.003  0.00  0.00    +0.000 A 
ATOM      6  C   UNL     1      -7.189  -2.325 126.674  0.00  0.00    +0.000 A 
ENDROOT
BRANCH   4   7
ATOM      7  C   UNL     1      -6.942  -3.141 130.313  0.00  0.00    +0.000 A 
ATOM      8  C   UNL     1      -6.114  -4.269 130.479  0.00  0.00    +0.000 A 
ATOM      9  C   UNL     1      -5.546  -4.581 131.703  0.00  0.00    +0.000 A 
ATOM     10  C   UNL     1      -5.677  -3.697 132.761  0.00  0.00    +0.000 A 
ATOM     11  C   UNL     1      -6.413  -2.527 132.602  0.00  0.00    +0.000 A 
ATOM     12  C   UNL     1      -7.089  -2.245 131.399  0.00  0.00    +0.000 A 
BRANCH  12  13
ATOM     13  C   UNL     1      -7.862  -1.010 131.395  0.00  0.00    +0.000 A 
ATOM     14  N   UNL     1      -7.530   0.057 130.636  0.00  0.00    +0.000 NA
ATOM     15  N   UNL     1      -8.593   0.849 130.856  0.00  0.00    +0.000 N 
ATOM     16  N   UNL     1      -9.457   0.415 131.781  0.00  0.00    +0.000 NA
ATOM     17  N   UNL     1      -9.003  -0.785 132.129  0.00  0.00    +0.000 NA
ATOM     18  H   UNL     1      -8.818   1.624 130.235  0.00  0.00    +0.000 HD
ENDBRANCH  12  13
ENDBRANCH   4   7
BRANCH   1  19
ATOM     19  C   UNL     1      -9.158  -2.188 125.205  0.00  0.00    +0.000 C 
BRANCH  19  22
ATOM     20  C   UNL     1      -7.473  -0.985 123.631  0.00  0.00    +0.000 C 
ATOM     21  O   UNL     1      -6.906   0.049 123.355  0.00  0.00    +0.000 OA
ATOM     22  N   UNL     1      -8.677  -1.053 124.401  0.00  0.00    +0.000 N 
BRANCH  20  23
ATOM     23  C   UNL     1      -6.928  -2.258 123.031  0.00  0.00    +0.000 C 
BRANCH  23  24
ATOM     24  C   UNL     1      -5.439  -2.508 122.982  0.00  0.00    +0.000 C 
BRANCH  24  26
ATOM     25  C   UNL     1      -4.346  -4.694 123.483  0.00  0.00    +0.000 C 
ATOM     26  C   UNL     1      -5.086  -3.522 124.068  0.00  0.00    +0.000 C 
ENDBRANCH  24  26
ENDBRANCH  23  24
ENDBRANCH  20  23
BRANCH  22  27
ATOM     27  C   UNL     1      -9.341   0.278 124.731  0.00  0.00    +0.000 C 
BRANCH  27  28
ATOM     28  C   UNL     1      -8.289   1.280 125.383  0.00  0.00    +0.000 C 
ATOM     29  C   UNL     1      -8.584   2.760 125.088  0.00  0.00    +0.000 C 
ATOM     30  C   UNL     1      -8.183   1.214 126.915  0.00  0.00    +0.000 C 
ENDBRANCH  27  28
BRANCH  27  31
ATOM     31  C   UNL     1     -10.201   1.103 123.656  0.00  0.00    +0.000 C 
ATOM     32  O   UNL     1      -9.703   1.484 122.590  0.00  0.00    +0.000 OA
BRANCH  31  33
ATOM     33  O   UNL     1     -11.495   1.414 123.809  0.00  0.00    +0.000 OA
ATOM     34  H   UNL     1     -11.932   1.917 124.508  0.00  0.00    +0.000 HD
ENDBRANCH  31  33
ENDBRANCH  27  31
ENDBRANCH  22  27
ENDBRANCH  19  22
ENDBRANCH   1  19
TORSDOF 11
ENDMDL
MODEL 3
REMARK VINA RESULT:      -7.5      7.403      9.848
REMARK  Name = Valsartan
REMARK  14 active torsions:
REMARK  status: ('A' for Active; 'I' for Inactive)
REMARK    1  A    between atoms: C_1  and  C_2
REMARK    2  A    between atoms: C_2  and  C_3
REMARK    3  A    between atoms: C_3  and  C_4
REMARK    4  A    between atoms: C_4  and  C_5
REMARK    5  A    between atoms: N_7  and  C_8
REMARK    6  A    between atoms: N_7  and  C_26
REMARK    7  A    between atoms: C_8  and  C_9
REMARK    8  A    between atoms: C_12  and  C_15
REMARK    9  A    between atoms: C_20  and  C_21
REMARK   10  A    between atoms: C_26  and  C_27
REMARK   11  A    between atoms: C_26  and  C_30
REMARK   12  A    between atoms: C_27  and  C_28
REMARK   13  A    between atoms: C_27  and  C_29
REMARK   14  A    between atoms: C_30  and  O_31
REMARK                            x       y       z     vdW  Elec       q    Type
REMARK                         _______ _______ _______ _____ _____    ______ ____
ROOT
ATOM      1  C   UNL     1      -8.289  -2.312 127.094  0.00  0.00    +0.000 A 
ATOM      2  C   UNL     1      -8.446  -3.501 127.799  0.00  0.00    +0.000 A 
ATOM      3  C   UNL     1      -7.990  -3.563 129.117  0.00  0.00    +0.000 A 
ATOM      4  C   UNL     1      -7.359  -2.455 129.696  0.00  0.00    +0.000 A 
ATOM      5  C   UNL     1      -6.954  -1.441 128.837  0.00  0.00    +0.000 A 
ATOM      6  C   UNL     1      -7.285  -1.464 127.492  0.00  0.00    +0.000 A 
ENDROOT
BRANCH   4   7
ATOM      7  C   UNL     1      -6.829  -2.484 131.059  0.00  0.00    +0.000 A 
ATOM      8  C   UNL     1      -7.833  -2.433 132.045  0.00  0.00    +0.000 A 
ATOM      9  C   UNL     1      -7.525  -2.385 133.395  0.00  0.00    +0.000 A 
ATOM     10  C   UNL     1      -6.208  -2.527 133.800  0.00  0.00    +0.000 A 
ATOM     11  C   UNL     1      -5.201  -2.672 132.850  0.00  0.00    +0.000 A 
ATOM     12  C   UNL     1      -5.481  -2.614 131.472  0.00  0.00    +0.000 A 
BRANCH  12  13
ATOM     13  C   UNL     1      -4.322  -2.728 130.596  0.00  0.00    +0.000 A 
ATOM     14  N   UNL     1      -3.471  -1.703 130.374  0.00  0.00    +0.000 NA
ATOM     15  N   UNL     1      -2.524  -2.328 129.654  0.00  0.00    +0.000 N 
ATOM     16  N   UNL     1      -2.799  -3.591 129.308  0.00  0.00    +0.000 NA
ATOM     17  N   UNL     1      -3.950  -3.864 129.916  0.00  0.00    +0.000 NA
ATOM     18  H   UNL     1      -1.592  -1.933 129.541  0.00  0.00    +0.000 HD
ENDBRANCH  12  13
ENDBRANCH   4   7
BRANCH   1  19
ATOM     19  C   UNL     1      -9.130  -1.922 125.930  0.00  0.00    +0.000 C 
BRANCH  19  22
ATOM     20  C   UNL     1      -7.589  -1.080 124.013  0.00  0.00    +0.000 C 
ATOM     21  O   UNL     1      -7.064  -0.126 123.481  0.00  0.00    +0.000 OA
ATOM     22  N   UNL     1      -8.732  -0.985 124.869  0.00  0.00    +0.000 N 
BRANCH  20  23
ATOM     23  C   UNL     1      -7.064  -2.449 123.660  0.00  0.00    +0.000 C 
BRANCH  23  24
ATOM     24  C   UNL     1      -5.886  -3.035 124.403  0.00  0.00    +0.000 C 
BRANCH  24  26
ATOM     25  C   UNL     1      -4.186  -4.652 123.553  0.00  0.00    +0.000 C 
ATOM     26  C   UNL     1      -4.755  -3.267 123.403  0.00  0.00    +0.000 C 
ENDBRANCH  24  26
ENDBRANCH  23  24
ENDBRANCH  20  23
BRANCH  22  27
ATOM     27  C   UNL     1      -9.396   0.383 124.955  0.00  0.00    +0.000 C 
BRANCH  27  28
ATOM     28  C   UNL     1      -8.328   1.500 125.340  0.00  0.00    +0.000 C 
ATOM     29  C   UNL     1      -8.647   2.885 124.755  0.00  0.00    +0.000 C 
ATOM     30  C   UNL     1      -8.158   1.754 126.846  0.00  0.00    +0.000 C 
ENDBRANCH  27  28
BRANCH  27  31
ATOM     31  C   UNL     1     -10.317   0.972 123.780  0.00  0.00    +0.000 C 
ATOM     32  O   UNL     1      -9.896   1.068 122.621  0.00  0.00    +0.000 OA
BRANCH  31  33
ATOM     33  O   UNL     1     -11.585   1.371 123.947  0.00  0.00    +0.000 OA
ATOM     34  H   UNL     1     -12.008   1.782 124.712  0.00  0.00    +0.000 HD
ENDBRANCH  31  33
ENDBRANCH  27  31
ENDBRANCH  22  27
ENDBRANCH  19  22
ENDBRANCH   1  19
TORSDOF 11
ENDMDL
MODEL 4
REMARK VINA RESULT:      -7.5      7.052      9.574
REMARK  Name = Valsartan
REMARK  14 active torsions:
REMARK  status: ('A' for Active; 'I' for Inactive)
REMARK    1  A    between atoms: C_1  and  C_2
REMARK    2  A    between atoms: C_2  and  C_3
REMARK    3  A    between atoms: C_3  and  C_4
REMARK    4  A    between atoms: C_4  and  C_5
REMARK    5  A    between atoms: N_7  and  C_8
REMARK    6  A    between atoms: N_7  and  C_26
REMARK    7  A    between atoms: C_8  and  C_9
REMARK    8  A    between atoms: C_12  and  C_15
REMARK    9  A    between atoms: C_20  and  C_21
REMARK   10  A    between atoms: C_26  and  C_27
REMARK   11  A    between atoms: C_26  and  C_30
REMARK   12  A    between atoms: C_27  and  C_28
REMARK   13  A    between atoms: C_27  and  C_29
REMARK   14  A    between atoms: C_30  and  O_31
REMARK                            x       y       z     vdW  Elec       q    Type
REMARK                         _______ _______ _______ _____ _____    ______ ____
ROOT
ATOM      1  C   UNL     1      -7.856  -2.089 127.233  0.00  0.00    +0.000 A 
ATOM      2  C   UNL     1      -8.475  -3.171 127.854  0.00  0.00    +0.000 A 
ATOM      3  C   UNL     1      -7.999  -3.590 129.098  0.00  0.00    +0.000 A 
ATOM      4  C   UNL     1      -6.901  -2.948 129.685  0.00  0.00    +0.000 A 
ATOM      5  C   UNL     1      -6.150  -2.112 128.868  0.00  0.00    +0.000 A 
ATOM      6  C   UNL     1      -6.554  -1.819 127.575  0.00  0.00    +0.000 A 
ENDROOT
BRANCH   4   7
ATOM      7  C   UNL     1      -6.342  -3.376 130.966  0.00  0.00    +0.000 A 
ATOM      8  C   UNL     1      -5.797  -4.674 130.928  0.00  0.00    +0.000 A 
ATOM      9  C   UNL     1      -5.279  -5.279 132.061  0.00  0.00    +0.000 A 
ATOM     10  C   UNL     1      -5.164  -4.549 133.233  0.00  0.00    +0.000 A 
ATOM     11  C   UNL     1      -5.609  -3.232 133.276  0.00  0.00    +0.000 A 
ATOM     12  C   UNL     1      -6.238  -2.634 132.168  0.00  0.00    +0.000 A 
BRANCH  12  13
ATOM     13  C   UNL     1      -6.699  -1.267 132.376  0.00  0.00    +0.000 A 
ATOM     14  N   UNL     1      -5.902  -0.192 132.191  0.00  0.00    +0.000 NA
ATOM     15  N   UNL     1      -6.796   0.799 132.350  0.00  0.00    +0.000 N 
ATOM     16  N   UNL     1      -8.016   0.421 132.748  0.00  0.00    +0.000 NA
ATOM     17  N   UNL     1      -7.970  -0.908 132.760  0.00  0.00    +0.000 NA
ATOM     18  H   UNL     1      -6.611   1.743 132.013  0.00  0.00    +0.000 HD
ENDBRANCH  12  13
ENDBRANCH   4   7
BRANCH   1  19
ATOM     19  C   UNL     1      -8.519  -1.231 126.215  0.00  0.00    +0.000 C 
BRANCH  19  22
ATOM     20  C   UNL     1      -7.710   0.480 124.432  0.00  0.00    +0.000 C 
ATOM     21  O   UNL     1      -7.652   0.765 123.255  0.00  0.00    +0.000 OA
ATOM     22  N   UNL     1      -7.938  -0.846 124.919  0.00  0.00    +0.000 N 
BRANCH  20  23
ATOM     23  C   UNL     1      -7.418   1.575 125.428  0.00  0.00    +0.000 C 
BRANCH  23  24
ATOM     24  C   UNL     1      -6.077   2.270 125.434  0.00  0.00    +0.000 C 
BRANCH  24  26
ATOM     25  C   UNL     1      -4.133   2.325 126.998  0.00  0.00    +0.000 C 
ATOM     26  C   UNL     1      -5.108   1.438 126.272  0.00  0.00    +0.000 C 
ENDBRANCH  24  26
ENDBRANCH  23  24
ENDBRANCH  20  23
BRANCH  22  27
ATOM     27  C   UNL     1      -7.934  -1.956 123.877  0.00  0.00    +0.000 C 
BRANCH  27  28
ATOM     28  C   UNL     1      -6.447  -2.443 123.584  0.00  0.00    +0.000 C 
ATOM     29  C   UNL     1      -5.955  -2.104 122.167  0.00  0.00    +0.000 C 
ATOM     30  C   UNL     1      -5.369  -1.854 124.509  0.00  0.00    +0.000 C 
ENDBRANCH  27  28
BRANCH  27  31
ATOM     31  C   UNL     1      -8.860  -3.261 124.000  0.00  0.00    +0.000 C 
ATOM     32  O   UNL     1      -8.450  -4.290 124.550  0.00  0.00    +0.000 OA
BRANCH  31  33
ATOM     33  O   UNL     1     -10.123  -3.331 123.558  0.00  0.00    +0.000 OA
ATOM     34  H   UNL     1     -10.481  -3.144 122.681  0.00  0.00    +0.000 HD
ENDBRANCH  31  33
ENDBRANCH  27  31
ENDBRANCH  22  27
ENDBRANCH  19  22
ENDBRANCH   1  19
TORSDOF 11
ENDMDL
MODEL 5
REMARK VINA RESULT:      -7.4      5.909      9.137
REMARK  Name = Valsartan
REMARK  14 active torsions:
REMARK  status: ('A' for Active; 'I' for Inactive)
REMARK    1  A    between atoms: C_1  and  C_2
REMARK    2  A    between atoms: C_2  and  C_3
REMARK    3  A    between atoms: C_3  and  C_4
REMARK    4  A    between atoms: C_4  and  C_5
REMARK    5  A    between atoms: N_7  and  C_8
REMARK    6  A    between atoms: N_7  and  C_26
REMARK    7  A    between atoms: C_8  and  C_9
REMARK    8  A    between atoms: C_12  and  C_15
REMARK    9  A    between atoms: C_20  and  C_21
REMARK   10  A    between atoms: C_26  and  C_27
REMARK   11  A    between atoms: C_26  and  C_30
REMARK   12  A    between atoms: C_27  and  C_28
REMARK   13  A    between atoms: C_27  and  C_29
REMARK   14  A    between atoms: C_30  and  O_31
REMARK                            x       y       z     vdW  Elec       q    Type
REMARK                         _______ _______ _______ _____ _____    ______ ____
ROOT
ATOM      1  C   UNL     1      -6.314   0.038 128.717  0.00  0.00    +0.000 A 
ATOM      2  C   UNL     1      -7.617   0.433 128.428  0.00  0.00    +0.000 A 
ATOM      3  C   UNL     1      -8.246  -0.106 127.304  0.00  0.00    +0.000 A 
ATOM      4  C   UNL     1      -7.559  -1.001 126.474  0.00  0.00    +0.000 A 
ATOM      5  C   UNL     1      -6.182  -1.086 126.643  0.00  0.00    +0.000 A 
ATOM      6  C   UNL     1      -5.543  -0.422 127.677  0.00  0.00    +0.000 A 
ENDROOT
BRANCH   4   7
ATOM      7  C   UNL     1      -8.161  -1.561 125.265  0.00  0.00    +0.000 A 
ATOM      8  C   UNL     1      -8.490  -2.925 125.391  0.00  0.00    +0.000 A 
ATOM      9  C   UNL     1      -9.009  -3.649 124.330  0.00  0.00    +0.000 A 
ATOM     10  C   UNL     1      -9.344  -2.995 123.156  0.00  0.00    +0.000 A 
ATOM     11  C   UNL     1      -9.116  -1.627 123.034  0.00  0.00    +0.000 A 
ATOM     12  C   UNL     1      -8.489  -0.895 124.060  0.00  0.00    +0.000 A 
BRANCH  12  13
ATOM     13  C   UNL     1      -8.268   0.516 123.771  0.00  0.00    +0.000 A 
ATOM     14  N   UNL     1      -7.081   0.996 123.338  0.00  0.00    +0.000 NA
ATOM     15  N   UNL     1      -7.418   2.270 123.078  0.00  0.00    +0.000 N 
ATOM     16  N   UNL     1      -8.653   2.630 123.446  0.00  0.00    +0.000 NA
ATOM     17  N   UNL     1      -9.214   1.507 123.885  0.00  0.00    +0.000 NA
ATOM     18  H   UNL     1      -6.844   2.862 122.479  0.00  0.00    +0.000 HD
ENDBRANCH  12  13
ENDBRANCH   4   7
BRANCH   1  19
ATOM     19  C   UNL     1      -5.711   0.105 130.075  0.00  0.00    +0.000 C 
BRANCH  19  22
ATOM     20  C   UNL     1      -6.649  -0.539 132.413  0.00  0.00    +0.000 C 
ATOM     21  O   UNL     1      -6.480  -1.174 133.432  0.00  0.00    +0.000 OA
ATOM     22  N   UNL     1      -5.990  -0.830 131.176  0.00  0.00    +0.000 N 
BRANCH  20  23
ATOM     23  C   UNL     1      -7.693   0.549 132.436  0.00  0.00    +0.000 C 
BRANCH  23  24
ATOM     24  C   UNL     1      -9.081   0.294 131.898  0.00  0.00    +0.000 C 
BRANCH  24  26
ATOM     25  C   UNL     1      -9.336   2.544 132.946  0.00  0.00    +0.000 C 
ATOM     26  C   UNL     1      -9.836   1.621 131.868  0.00  0.00    +0.000 C 
ENDBRANCH  24  26
ENDBRANCH  23  24
ENDBRANCH  20  23
BRANCH  22  27
ATOM     27  C   UNL     1      -5.173  -2.115 131.135  0.00  0.00    +0.000 C 
BRANCH  27  28
ATOM     28  C   UNL     1      -5.884  -3.200 130.212  0.00  0.00    +0.000 C 
ATOM     29  C   UNL     1      -5.555  -4.651 130.602  0.00  0.00    +0.000 C 
ATOM     30  C   UNL     1      -7.420  -3.150 130.204  0.00  0.00    +0.000 C 
ENDBRANCH  27  28
BRANCH  27  31
ATOM     31  C   UNL     1      -3.606  -2.130 130.790  0.00  0.00    +0.000 C 
ATOM     32  O   UNL     1      -2.751  -2.069 131.682  0.00  0.00    +0.000 OA
BRANCH  31  33
ATOM     33  O   UNL     1      -3.110  -2.236 129.550  0.00  0.00    +0.000 OA
ATOM     34  H   UNL     1      -2.555  -1.623 129.052  0.00  0.00    +0.000 HD
ENDBRANCH  31  33
ENDBRANCH  27  31
ENDBRANCH  22  27
ENDBRANCH  19  22
ENDBRANCH   1  19
TORSDOF 11
ENDMDL
MODEL 6
REMARK VINA RESULT:      -7.4      6.247      9.413
REMARK  Name = Valsartan
REMARK  14 active torsions:
REMARK  status: ('A' for Active; 'I' for Inactive)
REMARK    1  A    between atoms: C_1  and  C_2
REMARK    2  A    between atoms: C_2  and  C_3
REMARK    3  A    between atoms: C_3  and  C_4
REMARK    4  A    between atoms: C_4  and  C_5
REMARK    5  A    between atoms: N_7  and  C_8
REMARK    6  A    between atoms: N_7  and  C_26
REMARK    7  A    between atoms: C_8  and  C_9
REMARK    8  A    between atoms: C_12  and  C_15
REMARK    9  A    between atoms: C_20  and  C_21
REMARK   10  A    between atoms: C_26  and  C_27
REMARK   11  A    between atoms: C_26  and  C_30
REMARK   12  A    between atoms: C_27  and  C_28
REMARK   13  A    between atoms: C_27  and  C_29
REMARK   14  A    between atoms: C_30  and  O_31
REMARK                            x       y       z     vdW  Elec       q    Type
REMARK                         _______ _______ _______ _____ _____    ______ ____
ROOT
ATOM      1  C   UNL     1      -7.235  -2.977 129.288  0.00  0.00    +0.000 A 
ATOM      2  C   UNL     1      -5.939  -2.691 128.868  0.00  0.00    +0.000 A 
ATOM      3  C   UNL     1      -5.721  -2.395 127.521  0.00  0.00    +0.000 A 
ATOM      4  C   UNL     1      -6.788  -2.420 126.614  0.00  0.00    +0.000 A 
ATOM      5  C   UNL     1      -7.964  -3.025 127.041  0.00  0.00    +0.000 A 
ATOM      6  C   UNL     1      -8.117  -3.454 128.350  0.00  0.00    +0.000 A 
ENDROOT
BRANCH   4   7
ATOM      7  C   UNL     1      -6.604  -2.157 125.187  0.00  0.00    +0.000 A 
ATOM      8  C   UNL     1      -5.666  -3.016 124.581  0.00  0.00    +0.000 A 
ATOM      9  C   UNL     1      -5.309  -2.879 123.250  0.00  0.00    +0.000 A 
ATOM     10  C   UNL     1      -5.983  -1.970 122.452  0.00  0.00    +0.000 A 
ATOM     11  C   UNL     1      -6.980  -1.170 123.001  0.00  0.00    +0.000 A 
ATOM     12  C   UNL     1      -7.283  -1.216 124.376  0.00  0.00    +0.000 A 
BRANCH  12  13
ATOM     13  C   UNL     1      -8.313  -0.285 124.818  0.00  0.00    +0.000 A 
ATOM     14  N   UNL     1      -8.121   1.051 124.856  0.00  0.00    +0.000 NA
ATOM     15  N   UNL     1      -9.361   1.463 125.170  0.00  0.00    +0.000 N 
ATOM     16  N   UNL     1     -10.238   0.495 125.458  0.00  0.00    +0.000 NA
ATOM     17  N   UNL     1      -9.578  -0.637 125.226  0.00  0.00    +0.000 NA
ATOM     18  H   UNL     1      -9.657   2.426 125.017  0.00  0.00    +0.000 HD
ENDBRANCH  12  13
ENDBRANCH   4   7
BRANCH   1  19
ATOM     19  C   UNL     1      -7.706  -2.812 130.689  0.00  0.00    +0.000 C 
BRANCH  19  22
ATOM     20  C   UNL     1      -7.240  -0.421 131.598  0.00  0.00    +0.000 C 
ATOM     21  O   UNL     1      -6.449   0.321 132.139  0.00  0.00    +0.000 OA
ATOM     22  N   UNL     1      -7.165  -1.848 131.660  0.00  0.00    +0.000 N 
BRANCH  20  23
ATOM     23  C   UNL     1      -8.426   0.210 130.911  0.00  0.00    +0.000 C 
BRANCH  23  24
ATOM     24  C   UNL     1      -8.227   1.274 129.857  0.00  0.00    +0.000 C 
BRANCH  24  26
ATOM     25  C   UNL     1      -6.548   1.120 128.017  0.00  0.00    +0.000 C 
ATOM     26  C   UNL     1      -7.853   0.587 128.545  0.00  0.00    +0.000 C 
ENDBRANCH  24  26
ENDBRANCH  23  24
ENDBRANCH  20  23
BRANCH  22  27
ATOM     27  C   UNL     1      -6.121  -2.426 132.607  0.00  0.00    +0.000 C 
BRANCH  27  28
ATOM     28  C   UNL     1      -6.195  -4.016 132.617  0.00  0.00    +0.000 C 
ATOM     29  C   UNL     1      -4.991  -4.693 131.942  0.00  0.00    +0.000 C 
ATOM     30  C   UNL     1      -6.259  -4.662 134.010  0.00  0.00    +0.000 C 
ENDBRANCH  27  28
BRANCH  27  31
ATOM     31  C   UNL     1      -4.573  -2.009 132.543  0.00  0.00    +0.000 C 
ATOM     32  O   UNL     1      -3.839  -2.110 133.534  0.00  0.00    +0.000 OA
BRANCH  31  33
ATOM     33  O   UNL     1      -3.961  -1.556 131.441  0.00  0.00    +0.000 OA
ATOM     34  H   UNL     1      -3.775  -2.008 130.608  0.00  0.00    +0.000 HD
ENDBRANCH  31  33
ENDBRANCH  27  31
ENDBRANCH  22  27
ENDBRANCH  19  22
ENDBRANCH   1  19
TORSDOF 11
ENDMDL
MODEL 7
REMARK VINA RESULT:      -7.3      5.870      9.595
REMARK  Name = Valsartan
REMARK  14 active torsions:
REMARK  status: ('A' for Active; 'I' for Inactive)
REMARK    1  A    between atoms: C_1  and  C_2
REMARK    2  A    between atoms: C_2  and  C_3
REMARK    3  A    between atoms: C_3  and  C_4
REMARK    4  A    between atoms: C_4  and  C_5
REMARK    5  A    between atoms: N_7  and  C_8
REMARK    6  A    between atoms: N_7  and  C_26
REMARK    7  A    between atoms: C_8  and  C_9
REMARK    8  A    between atoms: C_12  and  C_15
REMARK    9  A    between atoms: C_20  and  C_21
REMARK   10  A    between atoms: C_26  and  C_27
REMARK   11  A    between atoms: C_26  and  C_30
REMARK   12  A    between atoms: C_27  and  C_28
REMARK   13  A    between atoms: C_27  and  C_29
REMARK   14  A    between atoms: C_30  and  O_31
REMARK                            x       y       z     vdW  Elec       q    Type
REMARK                         _______ _______ _______ _____ _____    ______ ____
ROOT
ATOM      1  C   UNL     1      -7.538  -3.220 129.248  0.00  0.00    +0.000 A 
ATOM      2  C   UNL     1      -6.576  -2.555 128.494  0.00  0.00    +0.000 A 
ATOM      3  C   UNL     1      -6.912  -2.122 127.210  0.00  0.00    +0.000 A 
ATOM      4  C   UNL     1      -8.185  -2.386 126.689  0.00  0.00    +0.000 A 
ATOM      5  C   UNL     1      -8.960  -3.323 127.363  0.00  0.00    +0.000 A 
ATOM      6  C   UNL     1      -8.545  -3.863 128.570  0.00  0.00    +0.000 A 
ENDROOT
BRANCH   4   7
ATOM      7  C   UNL     1      -8.572  -1.989 125.336  0.00  0.00    +0.000 A 
ATOM      8  C   UNL     1      -8.941  -3.078 124.523  0.00  0.00    +0.000 A 
ATOM      9  C   UNL     1      -9.276  -2.909 123.190  0.00  0.00    +0.000 A 
ATOM     10  C   UNL     1      -9.387  -1.630 122.670  0.00  0.00    +0.000 A 
ATOM     11  C   UNL     1      -9.118  -0.528 123.475  0.00  0.00    +0.000 A 
ATOM     12  C   UNL     1      -8.670  -0.681 124.801  0.00  0.00    +0.000 A 
BRANCH  12  13
ATOM     13  C   UNL     1      -8.378   0.559 125.508  0.00  0.00    +0.000 A 
ATOM     14  N   UNL     1      -7.216   1.231 125.352  0.00  0.00    +0.000 NA
ATOM     15  N   UNL     1      -7.483   2.340 126.063  0.00  0.00    +0.000 N 
ATOM     16  N   UNL     1      -8.637   2.331 126.739  0.00  0.00    +0.000 NA
ATOM     17  N   UNL     1      -9.228   1.193 126.383  0.00  0.00    +0.000 NA
ATOM     18  H   UNL     1      -6.939   3.193 125.945  0.00  0.00    +0.000 HD
ENDBRANCH  12  13
ENDBRANCH   4   7
BRANCH   1  19
ATOM     19  C   UNL     1      -7.525  -3.287 130.733  0.00  0.00    +0.000 C 
BRANCH  19  22
ATOM     20  C   UNL     1      -6.851  -0.960 131.678  0.00  0.00    +0.000 C 
ATOM     21  O   UNL     1      -5.953  -0.248 132.072  0.00  0.00    +0.000 OA
ATOM     22  N   UNL     1      -6.769  -2.387 131.619  0.00  0.00    +0.000 N 
BRANCH  20  23
ATOM     23  C   UNL     1      -8.162  -0.298 131.334  0.00  0.00    +0.000 C 
BRANCH  23  24
ATOM     24  C   UNL     1      -8.252   0.679 130.185  0.00  0.00    +0.000 C 
BRANCH  24  26
ATOM     25  C   UNL     1      -9.634   1.670 132.011  0.00  0.00    +0.000 C 
ATOM     26  C   UNL     1      -9.012   1.914 130.663  0.00  0.00    +0.000 C 
ENDBRANCH  24  26
ENDBRANCH  23  24
ENDBRANCH  20  23
BRANCH  22  27
ATOM     27  C   UNL     1      -5.535  -3.017 132.251  0.00  0.00    +0.000 C 
BRANCH  27  28
ATOM     28  C   UNL     1      -5.912  -4.385 132.972  0.00  0.00    +0.000 C 
ATOM     29  C   UNL     1      -4.706  -5.105 133.598  0.00  0.00    +0.000 C 
ATOM     30  C   UNL     1      -6.920  -4.263 134.126  0.00  0.00    +0.000 C 
ENDBRANCH  27  28
BRANCH  27  31
ATOM     31  C   UNL     1      -4.172  -3.252 131.437  0.00  0.00    +0.000 C 
ATOM     32  O   UNL     1      -4.126  -4.020 130.468  0.00  0.00    +0.000 OA
BRANCH  31  33
ATOM     33  O   UNL     1      -3.015  -2.636 131.714  0.00  0.00    +0.000 OA
ATOM     34  H   UNL     1      -2.505  -2.619 132.534  0.00  0.00    +0.000 HD
ENDBRANCH  31  33
ENDBRANCH  27  31
ENDBRANCH  22  27
ENDBRANCH  19  22
ENDBRANCH   1  19
TORSDOF 11
ENDMDL
MODEL 8
REMARK VINA RESULT:      -7.3      5.842      9.244
REMARK  Name = Valsartan
REMARK  14 active torsions:
REMARK  status: ('A' for Active; 'I' for Inactive)
REMARK    1  A    between atoms: C_1  and  C_2
REMARK    2  A    between atoms: C_2  and  C_3
REMARK    3  A    between atoms: C_3  and  C_4
REMARK    4  A    between atoms: C_4  and  C_5
REMARK    5  A    between atoms: N_7  and  C_8
REMARK    6  A    between atoms: N_7  and  C_26
REMARK    7  A    between atoms: C_8  and  C_9
REMARK    8  A    between atoms: C_12  and  C_15
REMARK    9  A    between atoms: C_20  and  C_21
REMARK   10  A    between atoms: C_26  and  C_27
REMARK   11  A    between atoms: C_26  and  C_30
REMARK   12  A    between atoms: C_27  and  C_28
REMARK   13  A    between atoms: C_27  and  C_29
REMARK   14  A    between atoms: C_30  and  O_31
REMARK                            x       y       z     vdW  Elec       q    Type
REMARK                         _______ _______ _______ _____ _____    ______ ____
ROOT
ATOM      1  C   UNL     1      -5.667   1.561 126.127  0.00  0.00    +0.000 A 
ATOM      2  C   UNL     1      -7.041   1.644 126.335  0.00  0.00    +0.000 A 
ATOM      3  C   UNL     1      -7.710   0.527 126.836  0.00  0.00    +0.000 A 
ATOM      4  C   UNL     1      -7.010  -0.659 127.090  0.00  0.00    +0.000 A 
ATOM      5  C   UNL     1      -5.731  -0.761 126.556  0.00  0.00    +0.000 A 
ATOM      6  C   UNL     1      -5.128   0.315 125.924  0.00  0.00    +0.000 A 
ENDROOT
BRANCH   4   7
ATOM      7  C   UNL     1      -7.672  -1.868 127.576  0.00  0.00    +0.000 A 
ATOM      8  C   UNL     1      -7.612  -2.008 128.977  0.00  0.00    +0.000 A 
ATOM      9  C   UNL     1      -8.127  -3.122 129.619  0.00  0.00    +0.000 A 
ATOM     10  C   UNL     1      -8.840  -4.060 128.892  0.00  0.00    +0.000 A 
ATOM     11  C   UNL     1      -8.996  -3.903 127.519  0.00  0.00    +0.000 A 
ATOM     12  C   UNL     1      -8.388  -2.835 126.830  0.00  0.00    +0.000 A 
BRANCH  12  13
ATOM     13  C   UNL     1      -8.595  -2.827 125.388  0.00  0.00    +0.000 A 
ATOM     14  N   UNL     1      -7.614  -3.127 124.509  0.00  0.00    +0.000 NA
ATOM     15  N   UNL     1      -8.313  -3.131 123.361  0.00  0.00    +0.000 N 
ATOM     16  N   UNL     1      -9.585  -2.727 123.456  0.00  0.00    +0.000 NA
ATOM     17  N   UNL     1      -9.782  -2.537 124.758  0.00  0.00    +0.000 NA
ATOM     18  H   UNL     1      -7.957  -3.584 122.521  0.00  0.00    +0.000 HD
ENDBRANCH  12  13
ENDBRANCH   4   7
BRANCH   1  19
ATOM     19  C   UNL     1      -4.762   2.742 126.096  0.00  0.00    +0.000 C 
BRANCH  19  22
ATOM     20  C   UNL     1      -5.810   4.973 125.270  0.00  0.00    +0.000 C 
ATOM     21  O   UNL     1      -5.747   6.184 125.271  0.00  0.00    +0.000 OA
ATOM     22  N   UNL     1      -5.185   4.142 126.253  0.00  0.00    +0.000 N 
BRANCH  20  23
ATOM     23  C   UNL     1      -6.689   4.324 124.229  0.00  0.00    +0.000 C 
BRANCH  23  24
ATOM     24  C   UNL     1      -6.095   3.790 122.947  0.00  0.00    +0.000 C 
BRANCH  24  26
ATOM     25  C   UNL     1      -8.291   2.605 122.940  0.00  0.00    +0.000 C 
ATOM     26  C   UNL     1      -6.835   2.508 122.573  0.00  0.00    +0.000 C 
ENDBRANCH  24  26
ENDBRANCH  23  24
ENDBRANCH  20  23
BRANCH  22  27
ATOM     27  C   UNL     1      -4.559   4.860 127.441  0.00  0.00    +0.000 C 
BRANCH  27  28
ATOM     28  C   UNL     1      -5.206   4.353 128.805  0.00  0.00    +0.000 C 
ATOM     29  C   UNL     1      -4.828   5.213 130.022  0.00  0.00    +0.000 C 
ATOM     30  C   UNL     1      -6.742   4.317 128.829  0.00  0.00    +0.000 C 
ENDBRANCH  27  28
BRANCH  27  31
ATOM     31  C   UNL     1      -2.971   4.951 127.656  0.00  0.00    +0.000 C 
ATOM     32  O   UNL     1      -2.268   3.934 127.688  0.00  0.00    +0.000 OA
BRANCH  31  33
ATOM     33  O   UNL     1      -2.295   6.099 127.788  0.00  0.00    +0.000 OA
ATOM     34  H   UNL     1      -1.948   6.693 127.110  0.00  0.00    +0.000 HD
ENDBRANCH  31  33
ENDBRANCH  27  31
ENDBRANCH  22  27
ENDBRANCH  19  22
ENDBRANCH   1  19
TORSDOF 11
ENDMDL
MODEL 9
REMARK VINA RESULT:      -7.3      4.818      8.476
REMARK  Name = Valsartan
REMARK  14 active torsions:
REMARK  status: ('A' for Active; 'I' for Inactive)
REMARK    1  A    between atoms: C_1  and  C_2
REMARK    2  A    between atoms: C_2  and  C_3
REMARK    3  A    between atoms: C_3  and  C_4
REMARK    4  A    between atoms: C_4  and  C_5
REMARK    5  A    between atoms: N_7  and  C_8
REMARK    6  A    between atoms: N_7  and  C_26
REMARK    7  A    between atoms: C_8  and  C_9
REMARK    8  A    between atoms: C_12  and  C_15
REMARK    9  A    between atoms: C_20  and  C_21
REMARK   10  A    between atoms: C_26  and  C_27
REMARK   11  A    between atoms: C_26  and  C_30
REMARK   12  A    between atoms: C_27  and  C_28
REMARK   13  A    between atoms: C_27  and  C_29
REMARK   14  A    between atoms: C_30  and  O_31
REMARK                            x       y       z     vdW  Elec       q    Type
REMARK                         _______ _______ _______ _____ _____    ______ ____
ROOT
ATOM      1  C   UNL     1      -7.055   1.470 128.535  0.00  0.00    +0.000 A 
ATOM      2  C   UNL     1      -8.196   1.084 127.838  0.00  0.00    +0.000 A 
ATOM      3  C   UNL     1      -8.048   0.306 126.690  0.00  0.00    +0.000 A 
ATOM      4  C   UNL     1      -6.770  -0.046 126.237  0.00  0.00    +0.000 A 
ATOM      5  C   UNL     1      -5.696   0.641 126.789  0.00  0.00    +0.000 A 
ATOM      6  C   UNL     1      -5.874   1.530 127.836  0.00  0.00    +0.000 A 
ENDROOT
BRANCH   4   7
ATOM      7  C   UNL     1      -6.562  -0.826 125.018  0.00  0.00    +0.000 A 
ATOM      8  C   UNL     1      -5.593  -1.838 125.166  0.00  0.00    +0.000 A 
ATOM      9  C   UNL     1      -5.210  -2.639 124.103  0.00  0.00    +0.000 A 
ATOM     10  C   UNL     1      -5.886  -2.544 122.898  0.00  0.00    +0.000 A 
ATOM     11  C   UNL     1      -6.911  -1.615 122.749  0.00  0.00    +0.000 A 
ATOM     12  C   UNL     1      -7.243  -0.717 123.781  0.00  0.00    +0.000 A 
BRANCH  12  13
ATOM     13  C   UNL     1      -8.301   0.233 123.465  0.00  0.00    +0.000 A 
ATOM     14  N   UNL     1      -9.606  -0.116 123.420  0.00  0.00    +0.000 NA
ATOM     15  N   UNL     1     -10.171   1.091 123.249  0.00  0.00    +0.000 N 
ATOM     16  N   UNL     1      -9.322   2.106 123.049  0.00  0.00    +0.000 NA
ATOM     17  N   UNL     1      -8.114   1.568 123.195  0.00  0.00    +0.000 NA
ATOM     18  H   UNL     1     -11.158   1.250 123.444  0.00  0.00    +0.000 HD
ENDBRANCH  12  13
ENDBRANCH   4   7
BRANCH   1  19
ATOM     19  C   UNL     1      -7.049   1.837 129.976  0.00  0.00    +0.000 C 
BRANCH  19  22
ATOM     20  C   UNL     1      -8.418   0.016 131.230  0.00  0.00    +0.000 C 
ATOM     21  O   UNL     1      -9.483  -0.292 131.719  0.00  0.00    +0.000 OA
ATOM     22  N   UNL     1      -8.019   1.367 130.977  0.00  0.00    +0.000 N 
BRANCH  20  23
ATOM     23  C   UNL     1      -7.423  -1.089 130.977  0.00  0.00    +0.000 C 
BRANCH  23  24
ATOM     24  C   UNL     1      -7.859  -2.383 130.330  0.00  0.00    +0.000 C 
BRANCH  24  26
ATOM     25  C   UNL     1      -8.176  -3.169 127.984  0.00  0.00    +0.000 C 
ATOM     26  C   UNL     1      -7.255  -2.448 128.930  0.00  0.00    +0.000 C 
ENDBRANCH  24  26
ENDBRANCH  23  24
ENDBRANCH  20  23
BRANCH  22  27
ATOM     27  C   UNL     1      -8.939   2.453 131.521  0.00  0.00    +0.000 C 
BRANCH  27  28
ATOM     28  C   UNL     1      -8.241   3.227 132.724  0.00  0.00    +0.000 C 
ATOM     29  C   UNL     1      -9.236   3.824 133.732  0.00  0.00    +0.000 C 
ATOM     30  C   UNL     1      -7.291   2.380 133.586  0.00  0.00    +0.000 C 
ENDBRANCH  27  28
BRANCH  27  31
ATOM     31  C   UNL     1      -9.638   3.546 130.576  0.00  0.00    +0.000 C 
ATOM     32  O   UNL     1      -9.015   4.534 130.167  0.00  0.00    +0.000 OA
BRANCH  31  33
ATOM     33  O   UNL     1     -10.903   3.467 130.143  0.00  0.00    +0.000 OA
ATOM     34  H   UNL     1     -11.671   4.002 130.379  0.00  0.00    +0.000 HD
ENDBRANCH  31  33
ENDBRANCH  27  31
ENDBRANCH  22  27
ENDBRANCH  19  22
ENDBRANCH   1  19
TORSDOF 11
ENDMDL
