MODEL 1
REMARK VINA RESULT:      -7.8      0.000      0.000
REMARK  Name = Vandetanib
REMARK  7 active torsions:
REMARK  status: ('A' for Active; 'I' for Inactive)
REMARK    1  A    between atoms: C_1  and  O_2
REMARK    2  A    between atoms: O_2  and  C_3
REMARK    3  A    between atoms: C_4  and  O_5
REMARK    4  A    between atoms: O_5  and  C_6
REMARK    5  A    between atoms: C_6  and  C_7
REMARK    6  A    between atoms: N_10  and  C_11
REMARK    7  A    between atoms: N_20  and  C_21
REMARK                            x       y       z     vdW  Elec       q    Type
REMARK                         _______ _______ _______ _____ _____    ______ ____
ROOT
ATOM      1  C   UNL     1      -7.950   5.109 130.870  0.00  0.00    +0.000 A 
ATOM      2  C   UNL     1      -9.197   4.513 130.798  0.00  0.00    +0.000 A 
ATOM      3  C   UNL     1      -9.459   3.465 129.872  0.00  0.00    +0.000 A 
ATOM      4  C   UNL     1      -8.485   2.956 129.018  0.00  0.00    +0.000 A 
ATOM      5  N   UNL     1      -8.799   1.977 128.150  0.00  0.00    +0.000 NA
ATOM      6  C   UNL     1      -7.804   1.545 127.363  0.00  0.00    +0.000 A 
ATOM      7  N   UNL     1      -6.532   1.961 127.389  0.00  0.00    +0.000 NA
ATOM      8  C   UNL     1      -6.228   2.937 128.276  0.00  0.00    +0.000 A 
ATOM      9  N   UNL     1      -4.871   3.312 128.330  0.00  0.00    +0.000 N 
ATOM     10  C   UNL     1      -7.229   3.522 129.086  0.00  0.00    +0.000 A 
ATOM     11  C   UNL     1      -7.045   4.661 129.925  0.00  0.00    +0.000 A 
ATOM     12  H   UNL     1      -4.335   2.896 127.580  0.00  0.00    +0.000 HD
ENDROOT
BRANCH   9  13
ATOM     13  C   UNL     1      -4.188   4.186 129.202  0.00  0.00    +0.000 A 
ATOM     14  C   UNL     1      -3.693   5.444 128.785  0.00  0.00    +0.000 A 
ATOM     15  F   UNL     1      -3.974   5.898 127.553  0.00  0.00    +0.000 F 
ATOM     16  C   UNL     1      -2.762   6.156 129.542  0.00  0.00    +0.000 A 
ATOM     17  C   UNL     1      -2.364   5.654 130.774  0.00  0.00    +0.000 A 
ATOM     18 BR   UNL     1      -1.117   6.620 131.817  0.00  0.00    +0.000 Br
ATOM     19  C   UNL     1      -2.868   4.439 131.238  0.00  0.00    +0.000 A 
ATOM     20  C   UNL     1      -3.775   3.707 130.455  0.00  0.00    +0.000 A 
ENDBRANCH   9  13
BRANCH   1  22
ATOM     21  C   UNL     1      -6.292   6.914 131.181  0.00  0.00    +0.000 C 
ATOM     22  O   UNL     1      -7.499   6.224 131.538  0.00  0.00    +0.000 OA
ENDBRANCH   1  22
BRANCH   2  23
ATOM     23  O   UNL     1     -10.330   4.883 131.456  0.00  0.00    +0.000 OA
BRANCH  23  24
ATOM     24  C   UNL     1     -11.271   5.535 130.648  0.00  0.00    +0.000 C 
BRANCH  24  25
ATOM     25  C   UNL     1     -11.350   7.048 130.606  0.00  0.00    +0.000 C 
ATOM     26  C   UNL     1     -12.783   7.414 130.311  0.00  0.00    +0.000 C 
ATOM     27  C   UNL     1     -13.133   7.024 128.872  0.00  0.00    +0.000 C 
ATOM     28  N   UNL     1     -12.172   7.557 127.892  0.00  0.00    +0.000 NA
ATOM     29  C   UNL     1     -12.515   7.003 126.584  0.00  0.00    +0.000 C 
ATOM     30  C   UNL     1     -10.769   7.207 128.189  0.00  0.00    +0.000 C 
ATOM     31  C   UNL     1     -10.383   7.650 129.590  0.00  0.00    +0.000 C 
ENDBRANCH  24  25
ENDBRANCH  23  24
ENDBRANCH   2  23
TORSDOF 5
ENDMDL
MODEL 2
REMARK VINA RESULT:      -7.8      4.593      6.049
REMARK  Name = Vandetanib
REMARK  7 active torsions:
REMARK  status: ('A' for Active; 'I' for Inactive)
REMARK    1  A    between atoms: C_1  and  O_2
REMARK    2  A    between atoms: O_2  and  C_3
REMARK    3  A    between atoms: C_4  and  O_5
REMARK    4  A    between atoms: O_5  and  C_6
REMARK    5  A    between atoms: C_6  and  C_7
REMARK    6  A    between atoms: N_10  and  C_11
REMARK    7  A    between atoms: N_20  and  C_21
REMARK                            x       y       z     vdW  Elec       q    Type
REMARK                         _______ _______ _______ _____ _____    ______ ____
ROOT
ATOM      1  C   UNL     1      -8.480   2.025 128.394  0.00  0.00    +0.000 A 
ATOM      2  C   UNL     1      -8.661   2.890 129.459  0.00  0.00    +0.000 A 
ATOM      3  C   UNL     1      -8.529   2.440 130.802  0.00  0.00    +0.000 A 
ATOM      4  C   UNL     1      -8.180   1.131 131.126  0.00  0.00    +0.000 A 
ATOM      5  N   UNL     1      -8.090   0.760 132.416  0.00  0.00    +0.000 NA
ATOM      6  C   UNL     1      -7.750  -0.516 132.639  0.00  0.00    +0.000 A 
ATOM      7  N   UNL     1      -7.454  -1.435 131.712  0.00  0.00    +0.000 NA
ATOM      8  C   UNL     1      -7.537  -1.044 130.419  0.00  0.00    +0.000 A 
ATOM      9  N   UNL     1      -7.158  -2.008 129.464  0.00  0.00    +0.000 N 
ATOM     10  C   UNL     1      -7.975   0.257 130.079  0.00  0.00    +0.000 A 
ATOM     11  C   UNL     1      -8.254   0.710 128.755  0.00  0.00    +0.000 A 
ATOM     12  H   UNL     1      -7.018  -2.918 129.882  0.00  0.00    +0.000 HD
ENDROOT
BRANCH   9  13
ATOM     13  C   UNL     1      -7.003  -1.911 128.064  0.00  0.00    +0.000 A 
ATOM     14  C   UNL     1      -7.895  -2.527 127.156  0.00  0.00    +0.000 A 
ATOM     15  F   UNL     1      -9.005  -3.131 127.613  0.00  0.00    +0.000 F 
ATOM     16  C   UNL     1      -7.574  -2.696 125.809  0.00  0.00    +0.000 A 
ATOM     17  C   UNL     1      -6.378  -2.181 125.327  0.00  0.00    +0.000 A 
ATOM     18 BR   UNL     1      -5.941  -2.388 123.499  0.00  0.00    +0.000 Br
ATOM     19  C   UNL     1      -5.495  -1.525 126.187  0.00  0.00    +0.000 A 
ATOM     20  C   UNL     1      -5.805  -1.392 127.549  0.00  0.00    +0.000 A 
ENDBRANCH   9  13
BRANCH   1  22
ATOM     21  C   UNL     1      -8.762   1.050 126.141  0.00  0.00    +0.000 C 
ATOM     22  O   UNL     1      -8.712   2.165 127.044  0.00  0.00    +0.000 OA
ENDBRANCH   1  22
BRANCH   2  23
ATOM     23  O   UNL     1      -9.088   4.181 129.413  0.00  0.00    +0.000 OA
BRANCH  23  24
ATOM     24  C   UNL     1      -9.817   4.582 130.541  0.00  0.00    +0.000 C 
BRANCH  24  25
ATOM     25  C   UNL     1      -9.523   5.897 131.236  0.00  0.00    +0.000 C 
ATOM     26  C   UNL     1     -10.665   6.168 132.183  0.00  0.00    +0.000 C 
ATOM     27  C   UNL     1     -11.934   6.489 131.389  0.00  0.00    +0.000 C 
ATOM     28  N   UNL     1     -11.724   7.554 130.395  0.00  0.00    +0.000 NA
ATOM     29  C   UNL     1     -12.947   7.671 129.602  0.00  0.00    +0.000 C 
ATOM     30  C   UNL     1     -10.601   7.292 129.475  0.00  0.00    +0.000 C 
ATOM     31  C   UNL     1      -9.316   7.040 130.245  0.00  0.00    +0.000 C 
ENDBRANCH  24  25
ENDBRANCH  23  24
ENDBRANCH   2  23
TORSDOF 5
ENDMDL
MODEL 3
REMARK VINA RESULT:      -7.7      3.662      7.260
REMARK  Name = Vandetanib
REMARK  7 active torsions:
REMARK  status: ('A' for Active; 'I' for Inactive)
REMARK    1  A    between atoms: C_1  and  O_2
REMARK    2  A    between atoms: O_2  and  C_3
REMARK    3  A    between atoms: C_4  and  O_5
REMARK    4  A    between atoms: O_5  and  C_6
REMARK    5  A    between atoms: C_6  and  C_7
REMARK    6  A    between atoms: N_10  and  C_11
REMARK    7  A    between atoms: N_20  and  C_21
REMARK                            x       y       z     vdW  Elec       q    Type
REMARK                         _______ _______ _______ _____ _____    ______ ____
ROOT
ATOM      1  C   UNL     1      -7.850   3.728 128.116  0.00  0.00    +0.000 A 
ATOM      2  C   UNL     1      -7.087   2.575 128.140  0.00  0.00    +0.000 A 
ATOM      3  C   UNL     1      -6.964   1.799 129.326  0.00  0.00    +0.000 A 
ATOM      4  C   UNL     1      -7.621   2.125 130.509  0.00  0.00    +0.000 A 
ATOM      5  N   UNL     1      -7.449   1.362 131.604  0.00  0.00    +0.000 NA
ATOM      6  C   UNL     1      -8.117   1.746 132.700  0.00  0.00    +0.000 A 
ATOM      7  N   UNL     1      -8.962   2.781 132.796  0.00  0.00    +0.000 NA
ATOM      8  C   UNL     1      -9.134   3.530 131.683  0.00  0.00    +0.000 A 
ATOM      9  N   UNL     1     -10.076   4.573 131.789  0.00  0.00    +0.000 N 
ATOM     10  C   UNL     1      -8.404   3.260 130.502  0.00  0.00    +0.000 A 
ATOM     11  C   UNL     1      -8.389   4.085 129.338  0.00  0.00    +0.000 A 
ATOM     12  H   UNL     1     -10.385   4.706 132.743  0.00  0.00    +0.000 HD
ENDROOT
BRANCH   9  13
ATOM     13  C   UNL     1     -10.591   5.456 130.816  0.00  0.00    +0.000 A 
ATOM     14  C   UNL     1     -10.052   6.744 130.596  0.00  0.00    +0.000 A 
ATOM     15  F   UNL     1      -8.934   7.120 131.239  0.00  0.00    +0.000 F 
ATOM     16  C   UNL     1     -10.741   7.718 129.872  0.00  0.00    +0.000 A 
ATOM     17  C   UNL     1     -11.958   7.393 129.288  0.00  0.00    +0.000 A 
ATOM     18 BR   UNL     1     -12.893   8.699 128.290  0.00  0.00    +0.000 Br
ATOM     19  C   UNL     1     -12.498   6.115 129.446  0.00  0.00    +0.000 A 
ATOM     20  C   UNL     1     -11.819   5.152 130.207  0.00  0.00    +0.000 A 
ENDBRANCH   9  13
BRANCH   1  22
ATOM     21  C   UNL     1      -8.144   4.452 125.772  0.00  0.00    +0.000 C 
ATOM     22  O   UNL     1      -7.990   4.722 127.173  0.00  0.00    +0.000 OA
ENDBRANCH   1  22
BRANCH   2  23
ATOM     23  O   UNL     1      -6.284   2.093 127.152  0.00  0.00    +0.000 OA
BRANCH  23  24
ATOM     24  C   UNL     1      -4.915   2.160 127.445  0.00  0.00    +0.000 C 
BRANCH  24  25
ATOM     25  C   UNL     1      -3.926   2.713 126.438  0.00  0.00    +0.000 C 
ATOM     26  C   UNL     1      -2.623   2.932 127.165  0.00  0.00    +0.000 C 
ATOM     27  C   UNL     1      -2.769   4.091 128.155  0.00  0.00    +0.000 C 
ATOM     28  N   UNL     1      -3.308   5.307 127.526  0.00  0.00    +0.000 NA
ATOM     29  C   UNL     1      -3.544   6.289 128.583  0.00  0.00    +0.000 C 
ATOM     30  C   UNL     1      -4.578   5.088 126.807  0.00  0.00    +0.000 C 
ATOM     31  C   UNL     1      -4.432   3.988 125.769  0.00  0.00    +0.000 C 
ENDBRANCH  24  25
ENDBRANCH  23  24
ENDBRANCH   2  23
TORSDOF 5
ENDMDL
MODEL 4
REMARK VINA RESULT:      -7.4      4.510      8.038
REMARK  Name = Vandetanib
REMARK  7 active torsions:
REMARK  status: ('A' for Active; 'I' for Inactive)
REMARK    1  A    between atoms: C_1  and  O_2
REMARK    2  A    between atoms: O_2  and  C_3
REMARK    3  A    between atoms: C_4  and  O_5
REMARK    4  A    between atoms: O_5  and  C_6
REMARK    5  A    between atoms: C_6  and  C_7
REMARK    6  A    between atoms: N_10  and  C_11
REMARK    7  A    between atoms: N_20  and  C_21
REMARK                            x       y       z     vdW  Elec       q    Type
REMARK                         _______ _______ _______ _____ _____    ______ ____
ROOT
ATOM      1  C   UNL     1      -8.474   2.817 129.780  0.00  0.00    +0.000 A 
ATOM      2  C   UNL     1      -7.863   1.687 130.294  0.00  0.00    +0.000 A 
ATOM      3  C   UNL     1      -7.414   1.644 131.643  0.00  0.00    +0.000 A 
ATOM      4  C   UNL     1      -7.589   2.704 132.528  0.00  0.00    +0.000 A 
ATOM      5  N   UNL     1      -7.124   2.610 133.788  0.00  0.00    +0.000 NA
ATOM      6  C   UNL     1      -7.333   3.675 134.573  0.00  0.00    +0.000 A 
ATOM      7  N   UNL     1      -7.990   4.793 134.240  0.00  0.00    +0.000 NA
ATOM      8  C   UNL     1      -8.463   4.867 132.975  0.00  0.00    +0.000 A 
ATOM      9  N   UNL     1      -9.207   6.023 132.668  0.00  0.00    +0.000 N 
ATOM     10  C   UNL     1      -8.214   3.833 132.043  0.00  0.00    +0.000 A 
ATOM     11  C   UNL     1      -8.522   3.889 130.651  0.00  0.00    +0.000 A 
ATOM     12  H   UNL     1      -9.154   6.713 133.406  0.00  0.00    +0.000 HD
ENDROOT
BRANCH   9  13
ATOM     13  C   UNL     1      -9.939   6.372 131.512  0.00  0.00    +0.000 A 
ATOM     14  C   UNL     1      -9.382   7.134 130.460  0.00  0.00    +0.000 A 
ATOM     15  F   UNL     1      -8.076   7.449 130.480  0.00  0.00    +0.000 F 
ATOM     16  C   UNL     1     -10.178   7.736 129.485  0.00  0.00    +0.000 A 
ATOM     17  C   UNL     1     -11.550   7.522 129.503  0.00  0.00    +0.000 A 
ATOM     18 BR   UNL     1     -12.637   8.318 128.176  0.00  0.00    +0.000 Br
ATOM     19  C   UNL     1     -12.129   6.736 130.501  0.00  0.00    +0.000 A 
ATOM     20  C   UNL     1     -11.327   6.165 131.502  0.00  0.00    +0.000 A 
ENDBRANCH   9  13
BRANCH   1  22
ATOM     21  C   UNL     1      -7.886   3.314 127.432  0.00  0.00    +0.000 C 
ATOM     22  O   UNL     1      -8.835   3.167 128.498  0.00  0.00    +0.000 OA
ENDBRANCH   1  22
BRANCH   2  23
ATOM     23  O   UNL     1      -7.500   0.563 129.618  0.00  0.00    +0.000 OA
BRANCH  23  24
ATOM     24  C   UNL     1      -7.359  -0.571 130.430  0.00  0.00    +0.000 C 
BRANCH  24  25
ATOM     25  C   UNL     1      -7.880  -1.922 129.983  0.00  0.00    +0.000 C 
ATOM     26  C   UNL     1      -7.372  -2.946 130.967  0.00  0.00    +0.000 C 
ATOM     27  C   UNL     1      -5.857  -3.108 130.813  0.00  0.00    +0.000 C 
ATOM     28  N   UNL     1      -5.456  -3.374 129.422  0.00  0.00    +0.000 NA
ATOM     29  C   UNL     1      -3.995  -3.360 129.369  0.00  0.00    +0.000 C 
ATOM     30  C   UNL     1      -5.962  -2.377 128.460  0.00  0.00    +0.000 C 
ATOM     31  C   UNL     1      -7.474  -2.254 128.549  0.00  0.00    +0.000 C 
ENDBRANCH  24  25
ENDBRANCH  23  24
ENDBRANCH   2  23
TORSDOF 5
ENDMDL
MODEL 5
REMARK VINA RESULT:      -7.4      4.119      5.739
REMARK  Name = Vandetanib
REMARK  7 active torsions:
REMARK  status: ('A' for Active; 'I' for Inactive)
REMARK    1  A    between atoms: C_1  and  O_2
REMARK    2  A    between atoms: O_2  and  C_3
REMARK    3  A    between atoms: C_4  and  O_5
REMARK    4  A    between atoms: O_5  and  C_6
REMARK    5  A    between atoms: C_6  and  C_7
REMARK    6  A    between atoms: N_10  and  C_11
REMARK    7  A    between atoms: N_20  and  C_21
REMARK                            x       y       z     vdW  Elec       q    Type
REMARK                         _______ _______ _______ _____ _____    ______ ____
ROOT
ATOM      1  C   UNL     1      -8.096   1.952 128.698  0.00  0.00    +0.000 A 
ATOM      2  C   UNL     1      -8.190   3.299 129.000  0.00  0.00    +0.000 A 
ATOM      3  C   UNL     1      -7.744   4.292 128.084  0.00  0.00    +0.000 A 
ATOM      4  C   UNL     1      -7.226   3.979 126.830  0.00  0.00    +0.000 A 
ATOM      5  N   UNL     1      -6.802   4.963 126.016  0.00  0.00    +0.000 NA
ATOM      6  C   UNL     1      -6.317   4.575 124.829  0.00  0.00    +0.000 A 
ATOM      7  N   UNL     1      -6.254   3.320 124.365  0.00  0.00    +0.000 NA
ATOM      8  C   UNL     1      -6.695   2.344 125.191  0.00  0.00    +0.000 A 
ATOM      9  N   UNL     1      -6.680   1.040 124.658  0.00  0.00    +0.000 N 
ATOM     10  C   UNL     1      -7.141   2.643 126.500  0.00  0.00    +0.000 A 
ATOM     11  C   UNL     1      -7.467   1.677 127.498  0.00  0.00    +0.000 A 
ATOM     12  H   UNL     1      -6.193   1.001 123.772  0.00  0.00    +0.000 HD
ENDROOT
BRANCH   9  13
ATOM     13  C   UNL     1      -7.173  -0.177 125.176  0.00  0.00    +0.000 A 
ATOM     14  C   UNL     1      -8.554  -0.475 125.236  0.00  0.00    +0.000 A 
ATOM     15  F   UNL     1      -9.444   0.362 124.677  0.00  0.00    +0.000 F 
ATOM     16  C   UNL     1      -9.049  -1.517 126.020  0.00  0.00    +0.000 A 
ATOM     17  C   UNL     1      -8.157  -2.333 126.704  0.00  0.00    +0.000 A 
ATOM     18 BR   UNL     1      -8.816  -3.760 127.755  0.00  0.00    +0.000 Br
ATOM     19  C   UNL     1      -6.784  -2.096 126.630  0.00  0.00    +0.000 A 
ATOM     20  C   UNL     1      -6.294  -1.022 125.871  0.00  0.00    +0.000 A 
ENDBRANCH   9  13
BRANCH   1  22
ATOM     21  C   UNL     1      -7.239  -0.105 129.763  0.00  0.00    +0.000 C 
ATOM     22  O   UNL     1      -8.291   0.821 129.457  0.00  0.00    +0.000 OA
ENDBRANCH   1  22
BRANCH   2  23
ATOM     23  O   UNL     1      -8.574   3.857 130.182  0.00  0.00    +0.000 OA
BRANCH  23  24
ATOM     24  C   UNL     1      -9.889   4.340 130.185  0.00  0.00    +0.000 C 
BRANCH  24  25
ATOM     25  C   UNL     1     -10.344   5.364 131.205  0.00  0.00    +0.000 C 
ATOM     26  C   UNL     1     -11.724   5.817 130.800  0.00  0.00    +0.000 C 
ATOM     27  C   UNL     1     -11.643   6.644 129.514  0.00  0.00    +0.000 C 
ATOM     28  N   UNL     1     -10.664   7.740 129.608  0.00  0.00    +0.000 NA
ATOM     29  C   UNL     1     -10.562   8.361 128.289  0.00  0.00    +0.000 C 
ATOM     30  C   UNL     1      -9.316   7.295 130.015  0.00  0.00    +0.000 C 
ATOM     31  C   UNL     1      -9.369   6.532 131.327  0.00  0.00    +0.000 C 
ENDBRANCH  24  25
ENDBRANCH  23  24
ENDBRANCH   2  23
TORSDOF 5
ENDMDL
MODEL 6
REMARK VINA RESULT:      -7.4      5.399      7.841
REMARK  Name = Vandetanib
REMARK  7 active torsions:
REMARK  status: ('A' for Active; 'I' for Inactive)
REMARK    1  A    between atoms: C_1  and  O_2
REMARK    2  A    between atoms: O_2  and  C_3
REMARK    3  A    between atoms: C_4  and  O_5
REMARK    4  A    between atoms: O_5  and  C_6
REMARK    5  A    between atoms: C_6  and  C_7
REMARK    6  A    between atoms: N_10  and  C_11
REMARK    7  A    between atoms: N_20  and  C_21
REMARK                            x       y       z     vdW  Elec       q    Type
REMARK                         _______ _______ _______ _____ _____    ______ ____
ROOT
ATOM      1  C   UNL     1      -6.158   2.838 127.388  0.00  0.00    +0.000 A 
ATOM      2  C   UNL     1      -5.894   4.186 127.221  0.00  0.00    +0.000 A 
ATOM      3  C   UNL     1      -5.796   4.761 125.923  0.00  0.00    +0.000 A 
ATOM      4  C   UNL     1      -5.993   4.024 124.758  0.00  0.00    +0.000 A 
ATOM      5  N   UNL     1      -5.867   4.621 123.558  0.00  0.00    +0.000 NA
ATOM      6  C   UNL     1      -6.072   3.840 122.489  0.00  0.00    +0.000 A 
ATOM      7  N   UNL     1      -6.426   2.549 122.501  0.00  0.00    +0.000 NA
ATOM      8  C   UNL     1      -6.560   1.967 123.715  0.00  0.00    +0.000 A 
ATOM      9  N   UNL     1      -6.997   0.628 123.705  0.00  0.00    +0.000 N 
ATOM     10  C   UNL     1      -6.277   2.683 124.902  0.00  0.00    +0.000 A 
ATOM     11  C   UNL     1      -6.228   2.117 126.210  0.00  0.00    +0.000 A 
ATOM     12  H   UNL     1      -7.005   0.241 122.770  0.00  0.00    +0.000 HD
ENDROOT
BRANCH   9  13
ATOM     13  C   UNL     1      -7.359  -0.235 124.762  0.00  0.00    +0.000 A 
ATOM     14  C   UNL     1      -6.447  -1.145 125.347  0.00  0.00    +0.000 A 
ATOM     15  F   UNL     1      -5.154  -1.123 124.984  0.00  0.00    +0.000 F 
ATOM     16  C   UNL     1      -6.875  -2.197 126.157  0.00  0.00    +0.000 A 
ATOM     17  C   UNL     1      -8.225  -2.313 126.460  0.00  0.00    +0.000 A 
ATOM     18 BR   UNL     1      -8.814  -3.724 127.573  0.00  0.00    +0.000 Br
ATOM     19  C   UNL     1      -9.147  -1.405 125.938  0.00  0.00    +0.000 A 
ATOM     20  C   UNL     1      -8.716  -0.371 125.091  0.00  0.00    +0.000 A 
ENDBRANCH   9  13
BRANCH   1  22
ATOM     21  C   UNL     1      -6.879   0.802 128.587  0.00  0.00    +0.000 C 
ATOM     22  O   UNL     1      -6.134   2.025 128.499  0.00  0.00    +0.000 OA
ENDBRANCH   1  22
BRANCH   2  23
ATOM     23  O   UNL     1      -5.578   5.094 128.185  0.00  0.00    +0.000 OA
BRANCH  23  24
ATOM     24  C   UNL     1      -4.208   5.373 128.281  0.00  0.00    +0.000 C 
BRANCH  24  25
ATOM     25  C   UNL     1      -3.704   6.800 128.357  0.00  0.00    +0.000 C 
ATOM     26  C   UNL     1      -2.198   6.742 128.390  0.00  0.00    +0.000 C 
ATOM     27  C   UNL     1      -1.729   6.154 129.724  0.00  0.00    +0.000 C 
ATOM     28  N   UNL     1      -2.321   6.842 130.883  0.00  0.00    +0.000 NA
ATOM     29  C   UNL     1      -1.927   6.108 132.085  0.00  0.00    +0.000 C 
ATOM     30  C   UNL     1      -3.795   6.906 130.844  0.00  0.00    +0.000 C 
ATOM     31  C   UNL     1      -4.276   7.552 129.557  0.00  0.00    +0.000 C 
ENDBRANCH  24  25
ENDBRANCH  23  24
ENDBRANCH   2  23
TORSDOF 5
ENDMDL
MODEL 7
REMARK VINA RESULT:      -7.3      4.244      7.715
REMARK  Name = Vandetanib
REMARK  7 active torsions:
REMARK  status: ('A' for Active; 'I' for Inactive)
REMARK    1  A    between atoms: C_1  and  O_2
REMARK    2  A    between atoms: O_2  and  C_3
REMARK    3  A    between atoms: C_4  and  O_5
REMARK    4  A    between atoms: O_5  and  C_6
REMARK    5  A    between atoms: C_6  and  C_7
REMARK    6  A    between atoms: N_10  and  C_11
REMARK    7  A    between atoms: N_20  and  C_21
REMARK                            x       y       z     vdW  Elec       q    Type
REMARK                         _______ _______ _______ _____ _____    ______ ____
ROOT
ATOM      1  C   UNL     1      -8.173   2.562 128.575  0.00  0.00    +0.000 A 
ATOM      2  C   UNL     1      -7.603   1.327 128.831  0.00  0.00    +0.000 A 
ATOM      3  C   UNL     1      -7.249   0.940 130.153  0.00  0.00    +0.000 A 
ATOM      4  C   UNL     1      -7.481   1.751 131.261  0.00  0.00    +0.000 A 
ATOM      5  N   UNL     1      -7.105   1.337 132.485  0.00  0.00    +0.000 NA
ATOM      6  C   UNL     1      -7.364   2.177 133.496  0.00  0.00    +0.000 A 
ATOM      7  N   UNL     1      -7.992   3.357 133.409  0.00  0.00    +0.000 NA
ATOM      8  C   UNL     1      -8.375   3.753 132.174  0.00  0.00    +0.000 A 
ATOM      9  N   UNL     1      -9.091   4.965 132.116  0.00  0.00    +0.000 N 
ATOM     10  C   UNL     1      -8.066   2.978 131.032  0.00  0.00    +0.000 A 
ATOM     11  C   UNL     1      -8.277   3.385 129.681  0.00  0.00    +0.000 A 
ATOM     12  H   UNL     1      -9.087   5.448 133.005  0.00  0.00    +0.000 HD
ENDROOT
BRANCH   9  13
ATOM     13  C   UNL     1      -9.740   5.605 131.038  0.00  0.00    +0.000 A 
ATOM     14  C   UNL     1      -9.243   6.789 130.446  0.00  0.00    +0.000 A 
ATOM     15  F   UNL     1      -8.050   7.277 130.825  0.00  0.00    +0.000 F 
ATOM     16  C   UNL     1     -10.031   7.581 129.610  0.00  0.00    +0.000 A 
ATOM     17  C   UNL     1     -11.315   7.160 129.290  0.00  0.00    +0.000 A 
ATOM     18 BR   UNL     1     -12.385   8.216 128.143  0.00  0.00    +0.000 Br
ATOM     19  C   UNL     1     -11.821   5.972 129.819  0.00  0.00    +0.000 A 
ATOM     20  C   UNL     1     -11.038   5.198 130.691  0.00  0.00    +0.000 A 
ENDBRANCH   9  13
BRANCH   1  22
ATOM     21  C   UNL     1      -7.522   4.147 126.795  0.00  0.00    +0.000 C 
ATOM     22  O   UNL     1      -8.442   3.227 127.400  0.00  0.00    +0.000 OA
ENDBRANCH   1  22
BRANCH   2  23
ATOM     23  O   UNL     1      -7.198   0.398 127.922  0.00  0.00    +0.000 OA
BRANCH  23  24
ATOM     24  C   UNL     1      -7.914  -0.805 127.977  0.00  0.00    +0.000 C 
BRANCH  24  25
ATOM     25  C   UNL     1      -7.198  -2.141 127.977  0.00  0.00    +0.000 C 
ATOM     26  C   UNL     1      -6.328  -2.183 126.746  0.00  0.00    +0.000 C 
ATOM     27  C   UNL     1      -7.204  -2.277 125.493  0.00  0.00    +0.000 C 
ATOM     28  N   UNL     1      -8.179  -3.377 125.566  0.00  0.00    +0.000 NA
ATOM     29  C   UNL     1      -9.052  -3.278 124.397  0.00  0.00    +0.000 C 
ATOM     30  C   UNL     1      -9.023  -3.340 126.777  0.00  0.00    +0.000 C 
ATOM     31  C   UNL     1      -8.169  -3.318 128.033  0.00  0.00    +0.000 C 
ENDBRANCH  24  25
ENDBRANCH  23  24
ENDBRANCH   2  23
TORSDOF 5
ENDMDL
MODEL 8
REMARK VINA RESULT:      -7.3      4.195      5.883
REMARK  Name = Vandetanib
REMARK  7 active torsions:
REMARK  status: ('A' for Active; 'I' for Inactive)
REMARK    1  A    between atoms: C_1  and  O_2
REMARK    2  A    between atoms: O_2  and  C_3
REMARK    3  A    between atoms: C_4  and  O_5
REMARK    4  A    between atoms: O_5  and  C_6
REMARK    5  A    between atoms: C_6  and  C_7
REMARK    6  A    between atoms: N_10  and  C_11
REMARK    7  A    between atoms: N_20  and  C_21
REMARK                            x       y       z     vdW  Elec       q    Type
REMARK                         _______ _______ _______ _____ _____    ______ ____
ROOT
ATOM      1  C   UNL     1      -6.593   1.796 129.701  0.00  0.00    +0.000 A 
ATOM      2  C   UNL     1      -7.132   2.994 129.266  0.00  0.00    +0.000 A 
ATOM      3  C   UNL     1      -7.909   3.062 128.077  0.00  0.00    +0.000 A 
ATOM      4  C   UNL     1      -8.203   1.941 127.305  0.00  0.00    +0.000 A 
ATOM      5  N   UNL     1      -8.927   2.073 126.179  0.00  0.00    +0.000 NA
ATOM      6  C   UNL     1      -9.163   0.945 125.495  0.00  0.00    +0.000 A 
ATOM      7  N   UNL     1      -8.788  -0.292 125.845  0.00  0.00    +0.000 NA
ATOM      8  C   UNL     1      -8.071  -0.409 126.987  0.00  0.00    +0.000 A 
ATOM      9  N   UNL     1      -7.743  -1.725 127.369  0.00  0.00    +0.000 N 
ATOM     10  C   UNL     1      -7.693   0.733 127.731  0.00  0.00    +0.000 A 
ATOM     11  C   UNL     1      -6.804   0.729 128.847  0.00  0.00    +0.000 A 
ATOM     12  H   UNL     1      -7.966  -2.395 126.644  0.00  0.00    +0.000 HD
ENDROOT
BRANCH   9  13
ATOM     13  C   UNL     1      -7.127  -2.223 128.537  0.00  0.00    +0.000 A 
ATOM     14  C   UNL     1      -5.765  -2.601 128.578  0.00  0.00    +0.000 A 
ATOM     15  F   UNL     1      -4.977  -2.376 127.513  0.00  0.00    +0.000 F 
ATOM     16  C   UNL     1      -5.245  -3.372 129.618  0.00  0.00    +0.000 A 
ATOM     17  C   UNL     1      -6.068  -3.718 130.681  0.00  0.00    +0.000 A 
ATOM     18 BR   UNL     1      -5.370  -4.747 132.105  0.00  0.00    +0.000 Br
ATOM     19  C   UNL     1      -7.406  -3.322 130.697  0.00  0.00    +0.000 A 
ATOM     20  C   UNL     1      -7.934  -2.579 129.629  0.00  0.00    +0.000 A 
ENDBRANCH   9  13
BRANCH   1  22
ATOM     21  C   UNL     1      -5.601   0.205 131.309  0.00  0.00    +0.000 C 
ATOM     22  O   UNL     1      -5.689   1.499 130.695  0.00  0.00    +0.000 OA
ENDBRANCH   1  22
BRANCH   2  23
ATOM     23  O   UNL     1      -6.921   4.234 129.788  0.00  0.00    +0.000 OA
BRANCH  23  24
ATOM     24  C   UNL     1      -7.747   4.543 130.877  0.00  0.00    +0.000 C 
BRANCH  24  25
ATOM     25  C   UNL     1      -7.616   5.865 131.607  0.00  0.00    +0.000 C 
ATOM     26  C   UNL     1      -8.331   5.720 132.927  0.00  0.00    +0.000 C 
ATOM     27  C   UNL     1      -9.841   5.621 132.691  0.00  0.00    +0.000 C 
ATOM     28  N   UNL     1     -10.356   6.718 131.856  0.00  0.00    +0.000 NA
ATOM     29  C   UNL     1     -11.764   6.441 131.575  0.00  0.00    +0.000 C 
ATOM     30  C   UNL     1      -9.648   6.863 130.569  0.00  0.00    +0.000 C 
ATOM     31  C   UNL     1      -8.155   7.035 130.787  0.00  0.00    +0.000 C 
ENDBRANCH  24  25
ENDBRANCH  23  24
ENDBRANCH   2  23
TORSDOF 5
ENDMDL
MODEL 9
REMARK VINA RESULT:      -7.2      2.771      4.166
REMARK  Name = Vandetanib
REMARK  7 active torsions:
REMARK  status: ('A' for Active; 'I' for Inactive)
REMARK    1  A    between atoms: C_1  and  O_2
REMARK    2  A    between atoms: O_2  and  C_3
REMARK    3  A    between atoms: C_4  and  O_5
REMARK    4  A    between atoms: O_5  and  C_6
REMARK    5  A    between atoms: C_6  and  C_7
REMARK    6  A    between atoms: N_10  and  C_11
REMARK    7  A    between atoms: N_20  and  C_21
REMARK                            x       y       z     vdW  Elec       q    Type
REMARK                         _______ _______ _______ _____ _____    ______ ____
ROOT
ATOM      1  C   UNL     1      -7.986   4.114 129.324  0.00  0.00    +0.000 A 
ATOM      2  C   UNL     1      -8.393   4.949 130.349  0.00  0.00    +0.000 A 
ATOM      3  C   UNL     1      -7.469   5.799 131.017  0.00  0.00    +0.000 A 
ATOM      4  C   UNL     1      -6.124   5.872 130.663  0.00  0.00    +0.000 A 
ATOM      5  N   UNL     1      -5.294   6.682 131.346  0.00  0.00    +0.000 NA
ATOM      6  C   UNL     1      -4.017   6.691 130.942  0.00  0.00    +0.000 A 
ATOM      7  N   UNL     1      -3.503   6.012 129.909  0.00  0.00    +0.000 NA
ATOM      8  C   UNL     1      -4.353   5.212 129.225  0.00  0.00    +0.000 A 
ATOM      9  N   UNL     1      -3.806   4.558 128.103  0.00  0.00    +0.000 N 
ATOM     10  C   UNL     1      -5.700   5.064 129.630  0.00  0.00    +0.000 A 
ATOM     11  C   UNL     1      -6.625   4.126 129.082  0.00  0.00    +0.000 A 
ATOM     12  H   UNL     1      -2.801   4.666 128.056  0.00  0.00    +0.000 HD
ENDROOT
BRANCH   9  13
ATOM     13  C   UNL     1      -4.415   3.764 127.107  0.00  0.00    +0.000 A 
ATOM     14  C   UNL     1      -5.260   4.308 126.112  0.00  0.00    +0.000 A 
ATOM     15  F   UNL     1      -5.408   5.640 126.014  0.00  0.00    +0.000 F 
ATOM     16  C   UNL     1      -6.097   3.504 125.337  0.00  0.00    +0.000 A 
ATOM     17  C   UNL     1      -6.048   2.125 125.494  0.00  0.00    +0.000 A 
ATOM     18 BR   UNL     1      -7.165   1.025 124.437  0.00  0.00    +0.000 Br
ATOM     19  C   UNL     1      -5.192   1.552 126.435  0.00  0.00    +0.000 A 
ATOM     20  C   UNL     1      -4.380   2.367 127.239  0.00  0.00    +0.000 A 
ENDBRANCH   9  13
BRANCH   1  22
ATOM     21  C   UNL     1      -8.214   1.728 128.725  0.00  0.00    +0.000 C 
ATOM     22  O   UNL     1      -8.628   3.100 128.650  0.00  0.00    +0.000 OA
ENDBRANCH   1  22
BRANCH   2  23
ATOM     23  O   UNL     1      -9.621   5.001 130.936  0.00  0.00    +0.000 OA
BRANCH  23  24
ATOM     24  C   UNL     1     -10.615   5.570 130.129  0.00  0.00    +0.000 C 
BRANCH  24  25
ATOM     25  C   UNL     1     -10.957   7.043 130.231  0.00  0.00    +0.000 C 
ATOM     26  C   UNL     1     -12.455   7.165 130.103  0.00  0.00    +0.000 C 
ATOM     27  C   UNL     1     -12.884   6.824 128.673  0.00  0.00    +0.000 C 
ATOM     28  N   UNL     1     -12.139   7.591 127.661  0.00  0.00    +0.000 NA
ATOM     29  C   UNL     1     -12.519   7.081 126.345  0.00  0.00    +0.000 C 
ATOM     30  C   UNL     1     -10.673   7.478 127.795  0.00  0.00    +0.000 C 
ATOM     31  C   UNL     1     -10.222   7.881 129.188  0.00  0.00    +0.000 C 
ENDBRANCH  24  25
ENDBRANCH  23  24
ENDBRANCH   2  23
TORSDOF 5
ENDMDL
