MODEL 1
REMARK VINA RESULT:      -5.5      0.000      0.000
REMARK  Name = Vanillyl butyl ether
REMARK  9 active torsions:
REMARK  status: ('A' for Active; 'I' for Inactive)
REMARK    1  A    between atoms: C_1  and  C_2
REMARK    2  A    between atoms: C_2  and  C_3
REMARK    3  A    between atoms: C_3  and  C_4
REMARK    4  A    between atoms: C_4  and  O_5
REMARK    5  A    between atoms: O_5  and  C_6
REMARK    6  A    between atoms: C_6  and  C_7
REMARK    7  A    between atoms: C_9  and  O_10
REMARK    8  A    between atoms: O_10  and  C_11
REMARK    9  A    between atoms: C_12  and  O_13
REMARK                            x       y       z     vdW  Elec       q    Type
REMARK                         _______ _______ _______ _____ _____    ______ ____
ROOT
ATOM      1  C   UNL     1     -11.178   6.841 131.010  0.00  0.00    +0.000 A 
ATOM      2  C   UNL     1     -10.570   7.219 129.799  0.00  0.00    +0.000 A 
ATOM      3  C   UNL     1     -11.175   8.149 128.953  0.00  0.00    +0.000 A 
ATOM      4  C   UNL     1     -12.403   8.697 129.331  0.00  0.00    +0.000 A 
ATOM      5  C   UNL     1     -13.032   8.325 130.514  0.00  0.00    +0.000 A 
ATOM      6  C   UNL     1     -12.421   7.391 131.350  0.00  0.00    +0.000 A 
ENDROOT
BRANCH   3   7
ATOM      7  O   UNL     1     -10.661   8.583 127.756  0.00  0.00    +0.000 OA
ATOM      8  C   UNL     1     -10.885   7.725 126.638  0.00  0.00    +0.000 C 
ENDBRANCH   3   7
BRANCH   4   9
ATOM      9  O   UNL     1     -13.029   9.624 128.542  0.00  0.00    +0.000 OA
ATOM     10  H   UNL     1     -13.718   9.125 128.062  0.00  0.00    +0.000 HD
ENDBRANCH   4   9
BRANCH   1  11
ATOM     11  C   UNL     1     -10.537   5.829 131.926  0.00  0.00    +0.000 C 
BRANCH  11  12
ATOM     12  O   UNL     1      -9.557   6.451 132.757  0.00  0.00    +0.000 OA
BRANCH  12  13
ATOM     13  C   UNL     1      -8.405   5.631 132.893  0.00  0.00    +0.000 C 
BRANCH  13  14
ATOM     14  C   UNL     1      -7.712   5.547 131.542  0.00  0.00    +0.000 C 
BRANCH  14  16
ATOM     15  C   UNL     1      -5.571   6.823 131.249  0.00  0.00    +0.000 C 
ATOM     16  C   UNL     1      -7.085   6.887 131.182  0.00  0.00    +0.000 C 
ENDBRANCH  14  16
ENDBRANCH  13  14
ENDBRANCH  12  13
ENDBRANCH  11  12
ENDBRANCH   1  11
TORSDOF 7
ENDMDL
MODEL 2
REMARK VINA RESULT:      -5.3      2.330      2.631
REMARK  Name = Vanillyl butyl ether
REMARK  9 active torsions:
REMARK  status: ('A' for Active; 'I' for Inactive)
REMARK    1  A    between atoms: C_1  and  C_2
REMARK    2  A    between atoms: C_2  and  C_3
REMARK    3  A    between atoms: C_3  and  C_4
REMARK    4  A    between atoms: C_4  and  O_5
REMARK    5  A    between atoms: O_5  and  C_6
REMARK    6  A    between atoms: C_6  and  C_7
REMARK    7  A    between atoms: C_9  and  O_10
REMARK    8  A    between atoms: O_10  and  C_11
REMARK    9  A    between atoms: C_12  and  O_13
REMARK                            x       y       z     vdW  Elec       q    Type
REMARK                         _______ _______ _______ _____ _____    ______ ____
ROOT
ATOM      1  C   UNL     1     -11.343   6.355 130.391  0.00  0.00    +0.000 A 
ATOM      2  C   UNL     1     -10.817   6.834 129.178  0.00  0.00    +0.000 A 
ATOM      3  C   UNL     1     -11.289   8.018 128.610  0.00  0.00    +0.000 A 
ATOM      4  C   UNL     1     -12.301   8.720 129.269  0.00  0.00    +0.000 A 
ATOM      5  C   UNL     1     -12.850   8.255 130.459  0.00  0.00    +0.000 A 
ATOM      6  C   UNL     1     -12.375   7.069 131.016  0.00  0.00    +0.000 A 
ENDROOT
BRANCH   3   7
ATOM      7  O   UNL     1     -10.838   8.568 127.434  0.00  0.00    +0.000 OA
ATOM      8  C   UNL     1     -10.931   7.730 126.283  0.00  0.00    +0.000 C 
ENDBRANCH   3   7
BRANCH   4   9
ATOM      9  O   UNL     1     -12.787   9.893 128.758  0.00  0.00    +0.000 OA
ATOM     10  H   UNL     1     -12.369  10.595 129.294  0.00  0.00    +0.000 HD
ENDBRANCH   4   9
BRANCH   1  11
ATOM     11  C   UNL     1     -10.848   5.072 131.008  0.00  0.00    +0.000 C 
BRANCH  11  12
ATOM     12  O   UNL     1     -10.638   4.078 130.004  0.00  0.00    +0.000 OA
BRANCH  12  13
ATOM     13  C   UNL     1      -9.616   3.170 130.388  0.00  0.00    +0.000 C 
BRANCH  13  14
ATOM     14  C   UNL     1     -10.091   2.397 131.609  0.00  0.00    +0.000 C 
BRANCH  14  16
ATOM     15  C   UNL     1      -9.053   3.401 133.661  0.00  0.00    +0.000 C 
ATOM     16  C   UNL     1      -8.971   2.286 132.635  0.00  0.00    +0.000 C 
ENDBRANCH  14  16
ENDBRANCH  13  14
ENDBRANCH  12  13
ENDBRANCH  11  12
ENDBRANCH   1  11
TORSDOF 7
ENDMDL
MODEL 3
REMARK VINA RESULT:      -5.3      1.505      2.391
REMARK  Name = Vanillyl butyl ether
REMARK  9 active torsions:
REMARK  status: ('A' for Active; 'I' for Inactive)
REMARK    1  A    between atoms: C_1  and  C_2
REMARK    2  A    between atoms: C_2  and  C_3
REMARK    3  A    between atoms: C_3  and  C_4
REMARK    4  A    between atoms: C_4  and  O_5
REMARK    5  A    between atoms: O_5  and  C_6
REMARK    6  A    between atoms: C_6  and  C_7
REMARK    7  A    between atoms: C_9  and  O_10
REMARK    8  A    between atoms: O_10  and  C_11
REMARK    9  A    between atoms: C_12  and  O_13
REMARK                            x       y       z     vdW  Elec       q    Type
REMARK                         _______ _______ _______ _____ _____    ______ ____
ROOT
ATOM      1  C   UNL     1      -9.925   6.822 130.925  0.00  0.00    +0.000 A 
ATOM      2  C   UNL     1      -9.860   7.484 129.686  0.00  0.00    +0.000 A 
ATOM      3  C   UNL     1     -11.024   7.873 129.020  0.00  0.00    +0.000 A 
ATOM      4  C   UNL     1     -12.259   7.587 129.608  0.00  0.00    +0.000 A 
ATOM      5  C   UNL     1     -12.347   6.917 130.823  0.00  0.00    +0.000 A 
ATOM      6  C   UNL     1     -11.179   6.528 131.478  0.00  0.00    +0.000 A 
ENDROOT
BRANCH   3   7
ATOM      7  O   UNL     1     -11.064   8.525 127.812  0.00  0.00    +0.000 OA
ATOM      8  C   UNL     1     -10.870   7.706 126.660  0.00  0.00    +0.000 C 
ENDBRANCH   3   7
BRANCH   4   9
ATOM      9  O   UNL     1     -13.426   7.961 129.000  0.00  0.00    +0.000 OA
ATOM     10  H   UNL     1     -13.743   7.158 128.542  0.00  0.00    +0.000 HD
ENDBRANCH   4   9
BRANCH   1  11
ATOM     11  C   UNL     1      -8.675   6.388 131.648  0.00  0.00    +0.000 C 
BRANCH  11  12
ATOM     12  O   UNL     1      -8.947   6.155 133.030  0.00  0.00    +0.000 OA
BRANCH  12  13
ATOM     13  C   UNL     1      -8.216   5.038 133.515  0.00  0.00    +0.000 C 
BRANCH  13  14
ATOM     14  C   UNL     1      -9.205   3.961 133.935  0.00  0.00    +0.000 C 
BRANCH  14  16
ATOM     15  C   UNL     1      -9.711   2.813 131.761  0.00  0.00    +0.000 C 
ATOM     16  C   UNL     1      -9.005   2.703 133.099  0.00  0.00    +0.000 C 
ENDBRANCH  14  16
ENDBRANCH  13  14
ENDBRANCH  12  13
ENDBRANCH  11  12
ENDBRANCH   1  11
TORSDOF 7
ENDMDL
MODEL 4
REMARK VINA RESULT:      -5.1      9.875     11.161
REMARK  Name = Vanillyl butyl ether
REMARK  9 active torsions:
REMARK  status: ('A' for Active; 'I' for Inactive)
REMARK    1  A    between atoms: C_1  and  C_2
REMARK    2  A    between atoms: C_2  and  C_3
REMARK    3  A    between atoms: C_3  and  C_4
REMARK    4  A    between atoms: C_4  and  O_5
REMARK    5  A    between atoms: O_5  and  C_6
REMARK    6  A    between atoms: C_6  and  C_7
REMARK    7  A    between atoms: C_9  and  O_10
REMARK    8  A    between atoms: O_10  and  C_11
REMARK    9  A    between atoms: C_12  and  O_13
REMARK                            x       y       z     vdW  Elec       q    Type
REMARK                         _______ _______ _______ _____ _____    ______ ____
ROOT
ATOM      1  C   UNL     1      -6.370   3.477 122.075  0.00  0.00    +0.000 A 
ATOM      2  C   UNL     1      -7.230   3.552 120.965  0.00  0.00    +0.000 A 
ATOM      3  C   UNL     1      -6.891   4.316 119.846  0.00  0.00    +0.000 A 
ATOM      4  C   UNL     1      -5.679   5.010 119.853  0.00  0.00    +0.000 A 
ATOM      5  C   UNL     1      -4.822   4.965 120.946  0.00  0.00    +0.000 A 
ATOM      6  C   UNL     1      -5.171   4.204 122.060  0.00  0.00    +0.000 A 
ENDROOT
BRANCH   3   7
ATOM      7  O   UNL     1      -7.660   4.450 118.716  0.00  0.00    +0.000 OA
ATOM      8  C   UNL     1      -9.069   4.334 118.908  0.00  0.00    +0.000 C 
ENDBRANCH   3   7
BRANCH   4   9
ATOM      9  O   UNL     1      -5.296   5.761 118.774  0.00  0.00    +0.000 OA
ATOM     10  H   UNL     1      -5.374   6.688 119.069  0.00  0.00    +0.000 HD
ENDBRANCH   4   9
BRANCH   1  11
ATOM     11  C   UNL     1      -6.731   2.664 123.292  0.00  0.00    +0.000 C 
BRANCH  11  12
ATOM     12  O   UNL     1      -6.793   1.274 122.969  0.00  0.00    +0.000 OA
BRANCH  12  13
ATOM     13  C   UNL     1      -7.663   0.581 123.853  0.00  0.00    +0.000 C 
BRANCH  13  14
ATOM     14  C   UNL     1      -7.884  -0.822 123.310  0.00  0.00    +0.000 C 
BRANCH  14  16
ATOM     15  C   UNL     1      -5.777  -2.010 123.981  0.00  0.00    +0.000 C 
ATOM     16  C   UNL     1      -6.567  -1.418 122.829  0.00  0.00    +0.000 C 
ENDBRANCH  14  16
ENDBRANCH  13  14
ENDBRANCH  12  13
ENDBRANCH  11  12
ENDBRANCH   1  11
TORSDOF 7
ENDMDL
MODEL 5
REMARK VINA RESULT:      -5.1     10.306     11.925
REMARK  Name = Vanillyl butyl ether
REMARK  9 active torsions:
REMARK  status: ('A' for Active; 'I' for Inactive)
REMARK    1  A    between atoms: C_1  and  C_2
REMARK    2  A    between atoms: C_2  and  C_3
REMARK    3  A    between atoms: C_3  and  C_4
REMARK    4  A    between atoms: C_4  and  O_5
REMARK    5  A    between atoms: O_5  and  C_6
REMARK    6  A    between atoms: C_6  and  C_7
REMARK    7  A    between atoms: C_9  and  O_10
REMARK    8  A    between atoms: O_10  and  C_11
REMARK    9  A    between atoms: C_12  and  O_13
REMARK                            x       y       z     vdW  Elec       q    Type
REMARK                         _______ _______ _______ _____ _____    ______ ____
ROOT
ATOM      1  C   UNL     1      -8.494  -2.698 126.274  0.00  0.00    +0.000 A 
ATOM      2  C   UNL     1      -7.809  -1.624 126.871  0.00  0.00    +0.000 A 
ATOM      3  C   UNL     1      -7.561  -1.608 128.244  0.00  0.00    +0.000 A 
ATOM      4  C   UNL     1      -8.012  -2.680 129.019  0.00  0.00    +0.000 A 
ATOM      5  C   UNL     1      -8.707  -3.742 128.453  0.00  0.00    +0.000 A 
ATOM      6  C   UNL     1      -8.954  -3.747 127.081  0.00  0.00    +0.000 A 
ENDROOT
BRANCH   3   7
ATOM      7  O   UNL     1      -6.900  -0.609 128.918  0.00  0.00    +0.000 OA
ATOM      8  C   UNL     1      -5.497  -0.522 128.675  0.00  0.00    +0.000 C 
ENDBRANCH   3   7
BRANCH   4   9
ATOM      9  O   UNL     1      -7.780  -2.715 130.367  0.00  0.00    +0.000 OA
ATOM     10  H   UNL     1      -7.047  -3.351 130.482  0.00  0.00    +0.000 HD
ENDBRANCH   4   9
BRANCH   1  11
ATOM     11  C   UNL     1      -8.776  -2.720 124.793  0.00  0.00    +0.000 C 
BRANCH  11  12
ATOM     12  O   UNL     1      -7.652  -3.228 124.074  0.00  0.00    +0.000 OA
BRANCH  12  13
ATOM     13  C   UNL     1      -7.046  -2.212 123.287  0.00  0.00    +0.000 C 
BRANCH  13  14
ATOM     14  C   UNL     1      -5.581  -2.568 123.086  0.00  0.00    +0.000 C 
BRANCH  14  16
ATOM     15  C   UNL     1      -4.299  -4.678 123.536  0.00  0.00    +0.000 C 
ATOM     16  C   UNL     1      -5.126  -3.562 124.146  0.00  0.00    +0.000 C 
ENDBRANCH  14  16
ENDBRANCH  13  14
ENDBRANCH  12  13
ENDBRANCH  11  12
ENDBRANCH   1  11
TORSDOF 7
ENDMDL
MODEL 6
REMARK VINA RESULT:      -5.1      9.680     10.929
REMARK  Name = Vanillyl butyl ether
REMARK  9 active torsions:
REMARK  status: ('A' for Active; 'I' for Inactive)
REMARK    1  A    between atoms: C_1  and  C_2
REMARK    2  A    between atoms: C_2  and  C_3
REMARK    3  A    between atoms: C_3  and  C_4
REMARK    4  A    between atoms: C_4  and  O_5
REMARK    5  A    between atoms: O_5  and  C_6
REMARK    6  A    between atoms: C_6  and  C_7
REMARK    7  A    between atoms: C_9  and  O_10
REMARK    8  A    between atoms: O_10  and  C_11
REMARK    9  A    between atoms: C_12  and  O_13
REMARK                            x       y       z     vdW  Elec       q    Type
REMARK                         _______ _______ _______ _____ _____    ______ ____
ROOT
ATOM      1  C   UNL     1      -8.506  -0.028 123.695  0.00  0.00    +0.000 A 
ATOM      2  C   UNL     1      -7.340   0.759 123.736  0.00  0.00    +0.000 A 
ATOM      3  C   UNL     1      -7.328   2.049 123.203  0.00  0.00    +0.000 A 
ATOM      4  C   UNL     1      -8.498   2.545 122.624  0.00  0.00    +0.000 A 
ATOM      5  C   UNL     1      -9.656   1.779 122.556  0.00  0.00    +0.000 A 
ATOM      6  C   UNL     1      -9.657   0.489 123.086  0.00  0.00    +0.000 A 
ENDROOT
BRANCH   3   7
ATOM      7  O   UNL     1      -6.244   2.893 123.197  0.00  0.00    +0.000 OA
ATOM      8  C   UNL     1      -5.865   3.424 124.466  0.00  0.00    +0.000 C 
ENDBRANCH   3   7
BRANCH   4   9
ATOM      9  O   UNL     1      -8.539   3.809 122.101  0.00  0.00    +0.000 OA
ATOM     10  H   UNL     1      -7.623   4.141 122.167  0.00  0.00    +0.000 HD
ENDBRANCH   4   9
BRANCH   1  11
ATOM     11  C   UNL     1      -8.527  -1.426 124.258  0.00  0.00    +0.000 C 
BRANCH  11  12
ATOM     12  O   UNL     1      -7.855  -2.332 123.382  0.00  0.00    +0.000 OA
BRANCH  12  13
ATOM     13  C   UNL     1      -6.697  -2.877 123.997  0.00  0.00    +0.000 C 
BRANCH  13  14
ATOM     14  C   UNL     1      -5.524  -2.718 123.043  0.00  0.00    +0.000 C 
BRANCH  14  16
ATOM     15  C   UNL     1      -4.378  -4.911 123.467  0.00  0.00    +0.000 C 
ATOM     16  C   UNL     1      -4.285  -3.403 123.607  0.00  0.00    +0.000 C 
ENDBRANCH  14  16
ENDBRANCH  13  14
ENDBRANCH  12  13
ENDBRANCH  11  12
ENDBRANCH   1  11
TORSDOF 7
ENDMDL
MODEL 7
REMARK VINA RESULT:      -5.1      2.150      3.973
REMARK  Name = Vanillyl butyl ether
REMARK  9 active torsions:
REMARK  status: ('A' for Active; 'I' for Inactive)
REMARK    1  A    between atoms: C_1  and  C_2
REMARK    2  A    between atoms: C_2  and  C_3
REMARK    3  A    between atoms: C_3  and  C_4
REMARK    4  A    between atoms: C_4  and  O_5
REMARK    5  A    between atoms: O_5  and  C_6
REMARK    6  A    between atoms: C_6  and  C_7
REMARK    7  A    between atoms: C_9  and  O_10
REMARK    8  A    between atoms: O_10  and  C_11
REMARK    9  A    between atoms: C_12  and  O_13
REMARK                            x       y       z     vdW  Elec       q    Type
REMARK                         _______ _______ _______ _____ _____    ______ ____
ROOT
ATOM      1  C   UNL     1      -7.803   6.471 131.573  0.00  0.00    +0.000 A 
ATOM      2  C   UNL     1      -8.660   6.992 130.588  0.00  0.00    +0.000 A 
ATOM      3  C   UNL     1     -10.046   6.876 130.709  0.00  0.00    +0.000 A 
ATOM      4  C   UNL     1     -10.567   6.225 131.830  0.00  0.00    +0.000 A 
ATOM      5  C   UNL     1      -9.738   5.685 132.807  0.00  0.00    +0.000 A 
ATOM      6  C   UNL     1      -8.355   5.803 132.674  0.00  0.00    +0.000 A 
ENDROOT
BRANCH   3   7
ATOM      7  O   UNL     1     -10.963   7.353 129.805  0.00  0.00    +0.000 OA
ATOM      8  C   UNL     1     -10.433   8.149 128.747  0.00  0.00    +0.000 C 
ENDBRANCH   3   7
BRANCH   4   9
ATOM      9  O   UNL     1     -11.919   6.099 132.001  0.00  0.00    +0.000 OA
ATOM     10  H   UNL     1     -12.295   6.167 131.103  0.00  0.00    +0.000 HD
ENDBRANCH   4   9
BRANCH   1  11
ATOM     11  C   UNL     1      -6.304   6.582 131.446  0.00  0.00    +0.000 C 
BRANCH  11  12
ATOM     12  O   UNL     1      -5.953   7.597 130.505  0.00  0.00    +0.000 OA
BRANCH  12  13
ATOM     13  C   UNL     1      -4.601   7.464 130.090  0.00  0.00    +0.000 C 
BRANCH  13  14
ATOM     14  C   UNL     1      -3.709   7.546 131.319  0.00  0.00    +0.000 C 
BRANCH  14  16
ATOM     15  C   UNL     1      -2.159   6.360 129.741  0.00  0.00    +0.000 C 
ATOM     16  C   UNL     1      -2.542   6.575 131.193  0.00  0.00    +0.000 C 
ENDBRANCH  14  16
ENDBRANCH  13  14
ENDBRANCH  12  13
ENDBRANCH  11  12
ENDBRANCH   1  11
TORSDOF 7
ENDMDL
MODEL 8
REMARK VINA RESULT:      -5.0      2.222      3.947
REMARK  Name = Vanillyl butyl ether
REMARK  9 active torsions:
REMARK  status: ('A' for Active; 'I' for Inactive)
REMARK    1  A    between atoms: C_1  and  C_2
REMARK    2  A    between atoms: C_2  and  C_3
REMARK    3  A    between atoms: C_3  and  C_4
REMARK    4  A    between atoms: C_4  and  O_5
REMARK    5  A    between atoms: O_5  and  C_6
REMARK    6  A    between atoms: C_6  and  C_7
REMARK    7  A    between atoms: C_9  and  O_10
REMARK    8  A    between atoms: O_10  and  C_11
REMARK    9  A    between atoms: C_12  and  O_13
REMARK                            x       y       z     vdW  Elec       q    Type
REMARK                         _______ _______ _______ _____ _____    ______ ____
ROOT
ATOM      1  C   UNL     1      -8.981   5.737 132.667  0.00  0.00    +0.000 A 
ATOM      2  C   UNL     1     -10.295   5.957 132.215  0.00  0.00    +0.000 A 
ATOM      3  C   UNL     1     -10.538   6.665 131.037  0.00  0.00    +0.000 A 
ATOM      4  C   UNL     1      -9.448   7.158 130.315  0.00  0.00    +0.000 A 
ATOM      5  C   UNL     1      -8.142   6.969 130.753  0.00  0.00    +0.000 A 
ATOM      6  C   UNL     1      -7.910   6.264 131.934  0.00  0.00    +0.000 A 
ENDROOT
BRANCH   3   7
ATOM      7  O   UNL     1     -11.780   6.928 130.512  0.00  0.00    +0.000 OA
ATOM      8  C   UNL     1     -12.736   7.465 131.425  0.00  0.00    +0.000 C 
ENDBRANCH   3   7
BRANCH   4   9
ATOM      9  O   UNL     1      -9.635   7.846 129.147  0.00  0.00    +0.000 OA
ATOM     10  H   UNL     1     -10.162   7.248 128.582  0.00  0.00    +0.000 HD
ENDBRANCH   4   9
BRANCH   1  11
ATOM     11  C   UNL     1      -8.708   4.983 133.943  0.00  0.00    +0.000 C 
BRANCH  11  12
ATOM     12  O   UNL     1      -9.369   3.717 133.931  0.00  0.00    +0.000 OA
BRANCH  12  13
ATOM     13  C   UNL     1      -8.636   2.763 133.176  0.00  0.00    +0.000 C 
BRANCH  13  14
ATOM     14  C   UNL     1      -9.621   1.894 132.410  0.00  0.00    +0.000 C 
BRANCH  14  16
ATOM     15  C   UNL     1      -8.886   2.939 130.250  0.00  0.00    +0.000 C 
ATOM     16  C   UNL     1     -10.070   2.596 131.136  0.00  0.00    +0.000 C 
ENDBRANCH  14  16
ENDBRANCH  13  14
ENDBRANCH  12  13
ENDBRANCH  11  12
ENDBRANCH   1  11
TORSDOF 7
ENDMDL
MODEL 9
REMARK VINA RESULT:      -5.0      8.792      9.993
REMARK  Name = Vanillyl butyl ether
REMARK  9 active torsions:
REMARK  status: ('A' for Active; 'I' for Inactive)
REMARK    1  A    between atoms: C_1  and  C_2
REMARK    2  A    between atoms: C_2  and  C_3
REMARK    3  A    between atoms: C_3  and  C_4
REMARK    4  A    between atoms: C_4  and  O_5
REMARK    5  A    between atoms: O_5  and  C_6
REMARK    6  A    between atoms: C_6  and  C_7
REMARK    7  A    between atoms: C_9  and  O_10
REMARK    8  A    between atoms: O_10  and  C_11
REMARK    9  A    between atoms: C_12  and  O_13
REMARK                            x       y       z     vdW  Elec       q    Type
REMARK                         _______ _______ _______ _____ _____    ______ ____
ROOT
ATOM      1  C   UNL     1      -8.620   0.208 125.384  0.00  0.00    +0.000 A 
ATOM      2  C   UNL     1      -7.375   0.844 125.227  0.00  0.00    +0.000 A 
ATOM      3  C   UNL     1      -7.261   2.019 124.483  0.00  0.00    +0.000 A 
ATOM      4  C   UNL     1      -8.409   2.551 123.890  0.00  0.00    +0.000 A 
ATOM      5  C   UNL     1      -9.646   1.929 124.017  0.00  0.00    +0.000 A 
ATOM      6  C   UNL     1      -9.749   0.753 124.759  0.00  0.00    +0.000 A 
ENDROOT
BRANCH   3   7
ATOM      7  O   UNL     1      -6.094   2.714 124.274  0.00  0.00    +0.000 OA
ATOM      8  C   UNL     1      -5.527   3.332 125.428  0.00  0.00    +0.000 C 
ENDBRANCH   3   7
BRANCH   4   9
ATOM      9  O   UNL     1      -8.349   3.709 123.163  0.00  0.00    +0.000 OA
ATOM     10  H   UNL     1      -7.409   3.973 123.184  0.00  0.00    +0.000 HD
ENDBRANCH   4   9
BRANCH   1  11
ATOM     11  C   UNL     1      -8.753  -1.068 126.177  0.00  0.00    +0.000 C 
BRANCH  11  12
ATOM     12  O   UNL     1      -9.646  -1.973 125.529  0.00  0.00    +0.000 OA
BRANCH  12  13
ATOM     13  C   UNL     1      -8.935  -3.018 124.881  0.00  0.00    +0.000 C 
BRANCH  13  14
ATOM     14  C   UNL     1      -9.342  -3.042 123.416  0.00  0.00    +0.000 C 
BRANCH  14  16
ATOM     15  C   UNL     1      -6.999  -2.208 123.083  0.00  0.00    +0.000 C 
ATOM     16  C   UNL     1      -8.435  -2.132 122.599  0.00  0.00    +0.000 C 
ENDBRANCH  14  16
ENDBRANCH  13  14
ENDBRANCH  12  13
ENDBRANCH  11  12
ENDBRANCH   1  11
TORSDOF 7
ENDMDL
