MODEL 1
REMARK VINA RESULT:      -8.7      0.000      0.000
REMARK  Name = Vardenafil
REMARK  12 active torsions:
REMARK  status: ('A' for Active; 'I' for Inactive)
REMARK    1  A    between atoms: C_1  and  C_2
REMARK    2  A    between atoms: C_2  and  C_3
REMARK    3  A    between atoms: C_3  and  C_4
REMARK    4  A    between atoms: C_6  and  C_7
REMARK    5  A    between atoms: C_11  and  C_15
REMARK    6  A    between atoms: C_16  and  O_17
REMARK    7  A    between atoms: O_17  and  C_18
REMARK    8  A    between atoms: C_18  and  C_19
REMARK    9  A    between atoms: C_22  and  S_24
REMARK   10  A    between atoms: S_24  and  N_27
REMARK   11  A    between atoms: N_30  and  C_31
REMARK   12  A    between atoms: C_31  and  C_32
REMARK                            x       y       z     vdW  Elec       q    Type
REMARK                         _______ _______ _______ _____ _____    ______ ____
ROOT
ATOM      1  C   UNL     1      -6.660   2.405 124.105  0.00  0.00    +0.000 A 
ATOM      2  C   UNL     1      -6.218   3.431 123.327  0.00  0.00    +0.000 A 
ATOM      3  C   UNL     1      -5.781   4.629 124.000  0.00  0.00    +0.000 A 
ATOM      4  C   UNL     1      -5.901   4.867 125.418  0.00  0.00    +0.000 A 
ATOM      5  C   UNL     1      -6.273   3.819 126.203  0.00  0.00    +0.000 A 
ATOM      6  C   UNL     1      -6.632   2.732 125.442  0.00  0.00    +0.000 A 
ENDROOT
BRANCH   1  14
ATOM      7  C   UNL     1      -6.560  -2.605 124.216  0.00  0.00    +0.000 A 
ATOM      8  N   UNL     1      -7.526  -3.496 124.041  0.00  0.00    +0.000 NA
ATOM      9  C   UNL     1      -8.638  -2.784 123.650  0.00  0.00    +0.000 A 
ATOM     10  C   UNL     1      -9.936  -3.450 123.375  0.00  0.00    +0.000 C 
ATOM     11  C   UNL     1      -8.316  -1.448 123.548  0.00  0.00    +0.000 A 
ATOM     12  N   UNL     1      -7.040  -1.326 123.980  0.00  0.00    +0.000 N 
ATOM     13  N   UNL     1      -6.495  -0.090 124.196  0.00  0.00    +0.000 N 
ATOM     14  C   UNL     1      -7.207   0.992 123.725  0.00  0.00    +0.000 A 
ATOM     15  N   UNL     1      -8.349   0.892 123.111  0.00  0.00    +0.000 NA
ATOM     16  C   UNL     1      -9.080  -0.301 123.156  0.00  0.00    +0.000 A 
ATOM     17  O   UNL     1     -10.274  -0.343 122.981  0.00  0.00    +0.000 OA
ATOM     18  H   UNL     1      -5.541   0.010 124.482  0.00  0.00    +0.000 HD
BRANCH   7  19
ATOM     19  C   UNL     1      -5.168  -2.961 124.640  0.00  0.00    +0.000 C 
BRANCH  19  21
ATOM     20  C   UNL     1      -4.213  -4.983 123.424  0.00  0.00    +0.000 C 
ATOM     21  C   UNL     1      -4.309  -3.479 123.501  0.00  0.00    +0.000 C 
ENDBRANCH  19  21
ENDBRANCH   7  19
ENDBRANCH   1  14
BRANCH   5  22
ATOM     22  S   UNL     1      -6.142   3.728 128.033  0.00  0.00    +0.000 S 
ATOM     23  O   UNL     1      -4.722   3.695 128.320  0.00  0.00    +0.000 OA
ATOM     24  O   UNL     1      -6.986   4.793 128.537  0.00  0.00    +0.000 OA
BRANCH  22  25
ATOM     25  N   UNL     1      -6.778   2.259 128.729  0.00  0.00    +0.000 NA
ATOM     26  C   UNL     1      -6.085   1.649 129.902  0.00  0.00    +0.000 C 
ATOM     27  C   UNL     1      -6.442   2.431 131.135  0.00  0.00    +0.000 C 
ATOM     28  N   UNL     1      -7.952   2.667 131.280  0.00  0.00    +0.000 NA
ATOM     29  C   UNL     1      -8.731   2.976 129.984  0.00  0.00    +0.000 C 
ATOM     30  C   UNL     1      -8.265   2.104 128.846  0.00  0.00    +0.000 C 
BRANCH  28  31
ATOM     31  C   UNL     1      -8.527   1.528 131.960  0.00  0.00    +0.000 C 
ATOM     32  C   UNL     1     -10.028   1.677 132.068  0.00  0.00    +0.000 C 
ENDBRANCH  28  31
ENDBRANCH  22  25
ENDBRANCH   5  22
BRANCH   2  33
ATOM     33  O   UNL     1      -6.240   3.446 121.956  0.00  0.00    +0.000 OA
BRANCH  33  34
ATOM     34  C   UNL     1      -5.157   4.165 121.359  0.00  0.00    +0.000 C 
ATOM     35  C   UNL     1      -5.511   4.795 120.055  0.00  0.00    +0.000 C 
ENDBRANCH  33  34
ENDBRANCH   2  33
TORSDOF 8
ENDMDL
MODEL 2
REMARK VINA RESULT:      -8.5      3.293      5.542
REMARK  Name = Vardenafil
REMARK  12 active torsions:
REMARK  status: ('A' for Active; 'I' for Inactive)
REMARK    1  A    between atoms: C_1  and  C_2
REMARK    2  A    between atoms: C_2  and  C_3
REMARK    3  A    between atoms: C_3  and  C_4
REMARK    4  A    between atoms: C_6  and  C_7
REMARK    5  A    between atoms: C_11  and  C_15
REMARK    6  A    between atoms: C_16  and  O_17
REMARK    7  A    between atoms: O_17  and  C_18
REMARK    8  A    between atoms: C_18  and  C_19
REMARK    9  A    between atoms: C_22  and  S_24
REMARK   10  A    between atoms: S_24  and  N_27
REMARK   11  A    between atoms: N_30  and  C_31
REMARK   12  A    between atoms: C_31  and  C_32
REMARK                            x       y       z     vdW  Elec       q    Type
REMARK                         _______ _______ _______ _____ _____    ______ ____
ROOT
ATOM      1  C   UNL     1      -8.127   1.016 128.625  0.00  0.00    +0.000 A 
ATOM      2  C   UNL     1      -7.904   0.200 129.692  0.00  0.00    +0.000 A 
ATOM      3  C   UNL     1      -7.851   0.817 130.994  0.00  0.00    +0.000 A 
ATOM      4  C   UNL     1      -7.882   2.239 131.234  0.00  0.00    +0.000 A 
ATOM      5  C   UNL     1      -8.175   3.048 130.180  0.00  0.00    +0.000 A 
ATOM      6  C   UNL     1      -8.231   2.334 129.006  0.00  0.00    +0.000 A 
ENDROOT
BRANCH   1  14
ATOM      7  C   UNL     1      -6.967  -1.594 124.506  0.00  0.00    +0.000 A 
ATOM      8  N   UNL     1      -7.636  -1.774 123.376  0.00  0.00    +0.000 NA
ATOM      9  C   UNL     1      -8.737  -0.949 123.447  0.00  0.00    +0.000 A 
ATOM     10  C   UNL     1      -9.742  -0.890 122.355  0.00  0.00    +0.000 C 
ATOM     11  C   UNL     1      -8.699  -0.233 124.623  0.00  0.00    +0.000 A 
ATOM     12  N   UNL     1      -7.637  -0.695 125.322  0.00  0.00    +0.000 N 
ATOM     13  N   UNL     1      -7.450  -0.328 126.626  0.00  0.00    +0.000 N 
ATOM     14  C   UNL     1      -8.235   0.701 127.099  0.00  0.00    +0.000 A 
ATOM     15  N   UNL     1      -9.129   1.315 126.380  0.00  0.00    +0.000 NA
ATOM     16  C   UNL     1      -9.568   0.769 125.169  0.00  0.00    +0.000 A 
ATOM     17  O   UNL     1     -10.636   1.040 124.678  0.00  0.00    +0.000 OA
ATOM     18  H   UNL     1      -6.648  -0.638 127.139  0.00  0.00    +0.000 HD
BRANCH   7  19
ATOM     19  C   UNL     1      -5.689  -2.302 124.837  0.00  0.00    +0.000 C 
BRANCH  19  21
ATOM     20  C   UNL     1      -4.487  -4.321 123.859  0.00  0.00    +0.000 C 
ATOM     21  C   UNL     1      -5.021  -2.929 123.627  0.00  0.00    +0.000 C 
ENDBRANCH  19  21
ENDBRANCH   7  19
ENDBRANCH   1  14
BRANCH   5  22
ATOM     22  S   UNL     1      -8.647   4.822 130.266  0.00  0.00    +0.000 S 
ATOM     23  O   UNL     1      -8.895   5.090 131.668  0.00  0.00    +0.000 OA
ATOM     24  O   UNL     1      -7.618   5.535 129.535  0.00  0.00    +0.000 OA
BRANCH  22  25
ATOM     25  N   UNL     1     -10.147   5.209 129.460  0.00  0.00    +0.000 NA
ATOM     26  C   UNL     1     -11.438   4.953 130.163  0.00  0.00    +0.000 C 
ATOM     27  C   UNL     1     -11.660   6.040 131.178  0.00  0.00    +0.000 C 
ATOM     28  N   UNL     1     -11.462   7.449 130.601  0.00  0.00    +0.000 NA
ATOM     29  C   UNL     1     -10.304   7.629 129.598  0.00  0.00    +0.000 C 
ATOM     30  C   UNL     1     -10.221   6.466 128.645  0.00  0.00    +0.000 C 
BRANCH  28  31
ATOM     31  C   UNL     1     -12.713   7.880 130.017  0.00  0.00    +0.000 C 
ATOM     32  C   UNL     1     -12.513   9.141 129.206  0.00  0.00    +0.000 C 
ENDBRANCH  28  31
ENDBRANCH  22  25
ENDBRANCH   5  22
BRANCH   2  33
ATOM     33  O   UNL     1      -7.642  -1.144 129.615  0.00  0.00    +0.000 OA
BRANCH  33  34
ATOM     34  C   UNL     1      -7.388  -1.766 130.878  0.00  0.00    +0.000 C 
ATOM     35  C   UNL     1      -7.020  -3.207 130.765  0.00  0.00    +0.000 C 
ENDBRANCH  33  34
ENDBRANCH   2  33
TORSDOF 8
ENDMDL
MODEL 3
REMARK VINA RESULT:      -8.4      2.989      5.773
REMARK  Name = Vardenafil
REMARK  12 active torsions:
REMARK  status: ('A' for Active; 'I' for Inactive)
REMARK    1  A    between atoms: C_1  and  C_2
REMARK    2  A    between atoms: C_2  and  C_3
REMARK    3  A    between atoms: C_3  and  C_4
REMARK    4  A    between atoms: C_6  and  C_7
REMARK    5  A    between atoms: C_11  and  C_15
REMARK    6  A    between atoms: C_16  and  O_17
REMARK    7  A    between atoms: O_17  and  C_18
REMARK    8  A    between atoms: C_18  and  C_19
REMARK    9  A    between atoms: C_22  and  S_24
REMARK   10  A    between atoms: S_24  and  N_27
REMARK   11  A    between atoms: N_30  and  C_31
REMARK   12  A    between atoms: C_31  and  C_32
REMARK                            x       y       z     vdW  Elec       q    Type
REMARK                         _______ _______ _______ _____ _____    ______ ____
ROOT
ATOM      1  C   UNL     1      -8.622  -1.282 126.356  0.00  0.00    +0.000 A 
ATOM      2  C   UNL     1      -9.128  -2.531 126.158  0.00  0.00    +0.000 A 
ATOM      3  C   UNL     1      -8.907  -3.504 127.200  0.00  0.00    +0.000 A 
ATOM      4  C   UNL     1      -8.083  -3.291 128.364  0.00  0.00    +0.000 A 
ATOM      5  C   UNL     1      -7.638  -2.026 128.598  0.00  0.00    +0.000 A 
ATOM      6  C   UNL     1      -7.941  -1.191 127.548  0.00  0.00    +0.000 A 
ENDROOT
BRANCH   1  14
ATOM      7  C   UNL     1      -6.587   2.836 124.350  0.00  0.00    +0.000 A 
ATOM      8  N   UNL     1      -6.881   3.496 123.238  0.00  0.00    +0.000 NA
ATOM      9  C   UNL     1      -8.024   2.913 122.737  0.00  0.00    +0.000 A 
ATOM     10  C   UNL     1      -8.651   3.379 121.475  0.00  0.00    +0.000 C 
ATOM     11  C   UNL     1      -8.442   1.915 123.590  0.00  0.00    +0.000 A 
ATOM     12  N   UNL     1      -7.500   1.813 124.556  0.00  0.00    +0.000 N 
ATOM     13  N   UNL     1      -7.522   0.771 125.440  0.00  0.00    +0.000 N 
ATOM     14  C   UNL     1      -8.660  -0.006 125.455  0.00  0.00    +0.000 A 
ATOM     15  N   UNL     1      -9.682   0.198 124.677  0.00  0.00    +0.000 NA
ATOM     16  C   UNL     1      -9.572   1.033 123.560  0.00  0.00    +0.000 A 
ATOM     17  O   UNL     1     -10.305   0.948 122.604  0.00  0.00    +0.000 OA
ATOM     18  H   UNL     1      -6.849   0.707 126.179  0.00  0.00    +0.000 HD
BRANCH   7  19
ATOM     19  C   UNL     1      -5.410   3.156 125.220  0.00  0.00    +0.000 C 
BRANCH  19  21
ATOM     20  C   UNL     1      -4.888   4.692 127.181  0.00  0.00    +0.000 C 
ATOM     21  C   UNL     1      -5.449   4.564 125.786  0.00  0.00    +0.000 C 
ENDBRANCH  19  21
ENDBRANCH   7  19
ENDBRANCH   1  14
BRANCH   5  22
ATOM     22  S   UNL     1      -6.909  -1.400 130.164  0.00  0.00    +0.000 S 
ATOM     23  O   UNL     1      -7.755  -1.916 131.220  0.00  0.00    +0.000 OA
ATOM     24  O   UNL     1      -5.500  -1.734 130.098  0.00  0.00    +0.000 OA
BRANCH  22  25
ATOM     25  N   UNL     1      -6.970   0.336 130.344  0.00  0.00    +0.000 NA
ATOM     26  C   UNL     1      -8.297   1.009 130.461  0.00  0.00    +0.000 C 
ATOM     27  C   UNL     1      -8.820   0.808 131.856  0.00  0.00    +0.000 C 
ATOM     28  N   UNL     1      -7.784   1.144 132.939  0.00  0.00    +0.000 NA
ATOM     29  C   UNL     1      -6.325   0.730 132.653  0.00  0.00    +0.000 C 
ATOM     30  C   UNL     1      -5.952   1.003 131.219  0.00  0.00    +0.000 C 
BRANCH  28  31
ATOM     31  C   UNL     1      -7.865   2.560 133.222  0.00  0.00    +0.000 C 
ATOM     32  C   UNL     1      -9.309   2.997 133.325  0.00  0.00    +0.000 C 
ENDBRANCH  28  31
ENDBRANCH  22  25
ENDBRANCH   5  22
BRANCH   2  33
ATOM     33  O   UNL     1      -9.751  -2.956 125.014  0.00  0.00    +0.000 OA
BRANCH  33  34
ATOM     34  C   UNL     1      -8.870  -3.531 124.044  0.00  0.00    +0.000 C 
ATOM     35  C   UNL     1      -8.661  -2.666 122.847  0.00  0.00    +0.000 C 
ENDBRANCH  33  34
ENDBRANCH   2  33
TORSDOF 8
ENDMDL
MODEL 4
REMARK VINA RESULT:      -8.4      3.514      4.975
REMARK  Name = Vardenafil
REMARK  12 active torsions:
REMARK  status: ('A' for Active; 'I' for Inactive)
REMARK    1  A    between atoms: C_1  and  C_2
REMARK    2  A    between atoms: C_2  and  C_3
REMARK    3  A    between atoms: C_3  and  C_4
REMARK    4  A    between atoms: C_6  and  C_7
REMARK    5  A    between atoms: C_11  and  C_15
REMARK    6  A    between atoms: C_16  and  O_17
REMARK    7  A    between atoms: O_17  and  C_18
REMARK    8  A    between atoms: C_18  and  C_19
REMARK    9  A    between atoms: C_22  and  S_24
REMARK   10  A    between atoms: S_24  and  N_27
REMARK   11  A    between atoms: N_30  and  C_31
REMARK   12  A    between atoms: C_31  and  C_32
REMARK                            x       y       z     vdW  Elec       q    Type
REMARK                         _______ _______ _______ _____ _____    ______ ____
ROOT
ATOM      1  C   UNL     1      -6.723   3.394 127.488  0.00  0.00    +0.000 A 
ATOM      2  C   UNL     1      -5.481   3.876 127.769  0.00  0.00    +0.000 A 
ATOM      3  C   UNL     1      -5.330   4.648 128.977  0.00  0.00    +0.000 A 
ATOM      4  C   UNL     1      -6.417   5.056 129.834  0.00  0.00    +0.000 A 
ATOM      5  C   UNL     1      -7.643   4.517 129.596  0.00  0.00    +0.000 A 
ATOM      6  C   UNL     1      -7.644   3.778 128.436  0.00  0.00    +0.000 A 
ENDROOT
BRANCH   1  14
ATOM      7  C   UNL     1      -8.474  -0.824 125.422  0.00  0.00    +0.000 A 
ATOM      8  N   UNL     1      -9.210  -1.018 124.338  0.00  0.00    +0.000 NA
ATOM      9  C   UNL     1      -9.320   0.210 123.724  0.00  0.00    +0.000 A 
ATOM     10  C   UNL     1     -10.097   0.393 122.472  0.00  0.00    +0.000 C 
ATOM     11  C   UNL     1      -8.598   1.145 124.434  0.00  0.00    +0.000 A 
ATOM     12  N   UNL     1      -8.136   0.516 125.539  0.00  0.00    +0.000 N 
ATOM     13  N   UNL     1      -7.554   1.228 126.552  0.00  0.00    +0.000 N 
ATOM     14  C   UNL     1      -7.246   2.544 126.287  0.00  0.00    +0.000 A 
ATOM     15  N   UNL     1      -7.488   3.126 125.148  0.00  0.00    +0.000 NA
ATOM     16  C   UNL     1      -8.355   2.541 124.219  0.00  0.00    +0.000 A 
ATOM     17  O   UNL     1      -8.931   3.178 123.371  0.00  0.00    +0.000 OA
ATOM     18  H   UNL     1      -7.179   0.766 127.357  0.00  0.00    +0.000 HD
BRANCH   7  19
ATOM     19  C   UNL     1      -8.103  -1.914 126.381  0.00  0.00    +0.000 C 
BRANCH  19  21
ATOM     20  C   UNL     1      -9.024  -3.924 127.642  0.00  0.00    +0.000 C 
ATOM     21  C   UNL     1      -9.108  -3.050 126.415  0.00  0.00    +0.000 C 
ENDBRANCH  19  21
ENDBRANCH   7  19
ENDBRANCH   1  14
BRANCH   5  22
ATOM     22  S   UNL     1      -9.090   4.556 130.729  0.00  0.00    +0.000 S 
ATOM     23  O   UNL     1     -10.189   3.990 129.974  0.00  0.00    +0.000 OA
ATOM     24  O   UNL     1      -8.634   3.950 131.964  0.00  0.00    +0.000 OA
BRANCH  22  25
ATOM     25  N   UNL     1      -9.621   6.162 131.163  0.00  0.00    +0.000 NA
ATOM     26  C   UNL     1      -9.315   7.302 130.250  0.00  0.00    +0.000 C 
ATOM     27  C   UNL     1     -10.268   7.261 129.089  0.00  0.00    +0.000 C 
ATOM     28  N   UNL     1     -11.734   7.103 129.520  0.00  0.00    +0.000 NA
ATOM     29  C   UNL     1     -12.007   6.156 130.706  0.00  0.00    +0.000 C 
ATOM     30  C   UNL     1     -10.974   6.325 131.790  0.00  0.00    +0.000 C 
BRANCH  28  31
ATOM     31  C   UNL     1     -12.273   8.419 129.784  0.00  0.00    +0.000 C 
ATOM     32  C   UNL     1     -13.080   8.908 128.602  0.00  0.00    +0.000 C 
ENDBRANCH  28  31
ENDBRANCH  22  25
ENDBRANCH   5  22
BRANCH   2  33
ATOM     33  O   UNL     1      -4.387   3.758 126.950  0.00  0.00    +0.000 OA
BRANCH  33  34
ATOM     34  C   UNL     1      -3.392   2.849 127.428  0.00  0.00    +0.000 C 
ATOM     35  C   UNL     1      -2.007   3.214 127.013  0.00  0.00    +0.000 C 
ENDBRANCH  33  34
ENDBRANCH   2  33
TORSDOF 8
ENDMDL
MODEL 5
REMARK VINA RESULT:      -8.3      3.454      5.622
REMARK  Name = Vardenafil
REMARK  12 active torsions:
REMARK  status: ('A' for Active; 'I' for Inactive)
REMARK    1  A    between atoms: C_1  and  C_2
REMARK    2  A    between atoms: C_2  and  C_3
REMARK    3  A    between atoms: C_3  and  C_4
REMARK    4  A    between atoms: C_6  and  C_7
REMARK    5  A    between atoms: C_11  and  C_15
REMARK    6  A    between atoms: C_16  and  O_17
REMARK    7  A    between atoms: O_17  and  C_18
REMARK    8  A    between atoms: C_18  and  C_19
REMARK    9  A    between atoms: C_22  and  S_24
REMARK   10  A    between atoms: S_24  and  N_27
REMARK   11  A    between atoms: N_30  and  C_31
REMARK   12  A    between atoms: C_31  and  C_32
REMARK                            x       y       z     vdW  Elec       q    Type
REMARK                         _______ _______ _______ _____ _____    ______ ____
ROOT
ATOM      1  C   UNL     1      -7.729  -0.907 129.152  0.00  0.00    +0.000 A 
ATOM      2  C   UNL     1      -7.332  -2.014 129.839  0.00  0.00    +0.000 A 
ATOM      3  C   UNL     1      -7.315  -1.925 131.278  0.00  0.00    +0.000 A 
ATOM      4  C   UNL     1      -7.557  -0.720 132.032  0.00  0.00    +0.000 A 
ATOM      5  C   UNL     1      -8.022   0.364 131.354  0.00  0.00    +0.000 A 
ATOM      6  C   UNL     1      -8.021   0.139 129.997  0.00  0.00    +0.000 A 
ENDROOT
BRANCH   1  14
ATOM      7  C   UNL     1      -7.518  -2.308 124.344  0.00  0.00    +0.000 A 
ATOM      8  N   UNL     1      -8.122  -1.818 123.270  0.00  0.00    +0.000 NA
ATOM      9  C   UNL     1      -8.768  -0.673 123.682  0.00  0.00    +0.000 A 
ATOM     10  C   UNL     1      -9.576   0.149 122.747  0.00  0.00    +0.000 C 
ATOM     11  C   UNL     1      -8.508  -0.455 125.018  0.00  0.00    +0.000 A 
ATOM     12  N   UNL     1      -7.794  -1.519 125.451  0.00  0.00    +0.000 N 
ATOM     13  N   UNL     1      -7.557  -1.700 126.785  0.00  0.00    +0.000 N 
ATOM     14  C   UNL     1      -7.858  -0.644 127.618  0.00  0.00    +0.000 A 
ATOM     15  N   UNL     1      -8.354   0.484 127.201  0.00  0.00    +0.000 NA
ATOM     16  C   UNL     1      -8.902   0.590 125.917  0.00  0.00    +0.000 A 
ATOM     17  O   UNL     1      -9.717   1.430 125.621  0.00  0.00    +0.000 OA
ATOM     18  H   UNL     1      -7.000  -2.466 127.110  0.00  0.00    +0.000 HD
BRANCH   7  19
ATOM     19  C   UNL     1      -6.689  -3.555 124.335  0.00  0.00    +0.000 C 
BRANCH  19  21
ATOM     20  C   UNL     1      -4.436  -4.496 123.614  0.00  0.00    +0.000 C 
ATOM     21  C   UNL     1      -5.215  -3.293 124.088  0.00  0.00    +0.000 C 
ENDBRANCH  19  21
ENDBRANCH   7  19
ENDBRANCH   1  14
BRANCH   5  22
ATOM     22  S   UNL     1      -8.761   1.877 132.091  0.00  0.00    +0.000 S 
ATOM     23  O   UNL     1     -10.192   1.733 131.920  0.00  0.00    +0.000 OA
ATOM     24  O   UNL     1      -8.170   1.996 133.409  0.00  0.00    +0.000 OA
BRANCH  22  25
ATOM     25  N   UNL     1      -8.354   3.357 131.259  0.00  0.00    +0.000 NA
ATOM     26  C   UNL     1      -9.135   3.750 130.049  0.00  0.00    +0.000 C 
ATOM     27  C   UNL     1     -10.455   4.318 130.490  0.00  0.00    +0.000 C 
ATOM     28  N   UNL     1     -10.316   5.380 131.590  0.00  0.00    +0.000 NA
ATOM     29  C   UNL     1      -9.250   5.115 132.675  0.00  0.00    +0.000 C 
ATOM     30  C   UNL     1      -7.985   4.560 132.074  0.00  0.00    +0.000 C 
BRANCH  28  31
ATOM     31  C   UNL     1     -10.092   6.661 130.958  0.00  0.00    +0.000 C 
ATOM     32  C   UNL     1     -11.117   6.903 129.873  0.00  0.00    +0.000 C 
ENDBRANCH  28  31
ENDBRANCH  22  25
ENDBRANCH   5  22
BRANCH   2  33
ATOM     33  O   UNL     1      -6.867  -3.170 129.268  0.00  0.00    +0.000 OA
BRANCH  33  34
ATOM     34  C   UNL     1      -5.547  -3.538 129.678  0.00  0.00    +0.000 C 
ATOM     35  C   UNL     1      -4.475  -2.937 128.834  0.00  0.00    +0.000 C 
ENDBRANCH  33  34
ENDBRANCH   2  33
TORSDOF 8
ENDMDL
MODEL 6
REMARK VINA RESULT:      -8.2      2.755      8.192
REMARK  Name = Vardenafil
REMARK  12 active torsions:
REMARK  status: ('A' for Active; 'I' for Inactive)
REMARK    1  A    between atoms: C_1  and  C_2
REMARK    2  A    between atoms: C_2  and  C_3
REMARK    3  A    between atoms: C_3  and  C_4
REMARK    4  A    between atoms: C_6  and  C_7
REMARK    5  A    between atoms: C_11  and  C_15
REMARK    6  A    between atoms: C_16  and  O_17
REMARK    7  A    between atoms: O_17  and  C_18
REMARK    8  A    between atoms: C_18  and  C_19
REMARK    9  A    between atoms: C_22  and  S_24
REMARK   10  A    between atoms: S_24  and  N_27
REMARK   11  A    between atoms: N_30  and  C_31
REMARK   12  A    between atoms: C_31  and  C_32
REMARK                            x       y       z     vdW  Elec       q    Type
REMARK                         _______ _______ _______ _____ _____    ______ ____
ROOT
ATOM      1  C   UNL     1      -7.071   3.268 126.579  0.00  0.00    +0.000 A 
ATOM      2  C   UNL     1      -6.047   3.624 125.754  0.00  0.00    +0.000 A 
ATOM      3  C   UNL     1      -6.024   3.033 124.439  0.00  0.00    +0.000 A 
ATOM      4  C   UNL     1      -6.922   2.000 123.984  0.00  0.00    +0.000 A 
ATOM      5  C   UNL     1      -7.985   1.697 124.777  0.00  0.00    +0.000 A 
ATOM      6  C   UNL     1      -7.906   2.350 125.985  0.00  0.00    +0.000 A 
ENDROOT
BRANCH   1  14
ATOM      7  C   UNL     1      -6.056   5.618 130.888  0.00  0.00    +0.000 A 
ATOM      8  N   UNL     1      -6.860   6.071 131.839  0.00  0.00    +0.000 NA
ATOM      9  C   UNL     1      -8.126   5.640 131.509  0.00  0.00    +0.000 A 
ATOM     10  C   UNL     1      -9.308   5.973 132.343  0.00  0.00    +0.000 C 
ATOM     11  C   UNL     1      -8.067   4.878 130.362  0.00  0.00    +0.000 A 
ATOM     12  N   UNL     1      -6.786   4.932 129.930  0.00  0.00    +0.000 N 
ATOM     13  N   UNL     1      -6.448   4.445 128.697  0.00  0.00    +0.000 N 
ATOM     14  C   UNL     1      -7.402   3.694 128.045  0.00  0.00    +0.000 A 
ATOM     15  N   UNL     1      -8.581   3.444 128.533  0.00  0.00    +0.000 NA
ATOM     16  C   UNL     1      -9.072   4.176 129.620  0.00  0.00    +0.000 A 
ATOM     17  O   UNL     1     -10.251   4.292 129.852  0.00  0.00    +0.000 OA
ATOM     18  H   UNL     1      -5.498   4.449 128.384  0.00  0.00    +0.000 HD
BRANCH   7  19
ATOM     19  C   UNL     1      -4.577   5.857 130.866  0.00  0.00    +0.000 C 
BRANCH  19  21
ATOM     20  C   UNL     1      -4.188   8.189 129.924  0.00  0.00    +0.000 C 
ATOM     21  C   UNL     1      -4.200   7.300 131.143  0.00  0.00    +0.000 C 
ENDBRANCH  19  21
ENDBRANCH   7  19
ENDBRANCH   1  14
BRANCH   5  22
ATOM     22  S   UNL     1      -9.464   0.721 124.291  0.00  0.00    +0.000 S 
ATOM     23  O   UNL     1     -10.448   0.965 125.326  0.00  0.00    +0.000 OA
ATOM     24  O   UNL     1      -9.725   1.071 122.909  0.00  0.00    +0.000 OA
BRANCH  22  25
ATOM     25  N   UNL     1      -9.221  -1.008 124.298  0.00  0.00    +0.000 NA
ATOM     26  C   UNL     1      -8.710  -1.677 123.066  0.00  0.00    +0.000 C 
ATOM     27  C   UNL     1      -7.230  -1.432 122.962  0.00  0.00    +0.000 C 
ATOM     28  N   UNL     1      -6.478  -1.733 124.266  0.00  0.00    +0.000 NA
ATOM     29  C   UNL     1      -7.181  -1.329 125.578  0.00  0.00    +0.000 C 
ATOM     30  C   UNL     1      -8.653  -1.648 125.530  0.00  0.00    +0.000 C 
BRANCH  28  31
ATOM     31  C   UNL     1      -6.141  -3.139 124.281  0.00  0.00    +0.000 C 
ATOM     32  C   UNL     1      -4.833  -3.378 123.560  0.00  0.00    +0.000 C 
ENDBRANCH  28  31
ENDBRANCH  22  25
ENDBRANCH   5  22
BRANCH   2  33
ATOM     33  O   UNL     1      -4.995   4.429 126.108  0.00  0.00    +0.000 OA
BRANCH  33  34
ATOM     34  C   UNL     1      -3.752   3.738 126.259  0.00  0.00    +0.000 C 
ATOM     35  C   UNL     1      -2.915   4.261 127.377  0.00  0.00    +0.000 C 
ENDBRANCH  33  34
ENDBRANCH   2  33
TORSDOF 8
ENDMDL
MODEL 7
REMARK VINA RESULT:      -8.0      3.368      5.656
REMARK  Name = Vardenafil
REMARK  12 active torsions:
REMARK  status: ('A' for Active; 'I' for Inactive)
REMARK    1  A    between atoms: C_1  and  C_2
REMARK    2  A    between atoms: C_2  and  C_3
REMARK    3  A    between atoms: C_3  and  C_4
REMARK    4  A    between atoms: C_6  and  C_7
REMARK    5  A    between atoms: C_11  and  C_15
REMARK    6  A    between atoms: C_16  and  O_17
REMARK    7  A    between atoms: O_17  and  C_18
REMARK    8  A    between atoms: C_18  and  C_19
REMARK    9  A    between atoms: C_22  and  S_24
REMARK   10  A    between atoms: S_24  and  N_27
REMARK   11  A    between atoms: N_30  and  C_31
REMARK   12  A    between atoms: C_31  and  C_32
REMARK                            x       y       z     vdW  Elec       q    Type
REMARK                         _______ _______ _______ _____ _____    ______ ____
ROOT
ATOM      1  C   UNL     1      -6.224   4.167 128.169  0.00  0.00    +0.000 A 
ATOM      2  C   UNL     1      -4.969   4.630 128.428  0.00  0.00    +0.000 A 
ATOM      3  C   UNL     1      -4.775   5.353 129.661  0.00  0.00    +0.000 A 
ATOM      4  C   UNL     1      -5.830   5.734 130.567  0.00  0.00    +0.000 A 
ATOM      5  C   UNL     1      -7.068   5.212 130.348  0.00  0.00    +0.000 A 
ATOM      6  C   UNL     1      -7.111   4.519 129.160  0.00  0.00    +0.000 A 
ENDROOT
BRANCH   1  14
ATOM      7  C   UNL     1      -6.393   2.948 123.310  0.00  0.00    +0.000 A 
ATOM      8  N   UNL     1      -6.814   1.847 122.706  0.00  0.00    +0.000 NA
ATOM      9  C   UNL     1      -7.382   1.064 123.688  0.00  0.00    +0.000 A 
ATOM     10  C   UNL     1      -7.955  -0.272 123.389  0.00  0.00    +0.000 C 
ATOM     11  C   UNL     1      -7.336   1.733 124.892  0.00  0.00    +0.000 A 
ATOM     12  N   UNL     1      -6.646   2.876 124.672  0.00  0.00    +0.000 N 
ATOM     13  N   UNL     1      -6.250   3.661 125.719  0.00  0.00    +0.000 N 
ATOM     14  C   UNL     1      -6.791   3.369 126.952  0.00  0.00    +0.000 A 
ATOM     15  N   UNL     1      -7.630   2.397 127.159  0.00  0.00    +0.000 NA
ATOM     16  C   UNL     1      -7.807   1.391 126.202  0.00  0.00    +0.000 A 
ATOM     17  O   UNL     1      -8.224   0.293 126.477  0.00  0.00    +0.000 OA
ATOM     18  H   UNL     1      -5.770   4.525 125.562  0.00  0.00    +0.000 HD
BRANCH   7  19
ATOM     19  C   UNL     1      -5.716   4.079 122.598  0.00  0.00    +0.000 C 
BRANCH  19  21
ATOM     20  C   UNL     1      -6.117   4.392 120.104  0.00  0.00    +0.000 C 
ATOM     21  C   UNL     1      -5.295   3.729 121.183  0.00  0.00    +0.000 C 
ENDBRANCH  19  21
ENDBRANCH   7  19
ENDBRANCH   1  14
BRANCH   5  22
ATOM     22  S   UNL     1      -8.477   5.216 131.526  0.00  0.00    +0.000 S 
ATOM     23  O   UNL     1      -9.284   4.066 131.171  0.00  0.00    +0.000 OA
ATOM     24  O   UNL     1      -7.884   5.341 132.843  0.00  0.00    +0.000 OA
BRANCH  22  25
ATOM     25  N   UNL     1      -9.548   6.586 131.364  0.00  0.00    +0.000 NA
ATOM     26  C   UNL     1      -9.452   7.445 130.148  0.00  0.00    +0.000 C 
ATOM     27  C   UNL     1     -10.121   6.739 129.002  0.00  0.00    +0.000 C 
ATOM     28  N   UNL     1     -11.518   6.209 129.357  0.00  0.00    +0.000 NA
ATOM     29  C   UNL     1     -11.693   5.612 130.769  0.00  0.00    +0.000 C 
ATOM     30  C   UNL     1     -10.974   6.437 131.804  0.00  0.00    +0.000 C 
BRANCH  28  31
ATOM     31  C   UNL     1     -12.476   7.269 129.130  0.00  0.00    +0.000 C 
ATOM     32  C   UNL     1     -13.561   6.808 128.182  0.00  0.00    +0.000 C 
ENDBRANCH  28  31
ENDBRANCH  22  25
ENDBRANCH   5  22
BRANCH   2  33
ATOM     33  O   UNL     1      -3.903   4.537 127.571  0.00  0.00    +0.000 OA
BRANCH  33  34
ATOM     34  C   UNL     1      -3.003   3.467 127.868  0.00  0.00    +0.000 C 
ATOM     35  C   UNL     1      -2.054   3.165 126.758  0.00  0.00    +0.000 C 
ENDBRANCH  33  34
ENDBRANCH   2  33
TORSDOF 8
ENDMDL
MODEL 8
REMARK VINA RESULT:      -8.0      3.698      6.524
REMARK  Name = Vardenafil
REMARK  12 active torsions:
REMARK  status: ('A' for Active; 'I' for Inactive)
REMARK    1  A    between atoms: C_1  and  C_2
REMARK    2  A    between atoms: C_2  and  C_3
REMARK    3  A    between atoms: C_3  and  C_4
REMARK    4  A    between atoms: C_6  and  C_7
REMARK    5  A    between atoms: C_11  and  C_15
REMARK    6  A    between atoms: C_16  and  O_17
REMARK    7  A    between atoms: O_17  and  C_18
REMARK    8  A    between atoms: C_18  and  C_19
REMARK    9  A    between atoms: C_22  and  S_24
REMARK   10  A    between atoms: S_24  and  N_27
REMARK   11  A    between atoms: N_30  and  C_31
REMARK   12  A    between atoms: C_31  and  C_32
REMARK                            x       y       z     vdW  Elec       q    Type
REMARK                         _______ _______ _______ _____ _____    ______ ____
ROOT
ATOM      1  C   UNL     1      -7.426   2.659 128.378  0.00  0.00    +0.000 A 
ATOM      2  C   UNL     1      -7.286   1.691 129.326  0.00  0.00    +0.000 A 
ATOM      3  C   UNL     1      -7.757   1.998 130.654  0.00  0.00    +0.000 A 
ATOM      4  C   UNL     1      -8.239   3.289 131.080  0.00  0.00    +0.000 A 
ATOM      5  C   UNL     1      -8.445   4.231 130.120  0.00  0.00    +0.000 A 
ATOM      6  C   UNL     1      -7.985   3.804 128.897  0.00  0.00    +0.000 A 
ENDROOT
BRANCH   1  14
ATOM      7  C   UNL     1      -8.456   2.412 123.478  0.00  0.00    +0.000 A 
ATOM      8  N   UNL     1      -7.805   2.893 122.430  0.00  0.00    +0.000 NA
ATOM      9  C   UNL     1      -6.618   3.399 122.914  0.00  0.00    +0.000 A 
ATOM     10  C   UNL     1      -5.621   4.045 122.023  0.00  0.00    +0.000 C 
ATOM     11  C   UNL     1      -6.545   3.175 124.272  0.00  0.00    +0.000 A 
ATOM     12  N   UNL     1      -7.727   2.631 124.638  0.00  0.00    +0.000 N 
ATOM     13  N   UNL     1      -8.045   2.484 125.960  0.00  0.00    +0.000 N 
ATOM     14  C   UNL     1      -7.027   2.679 126.868  0.00  0.00    +0.000 A 
ATOM     15  N   UNL     1      -5.812   3.000 126.530  0.00  0.00    +0.000 NA
ATOM     16  C   UNL     1      -5.530   3.467 125.242  0.00  0.00    +0.000 A 
ATOM     17  O   UNL     1      -4.565   4.147 124.989  0.00  0.00    +0.000 OA
ATOM     18  H   UNL     1      -8.903   2.050 126.238  0.00  0.00    +0.000 HD
BRANCH   7  19
ATOM     19  C   UNL     1      -9.801   1.757 123.393  0.00  0.00    +0.000 C 
BRANCH  19  21
ATOM     20  C   UNL     1      -9.026  -0.656 123.622  0.00  0.00    +0.000 C 
ATOM     21  C   UNL     1      -9.754   0.368 122.786  0.00  0.00    +0.000 C 
ENDBRANCH  19  21
ENDBRANCH   7  19
ENDBRANCH   1  14
BRANCH   5  22
ATOM     22  S   UNL     1      -9.388   5.797 130.315  0.00  0.00    +0.000 S 
ATOM     23  O   UNL     1     -10.046   5.696 131.601  0.00  0.00    +0.000 OA
ATOM     24  O   UNL     1      -8.442   6.858 130.035  0.00  0.00    +0.000 OA
BRANCH  22  25
ATOM     25  N   UNL     1     -10.682   6.006 129.162  0.00  0.00    +0.000 NA
ATOM     26  C   UNL     1     -12.096   5.962 129.637  0.00  0.00    +0.000 C 
ATOM     27  C   UNL     1     -12.424   7.271 130.300  0.00  0.00    +0.000 C 
ATOM     28  N   UNL     1     -12.025   8.489 129.455  0.00  0.00    +0.000 NA
ATOM     29  C   UNL     1     -10.691   8.389 128.686  0.00  0.00    +0.000 C 
ATOM     30  C   UNL     1     -10.515   7.024 128.072  0.00  0.00    +0.000 C 
BRANCH  28  31
ATOM     31  C   UNL     1     -13.113   8.791 128.551  0.00  0.00    +0.000 C 
ATOM     32  C   UNL     1     -13.677  10.164 128.841  0.00  0.00    +0.000 C 
ENDBRANCH  28  31
ENDBRANCH  22  25
ENDBRANCH   5  22
BRANCH   2  33
ATOM     33  O   UNL     1      -6.657   0.488 129.137  0.00  0.00    +0.000 OA
BRANCH  33  34
ATOM     34  C   UNL     1      -7.546  -0.617 128.955  0.00  0.00    +0.000 C 
ATOM     35  C   UNL     1      -7.831  -0.919 127.522  0.00  0.00    +0.000 C 
ENDBRANCH  33  34
ENDBRANCH   2  33
TORSDOF 8
ENDMDL
MODEL 9
REMARK VINA RESULT:      -7.9      3.147      8.714
REMARK  Name = Vardenafil
REMARK  12 active torsions:
REMARK  status: ('A' for Active; 'I' for Inactive)
REMARK    1  A    between atoms: C_1  and  C_2
REMARK    2  A    between atoms: C_2  and  C_3
REMARK    3  A    between atoms: C_3  and  C_4
REMARK    4  A    between atoms: C_6  and  C_7
REMARK    5  A    between atoms: C_11  and  C_15
REMARK    6  A    between atoms: C_16  and  O_17
REMARK    7  A    between atoms: O_17  and  C_18
REMARK    8  A    between atoms: C_18  and  C_19
REMARK    9  A    between atoms: C_22  and  S_24
REMARK   10  A    between atoms: S_24  and  N_27
REMARK   11  A    between atoms: N_30  and  C_31
REMARK   12  A    between atoms: C_31  and  C_32
REMARK                            x       y       z     vdW  Elec       q    Type
REMARK                         _______ _______ _______ _____ _____    ______ ____
ROOT
ATOM      1  C   UNL     1      -6.612   4.278 128.163  0.00  0.00    +0.000 A 
ATOM      2  C   UNL     1      -5.327   4.723 128.092  0.00  0.00    +0.000 A 
ATOM      3  C   UNL     1      -4.528   4.256 126.986  0.00  0.00    +0.000 A 
ATOM      4  C   UNL     1      -4.944   3.256 126.034  0.00  0.00    +0.000 A 
ATOM      5  C   UNL     1      -6.248   2.866 126.061  0.00  0.00    +0.000 A 
ATOM      6  C   UNL     1      -6.906   3.406 127.141  0.00  0.00    +0.000 A 
ENDROOT
BRANCH   1  14
ATOM      7  C   UNL     1      -8.269   5.638 132.694  0.00  0.00    +0.000 A 
ATOM      8  N   UNL     1      -9.432   6.147 133.076  0.00  0.00    +0.000 NA
ATOM      9  C   UNL     1     -10.247   6.117 131.966  0.00  0.00    +0.000 A 
ATOM     10  C   UNL     1     -11.640   6.628 132.004  0.00  0.00    +0.000 C 
ATOM     11  C   UNL     1      -9.569   5.538 130.915  0.00  0.00    +0.000 A 
ATOM     12  N   UNL     1      -8.307   5.313 131.347  0.00  0.00    +0.000 N 
ATOM     13  N   UNL     1      -7.329   4.935 130.469  0.00  0.00    +0.000 N 
ATOM     14  C   UNL     1      -7.739   4.563 129.207  0.00  0.00    +0.000 A 
ATOM     15  N   UNL     1      -8.982   4.567 128.822  0.00  0.00    +0.000 NA
ATOM     16  C   UNL     1      -9.957   5.240 129.567  0.00  0.00    +0.000 A 
ATOM     17  O   UNL     1     -10.994   5.628 129.087  0.00  0.00    +0.000 OA
ATOM     18  H   UNL     1      -6.402   4.733 130.786  0.00  0.00    +0.000 HD
BRANCH   7  19
ATOM     19  C   UNL     1      -7.091   5.479 133.607  0.00  0.00    +0.000 C 
BRANCH  19  21
ATOM     20  C   UNL     1      -7.330   6.069 136.071  0.00  0.00    +0.000 C 
ATOM     21  C   UNL     1      -7.472   5.015 135.000  0.00  0.00    +0.000 C 
ENDBRANCH  19  21
ENDBRANCH   7  19
ENDBRANCH   1  14
BRANCH   5  22
ATOM     22  S   UNL     1      -7.128   1.917 124.757  0.00  0.00    +0.000 S 
ATOM     23  O   UNL     1      -8.539   2.064 125.054  0.00  0.00    +0.000 OA
ATOM     24  O   UNL     1      -6.574   2.376 123.499  0.00  0.00    +0.000 OA
BRANCH  22  25
ATOM     25  N   UNL     1      -6.837   0.196 124.796  0.00  0.00    +0.000 NA
ATOM     26  C   UNL     1      -7.170  -0.571 126.032  0.00  0.00    +0.000 C 
ATOM     27  C   UNL     1      -8.658  -0.785 126.082  0.00  0.00    +0.000 C 
ATOM     28  N   UNL     1      -9.231  -1.327 124.764  0.00  0.00    +0.000 NA
ATOM     29  C   UNL     1      -8.631  -0.755 123.463  0.00  0.00    +0.000 C 
ATOM     30  C   UNL     1      -7.135  -0.611 123.568  0.00  0.00    +0.000 C 
BRANCH  28  31
ATOM     31  C   UNL     1      -9.126  -2.769 124.783  0.00  0.00    +0.000 C 
ATOM     32  C   UNL     1      -9.573  -3.350 123.460  0.00  0.00    +0.000 C 
ENDBRANCH  28  31
ENDBRANCH  22  25
ENDBRANCH   5  22
BRANCH   2  33
ATOM     33  O   UNL     1      -4.712   5.508 129.033  0.00  0.00    +0.000 OA
BRANCH  33  34
ATOM     34  C   UNL     1      -3.384   5.094 129.366  0.00  0.00    +0.000 C 
ATOM     35  C   UNL     1      -2.374   6.184 129.240  0.00  0.00    +0.000 C 
ENDBRANCH  33  34
ENDBRANCH   2  33
TORSDOF 8
ENDMDL
