MODEL 1
REMARK VINA RESULT:      -7.4      0.000      0.000
REMARK  Name = Varenicline
REMARK  0 active torsions:
REMARK  status: ('A' for Active; 'I' for Inactive)
REMARK                            x       y       z     vdW  Elec       q    Type
REMARK                         _______ _______ _______ _____ _____    ______ ____
ROOT
ATOM      1  C   UNL     1     -12.278   9.007 128.735  0.00  0.00    +0.000 C 
ATOM      2  C   UNL     1     -11.003   8.421 128.099  0.00  0.00    +0.000 C 
ATOM      3  C   UNL     1     -11.447   7.492 126.933  0.00  0.00    +0.000 C 
ATOM      4  N   UNL     1     -12.897   7.206 126.964  0.00  0.00    +0.000 NA
ATOM      5  C   UNL     1     -13.288   6.701 128.287  0.00  0.00    +0.000 C 
ATOM      6  C   UNL     1     -12.873   7.709 129.393  0.00  0.00    +0.000 C 
ATOM      7  C   UNL     1     -11.610   7.215 130.064  0.00  0.00    +0.000 A 
ATOM      8  C   UNL     1     -10.522   7.666 129.315  0.00  0.00    +0.000 A 
ATOM      9  C   UNL     1      -9.234   7.495 129.767  0.00  0.00    +0.000 A 
ATOM     10  C   UNL     1      -9.012   6.823 130.954  0.00  0.00    +0.000 A 
ATOM     11  N   UNL     1      -7.746   6.708 131.382  0.00  0.00    +0.000 NA
ATOM     12  C   UNL     1      -7.561   6.044 132.537  0.00  0.00    +0.000 A 
ATOM     13  C   UNL     1      -8.612   5.498 133.247  0.00  0.00    +0.000 A 
ATOM     14  N   UNL     1      -9.899   5.603 132.839  0.00  0.00    +0.000 NA
ATOM     15  C   UNL     1     -10.115   6.277 131.692  0.00  0.00    +0.000 A 
ATOM     16  C   UNL     1     -11.415   6.479 131.222  0.00  0.00    +0.000 A 
ATOM     17  H   UNL     1     -13.190   6.592 126.211  0.00  0.00    +0.000 HD
ENDROOT
TORSDOF 0
ENDMDL
MODEL 2
REMARK VINA RESULT:      -6.7      1.302      2.413
REMARK  Name = Varenicline
REMARK  0 active torsions:
REMARK  status: ('A' for Active; 'I' for Inactive)
REMARK                            x       y       z     vdW  Elec       q    Type
REMARK                         _______ _______ _______ _____ _____    ______ ____
ROOT
ATOM      1  C   UNL     1     -13.170   6.819 128.968  0.00  0.00    +0.000 C 
ATOM      2  C   UNL     1     -12.893   7.533 130.305  0.00  0.00    +0.000 C 
ATOM      3  C   UNL     1     -12.755   9.054 130.002  0.00  0.00    +0.000 C 
ATOM      4  N   UNL     1     -12.625   9.329 128.556  0.00  0.00    +0.000 NA
ATOM      5  C   UNL     1     -11.540   8.524 127.979  0.00  0.00    +0.000 C 
ATOM      6  C   UNL     1     -11.779   7.016 128.262  0.00  0.00    +0.000 C 
ATOM      7  C   UNL     1     -10.896   6.584 129.413  0.00  0.00    +0.000 A 
ATOM      8  C   UNL     1     -11.574   6.862 130.601  0.00  0.00    +0.000 A 
ATOM      9  C   UNL     1     -11.077   6.439 131.812  0.00  0.00    +0.000 A 
ATOM     10  C   UNL     1      -9.867   5.774 131.858  0.00  0.00    +0.000 A 
ATOM     11  N   UNL     1      -9.432   5.343 133.052  0.00  0.00    +0.000 NA
ATOM     12  C   UNL     1      -8.249   4.705 133.065  0.00  0.00    +0.000 A 
ATOM     13  C   UNL     1      -7.508   4.505 131.917  0.00  0.00    +0.000 A 
ATOM     14  N   UNL     1      -7.925   4.926 130.699  0.00  0.00    +0.000 NA
ATOM     15  C   UNL     1      -9.116   5.556 130.654  0.00  0.00    +0.000 A 
ATOM     16  C   UNL     1      -9.649   5.979 129.434  0.00  0.00    +0.000 A 
ATOM     17  H   UNL     1     -12.525  10.319 128.354  0.00  0.00    +0.000 HD
ENDROOT
TORSDOF 0
ENDMDL
MODEL 3
REMARK VINA RESULT:      -6.6      9.156     10.272
REMARK  Name = Varenicline
REMARK  0 active torsions:
REMARK  status: ('A' for Active; 'I' for Inactive)
REMARK                            x       y       z     vdW  Elec       q    Type
REMARK                         _______ _______ _______ _____ _____    ______ ____
ROOT
ATOM      1  C   UNL     1      -7.965   3.255 124.043  0.00  0.00    +0.000 C 
ATOM      2  C   UNL     1      -6.724   2.472 123.573  0.00  0.00    +0.000 C 
ATOM      3  C   UNL     1      -6.347   3.001 122.158  0.00  0.00    +0.000 C 
ATOM      4  N   UNL     1      -7.413   3.838 121.569  0.00  0.00    +0.000 NA
ATOM      5  C   UNL     1      -8.696   3.123 121.596  0.00  0.00    +0.000 C 
ATOM      6  C   UNL     1      -9.039   2.685 123.046  0.00  0.00    +0.000 C 
ATOM      7  C   UNL     1      -8.718   1.216 123.207  0.00  0.00    +0.000 A 
ATOM      8  C   UNL     1      -7.368   1.107 123.547  0.00  0.00    +0.000 A 
ATOM      9  C   UNL     1      -6.826  -0.106 123.904  0.00  0.00    +0.000 A 
ATOM     10  C   UNL     1      -7.616  -1.240 123.876  0.00  0.00    +0.000 A 
ATOM     11  N   UNL     1      -7.062  -2.399 124.267  0.00  0.00    +0.000 NA
ATOM     12  C   UNL     1      -7.854  -3.485 124.223  0.00  0.00    +0.000 A 
ATOM     13  C   UNL     1      -9.165  -3.423 123.793  0.00  0.00    +0.000 A 
ATOM     14  N   UNL     1      -9.747  -2.267 123.397  0.00  0.00    +0.000 NA
ATOM     15  C   UNL     1      -8.982  -1.158 123.445  0.00  0.00    +0.000 A 
ATOM     16  C   UNL     1      -9.515   0.087 123.105  0.00  0.00    +0.000 A 
ATOM     17  H   UNL     1      -7.175   4.178 120.643  0.00  0.00    +0.000 HD
ENDROOT
TORSDOF 0
ENDMDL
MODEL 4
REMARK VINA RESULT:      -6.5      1.797      5.762
REMARK  Name = Varenicline
REMARK  0 active torsions:
REMARK  status: ('A' for Active; 'I' for Inactive)
REMARK                            x       y       z     vdW  Elec       q    Type
REMARK                         _______ _______ _______ _____ _____    ______ ____
ROOT
ATOM      1  C   UNL     1      -8.115   5.606 134.127  0.00  0.00    +0.000 C 
ATOM      2  C   UNL     1      -9.382   4.837 133.704  0.00  0.00    +0.000 C 
ATOM      3  C   UNL     1      -8.960   3.368 133.410  0.00  0.00    +0.000 C 
ATOM      4  N   UNL     1      -7.493   3.212 133.323  0.00  0.00    +0.000 NA
ATOM      5  C   UNL     1      -6.934   4.176 132.366  0.00  0.00    +0.000 C 
ATOM      6  C   UNL     1      -7.339   5.623 132.760  0.00  0.00    +0.000 C 
ATOM      7  C   UNL     1      -8.481   6.074 131.875  0.00  0.00    +0.000 A 
ATOM      8  C   UNL     1      -9.673   5.636 132.457  0.00  0.00    +0.000 A 
ATOM      9  C   UNL     1     -10.890   6.029 131.951  0.00  0.00    +0.000 A 
ATOM     10  C   UNL     1     -10.935   6.826 130.823  0.00  0.00    +0.000 A 
ATOM     11  N   UNL     1     -12.140   7.219 130.381  0.00  0.00    +0.000 NA
ATOM     12  C   UNL     1     -12.151   7.989 129.279  0.00  0.00    +0.000 A 
ATOM     13  C   UNL     1     -10.991   8.354 128.624  0.00  0.00    +0.000 A 
ATOM     14  N   UNL     1      -9.764   7.973 129.051  0.00  0.00    +0.000 NA
ATOM     15  C   UNL     1      -9.721   7.213 130.164  0.00  0.00    +0.000 A 
ATOM     16  C   UNL     1      -8.496   6.817 130.706  0.00  0.00    +0.000 A 
ATOM     17  H   UNL     1      -7.214   2.257 133.121  0.00  0.00    +0.000 HD
ENDROOT
TORSDOF 0
ENDMDL
MODEL 5
REMARK VINA RESULT:      -6.4      1.785      5.506
REMARK  Name = Varenicline
REMARK  0 active torsions:
REMARK  status: ('A' for Active; 'I' for Inactive)
REMARK                            x       y       z     vdW  Elec       q    Type
REMARK                         _______ _______ _______ _____ _____    ______ ____
ROOT
ATOM      1  C   UNL     1      -7.460   3.998 132.277  0.00  0.00    +0.000 C 
ATOM      2  C   UNL     1      -7.540   5.504 132.588  0.00  0.00    +0.000 C 
ATOM      3  C   UNL     1      -8.012   5.652 134.064  0.00  0.00    +0.000 C 
ATOM      4  N   UNL     1      -8.523   4.381 134.619  0.00  0.00    +0.000 NA
ATOM      5  C   UNL     1      -9.552   3.815 133.737  0.00  0.00    +0.000 C 
ATOM      6  C   UNL     1      -8.989   3.635 132.300  0.00  0.00    +0.000 C 
ATOM      7  C   UNL     1      -9.488   4.766 131.428  0.00  0.00    +0.000 A 
ATOM      8  C   UNL     1      -8.612   5.843 131.581  0.00  0.00    +0.000 A 
ATOM      9  C   UNL     1      -8.728   6.965 130.794  0.00  0.00    +0.000 A 
ATOM     10  C   UNL     1      -9.757   7.048 129.874  0.00  0.00    +0.000 A 
ATOM     11  N   UNL     1      -9.816   8.141 129.098  0.00  0.00    +0.000 NA
ATOM     12  C   UNL     1     -10.831   8.196 128.217  0.00  0.00    +0.000 A 
ATOM     13  C   UNL     1     -11.772   7.190 128.116  0.00  0.00    +0.000 A 
ATOM     14  N   UNL     1     -11.733   6.076 128.884  0.00  0.00    +0.000 NA
ATOM     15  C   UNL     1     -10.717   5.987 129.766  0.00  0.00    +0.000 A 
ATOM     16  C   UNL     1     -10.567   4.850 130.563  0.00  0.00    +0.000 A 
ATOM     17  H   UNL     1      -8.841   4.474 135.579  0.00  0.00    +0.000 HD
ENDROOT
TORSDOF 0
ENDMDL
MODEL 6
REMARK VINA RESULT:      -6.3      8.863      9.936
REMARK  Name = Varenicline
REMARK  0 active torsions:
REMARK  status: ('A' for Active; 'I' for Inactive)
REMARK                            x       y       z     vdW  Elec       q    Type
REMARK                         _______ _______ _______ _____ _____    ______ ____
ROOT
ATOM      1  C   UNL     1      -8.517   2.920 122.650  0.00  0.00    +0.000 C 
ATOM      2  C   UNL     1      -9.016   2.694 124.090  0.00  0.00    +0.000 C 
ATOM      3  C   UNL     1      -8.198   3.634 125.022  0.00  0.00    +0.000 C 
ATOM      4  N   UNL     1      -7.024   4.217 124.339  0.00  0.00    +0.000 NA
ATOM      5  C   UNL     1      -6.210   3.157 123.729  0.00  0.00    +0.000 C 
ATOM      6  C   UNL     1      -7.075   2.302 122.763  0.00  0.00    +0.000 C 
ATOM      7  C   UNL     1      -7.454   1.010 123.452  0.00  0.00    +0.000 A 
ATOM      8  C   UNL     1      -8.610   1.244 124.199  0.00  0.00    +0.000 A 
ATOM      9  C   UNL     1      -9.273   0.209 124.816  0.00  0.00    +0.000 A 
ATOM     10  C   UNL     1      -8.761  -1.072 124.737  0.00  0.00    +0.000 A 
ATOM     11  N   UNL     1      -9.455  -2.062 125.320  0.00  0.00    +0.000 NA
ATOM     12  C   UNL     1      -8.928  -3.296 125.232  0.00  0.00    +0.000 A 
ATOM     13  C   UNL     1      -7.732  -3.540 124.585  0.00  0.00    +0.000 A 
ATOM     14  N   UNL     1      -7.015  -2.561 123.987  0.00  0.00    +0.000 NA
ATOM     15  C   UNL     1      -7.527  -1.315 124.046  0.00  0.00    +0.000 A 
ATOM     16  C   UNL     1      -6.881  -0.252 123.412  0.00  0.00    +0.000 A 
ATOM     17  H   UNL     1      -6.481   4.824 124.946  0.00  0.00    +0.000 HD
ENDROOT
TORSDOF 0
ENDMDL
MODEL 7
REMARK VINA RESULT:      -6.1     10.152     11.792
REMARK  Name = Varenicline
REMARK  0 active torsions:
REMARK  status: ('A' for Active; 'I' for Inactive)
REMARK                            x       y       z     vdW  Elec       q    Type
REMARK                         _______ _______ _______ _____ _____    ______ ____
ROOT
ATOM      1  C   UNL     1      -7.431  -1.487 129.587  0.00  0.00    +0.000 C 
ATOM      2  C   UNL     1      -7.943  -2.897 129.235  0.00  0.00    +0.000 C 
ATOM      3  C   UNL     1      -6.889  -3.919 129.750  0.00  0.00    +0.000 C 
ATOM      4  N   UNL     1      -5.617  -3.270 130.130  0.00  0.00    +0.000 NA
ATOM      5  C   UNL     1      -5.121  -2.434 129.029  0.00  0.00    +0.000 C 
ATOM      6  C   UNL     1      -6.200  -1.395 128.614  0.00  0.00    +0.000 C 
ATOM      7  C   UNL     1      -6.890  -1.876 127.356  0.00  0.00    +0.000 A 
ATOM      8  C   UNL     1      -7.929  -2.727 127.735  0.00  0.00    +0.000 A 
ATOM      9  C   UNL     1      -8.828  -3.200 126.808  0.00  0.00    +0.000 A 
ATOM     10  C   UNL     1      -8.670  -2.869 125.475  0.00  0.00    +0.000 A 
ATOM     11  N   UNL     1      -9.588  -3.318 124.605  0.00  0.00    +0.000 NA
ATOM     12  C   UNL     1      -9.405  -2.984 123.316  0.00  0.00    +0.000 A 
ATOM     13  C   UNL     1      -8.328  -2.226 122.898  0.00  0.00    +0.000 A 
ATOM     14  N   UNL     1      -7.391  -1.758 123.755  0.00  0.00    +0.000 NA
ATOM     15  C   UNL     1      -7.557  -2.065 125.058  0.00  0.00    +0.000 A 
ATOM     16  C   UNL     1      -6.668  -1.582 126.020  0.00  0.00    +0.000 A 
ATOM     17  H   UNL     1      -4.922  -3.934 130.457  0.00  0.00    +0.000 HD
ENDROOT
TORSDOF 0
ENDMDL
MODEL 8
REMARK VINA RESULT:      -6.0      9.509     10.896
REMARK  Name = Varenicline
REMARK  0 active torsions:
REMARK  status: ('A' for Active; 'I' for Inactive)
REMARK                            x       y       z     vdW  Elec       q    Type
REMARK                         _______ _______ _______ _____ _____    ______ ____
ROOT
ATOM      1  C   UNL     1      -7.480  -3.409 124.457  0.00  0.00    +0.000 C 
ATOM      2  C   UNL     1      -6.815  -2.379 125.390  0.00  0.00    +0.000 C 
ATOM      3  C   UNL     1      -7.403  -2.591 126.816  0.00  0.00    +0.000 C 
ATOM      4  N   UNL     1      -8.597  -3.463 126.806  0.00  0.00    +0.000 NA
ATOM      5  C   UNL     1      -9.585  -2.963 125.841  0.00  0.00    +0.000 C 
ATOM      6  C   UNL     1      -8.946  -2.841 124.430  0.00  0.00    +0.000 C 
ATOM      7  C   UNL     1      -8.606  -1.391 124.166  0.00  0.00    +0.000 A 
ATOM      8  C   UNL     1      -7.342  -1.142 124.704  0.00  0.00    +0.000 A 
ATOM      9  C   UNL     1      -6.705   0.057 124.485  0.00  0.00    +0.000 A 
ATOM     10  C   UNL     1      -7.346   1.048 123.765  0.00  0.00    +0.000 A 
ATOM     11  N   UNL     1      -6.678   2.190 123.540  0.00  0.00    +0.000 NA
ATOM     12  C   UNL     1      -7.330   3.137 122.842  0.00  0.00    +0.000 A 
ATOM     13  C   UNL     1      -8.621   2.956 122.384  0.00  0.00    +0.000 A 
ATOM     14  N   UNL     1      -9.314   1.812 122.595  0.00  0.00    +0.000 NA
ATOM     15  C   UNL     1      -8.680   0.839 123.279  0.00  0.00    +0.000 A 
ATOM     16  C   UNL     1      -9.299  -0.393 123.499  0.00  0.00    +0.000 A 
ATOM     17  H   UNL     1      -8.990  -3.596 127.732  0.00  0.00    +0.000 HD
ENDROOT
TORSDOF 0
ENDMDL
MODEL 9
REMARK VINA RESULT:      -6.0     10.265     10.973
REMARK  Name = Varenicline
REMARK  0 active torsions:
REMARK  status: ('A' for Active; 'I' for Inactive)
REMARK                            x       y       z     vdW  Elec       q    Type
REMARK                         _______ _______ _______ _____ _____    ______ ____
ROOT
ATOM      1  C   UNL     1      -6.888  -3.619 124.095  0.00  0.00    +0.000 C 
ATOM      2  C   UNL     1      -8.238  -3.235 124.728  0.00  0.00    +0.000 C 
ATOM      3  C   UNL     1      -8.777  -1.992 123.960  0.00  0.00    +0.000 C 
ATOM      4  N   UNL     1      -7.749  -1.378 123.094  0.00  0.00    +0.000 NA
ATOM      5  C   UNL     1      -6.533  -1.096 123.868  0.00  0.00    +0.000 C 
ATOM      6  C   UNL     1      -6.016  -2.393 124.550  0.00  0.00    +0.000 C 
ATOM      7  C   UNL     1      -6.419  -2.378 126.009  0.00  0.00    +0.000 A 
ATOM      8  C   UNL     1      -7.709  -2.904 126.102  0.00  0.00    +0.000 A 
ATOM      9  C   UNL     1      -8.282  -3.153 127.328  0.00  0.00    +0.000 A 
ATOM     10  C   UNL     1      -7.592  -2.832 128.481  0.00  0.00    +0.000 A 
ATOM     11  N   UNL     1      -8.167  -3.124 129.658  0.00  0.00    +0.000 NA
ATOM     12  C   UNL     1      -7.474  -2.794 130.762  0.00  0.00    +0.000 A 
ATOM     13  C   UNL     1      -6.239  -2.179 130.698  0.00  0.00    +0.000 A 
ATOM     14  N   UNL     1      -5.635  -1.877 129.525  0.00  0.00    +0.000 NA
ATOM     15  C   UNL     1      -6.301  -2.211 128.401  0.00  0.00    +0.000 A 
ATOM     16  C   UNL     1      -5.731  -1.984 127.146  0.00  0.00    +0.000 A 
ATOM     17  H   UNL     1      -8.093  -0.562 122.599  0.00  0.00    +0.000 HD
ENDROOT
TORSDOF 0
ENDMDL
