MODEL 1
REMARK VINA RESULT:      -9.2      0.000      0.000
REMARK  Name = Vecuronium
REMARK  11 active torsions:
REMARK  status: ('A' for Active; 'I' for Inactive)
REMARK    1  A    between atoms: C_4  and  N_38
REMARK    2  A    between atoms: C_5  and  O_6
REMARK    3  A    between atoms: O_6  and  C_7
REMARK    4  A    between atoms: C_7  and  C_8
REMARK    5  A    between atoms: C_10  and  C_11
REMARK    6  A    between atoms: C_23  and  O_24
REMARK    7  A    between atoms: O_24  and  C_25
REMARK    8  A    between atoms: C_25  and  C_26
REMARK    9  A    between atoms: C_28  and  N_32
REMARK   10  A    between atoms: C_30  and  C_31
REMARK   11  A    between atoms: N_38  and  C_39
REMARK                            x       y       z     vdW  Elec       q    Type
REMARK                         _______ _______ _______ _____ _____    ______ ____
ROOT
ATOM      1  C   UNL     1      -8.255   1.731 126.845  0.00  0.00    +0.000 C 
ATOM      2  C   UNL     1      -8.742   0.366 126.411  0.00  0.00    +0.000 C 
ATOM      3  C   UNL     1      -9.109   0.573 124.923  0.00  0.00    +0.000 C 
ATOM      4  C   UNL     1      -8.508   2.004 124.534  0.00  0.00    +0.000 C 
ATOM      5  C   UNL     1      -7.479   2.299 125.647  0.00  0.00    +0.000 C 
ATOM      6  C   UNL     1      -6.076   1.691 125.378  0.00  0.00    +0.000 C 
ATOM      7  C   UNL     1      -7.223   3.776 125.925  0.00  0.00    +0.000 C 
ATOM      8  C   UNL     1      -6.416   3.989 127.169  0.00  0.00    +0.000 C 
ATOM      9  C   UNL     1      -7.050   3.264 128.360  0.00  0.00    +0.000 C 
ATOM     10  C   UNL     1      -7.410   1.770 128.084  0.00  0.00    +0.000 C 
ATOM     11  C   UNL     1      -8.073   1.088 129.284  0.00  0.00    +0.000 C 
ATOM     12  C   UNL     1      -7.326   1.308 130.590  0.00  0.00    +0.000 C 
ATOM     13  C   UNL     1      -7.152   2.807 130.766  0.00  0.00    +0.000 C 
ATOM     14  C   UNL     1      -6.956   3.192 132.243  0.00  0.00    +0.000 C 
ATOM     15  C   UNL     1      -6.433   4.656 132.383  0.00  0.00    +0.000 C 
ATOM     16  C   UNL     1      -5.334   5.180 131.338  0.00  0.00    +0.000 C 
ATOM     17  C   UNL     1      -5.883   4.849 129.921  0.00  0.00    +0.000 C 
ATOM     18  C   UNL     1      -6.167   3.344 129.625  0.00  0.00    +0.000 C 
ATOM     19  C   UNL     1      -4.892   2.476 129.146  0.00  0.00    +0.000 C 
ENDROOT
BRANCH   3  20
ATOM     20  N   UNL     1      -8.655  -0.648 124.047  0.00  0.00    +0.000 N 
ATOM     21  C   UNL     1      -9.498  -0.680 122.765  0.00  0.00    +0.000 C 
ATOM     22  C   UNL     1      -7.171  -0.498 123.667  0.00  0.00    +0.000 C 
ATOM     23  C   UNL     1      -6.671  -1.738 122.945  0.00  0.00    +0.000 C 
ATOM     24  C   UNL     1      -6.928  -3.026 123.727  0.00  0.00    +0.000 C 
ATOM     25  C   UNL     1      -8.381  -3.180 124.111  0.00  0.00    +0.000 C 
ATOM     26  C   UNL     1      -8.846  -1.939 124.801  0.00  0.00    +0.000 C 
ENDBRANCH   3  20
BRANCH  16  27
ATOM     27  N   UNL     1      -3.847   4.972 131.535  0.00  0.00    +0.000 NA
ATOM     28  C   UNL     1      -3.331   5.471 132.787  0.00  0.00    +0.000 C 
ATOM     29  C   UNL     1      -3.588   6.956 132.850  0.00  0.00    +0.000 C 
ATOM     30  C   UNL     1      -3.098   7.742 131.622  0.00  0.00    +0.000 C 
ATOM     31  C   UNL     1      -2.968   6.933 130.310  0.00  0.00    +0.000 C 
ATOM     32  C   UNL     1      -2.882   5.440 130.556  0.00  0.00    +0.000 C 
ENDBRANCH  16  27
BRANCH   4  33
ATOM     33  O   UNL     1      -7.949   2.022 123.217  0.00  0.00    +0.000 OA
BRANCH  33  34
ATOM     34  C   UNL     1      -7.861   3.018 122.305  0.00  0.00    +0.000 C 
ATOM     35  C   UNL     1      -6.500   3.529 121.961  0.00  0.00    +0.000 C 
ATOM     36  O   UNL     1      -8.858   3.431 121.775  0.00  0.00    +0.000 OA
ENDBRANCH  33  34
ENDBRANCH   4  33
BRANCH  15  37
ATOM     37  O   UNL     1      -7.609   5.499 132.321  0.00  0.00    +0.000 OA
BRANCH  37  38
ATOM     38  C   UNL     1      -8.376   5.789 133.399  0.00  0.00    +0.000 C 
ATOM     39  C   UNL     1      -7.839   5.594 134.794  0.00  0.00    +0.000 C 
ATOM     40  O   UNL     1      -9.473   6.305 133.231  0.00  0.00    +0.000 OA
ENDBRANCH  37  38
ENDBRANCH  15  37
TORSDOF 6
ENDMDL
MODEL 2
REMARK VINA RESULT:      -9.1      1.632      9.681
REMARK  Name = Vecuronium
REMARK  11 active torsions:
REMARK  status: ('A' for Active; 'I' for Inactive)
REMARK    1  A    between atoms: C_4  and  N_38
REMARK    2  A    between atoms: C_5  and  O_6
REMARK    3  A    between atoms: O_6  and  C_7
REMARK    4  A    between atoms: C_7  and  C_8
REMARK    5  A    between atoms: C_10  and  C_11
REMARK    6  A    between atoms: C_23  and  O_24
REMARK    7  A    between atoms: O_24  and  C_25
REMARK    8  A    between atoms: C_25  and  C_26
REMARK    9  A    between atoms: C_28  and  N_32
REMARK   10  A    between atoms: C_30  and  C_31
REMARK   11  A    between atoms: N_38  and  C_39
REMARK                            x       y       z     vdW  Elec       q    Type
REMARK                         _______ _______ _______ _____ _____    ______ ____
ROOT
ATOM      1  C   UNL     1      -5.904   4.230 129.125  0.00  0.00    +0.000 C 
ATOM      2  C   UNL     1      -4.990   5.337 129.605  0.00  0.00    +0.000 C 
ATOM      3  C   UNL     1      -5.330   5.453 131.110  0.00  0.00    +0.000 C 
ATOM      4  C   UNL     1      -6.224   4.169 131.442  0.00  0.00    +0.000 C 
ATOM      5  C   UNL     1      -5.956   3.204 130.267  0.00  0.00    +0.000 C 
ATOM      6  C   UNL     1      -4.696   2.318 130.461  0.00  0.00    +0.000 C 
ATOM      7  C   UNL     1      -7.084   2.227 129.954  0.00  0.00    +0.000 C 
ATOM      8  C   UNL     1      -6.865   1.501 128.662  0.00  0.00    +0.000 C 
ATOM      9  C   UNL     1      -6.605   2.489 127.520  0.00  0.00    +0.000 C 
ATOM     10  C   UNL     1      -5.518   3.564 127.838  0.00  0.00    +0.000 C 
ATOM     11  C   UNL     1      -5.309   4.555 126.689  0.00  0.00    +0.000 C 
ATOM     12  C   UNL     1      -5.129   3.881 125.338  0.00  0.00    +0.000 C 
ATOM     13  C   UNL     1      -6.316   2.955 125.131  0.00  0.00    +0.000 C 
ATOM     14  C   UNL     1      -6.570   2.672 123.640  0.00  0.00    +0.000 C 
ATOM     15  C   UNL     1      -7.544   1.466 123.450  0.00  0.00    +0.000 C 
ATOM     16  C   UNL     1      -7.392   0.198 124.420  0.00  0.00    +0.000 C 
ATOM     17  C   UNL     1      -7.370   0.756 125.871  0.00  0.00    +0.000 C 
ATOM     18  C   UNL     1      -6.233   1.771 126.204  0.00  0.00    +0.000 C 
ATOM     19  C   UNL     1      -4.816   1.117 126.618  0.00  0.00    +0.000 C 
ENDROOT
BRANCH   3  20
ATOM     20  N   UNL     1      -4.035   5.659 131.973  0.00  0.00    +0.000 N 
ATOM     21  C   UNL     1      -4.447   5.983 133.416  0.00  0.00    +0.000 C 
ATOM     22  C   UNL     1      -3.193   4.371 131.971  0.00  0.00    +0.000 C 
ATOM     23  C   UNL     1      -1.865   4.592 132.678  0.00  0.00    +0.000 C 
ATOM     24  C   UNL     1      -1.084   5.781 132.117  0.00  0.00    +0.000 C 
ATOM     25  C   UNL     1      -1.905   7.049 132.108  0.00  0.00    +0.000 C 
ATOM     26  C   UNL     1      -3.209   6.793 131.424  0.00  0.00    +0.000 C 
ENDBRANCH   3  20
BRANCH  16  27
ATOM     27  N   UNL     1      -6.437  -0.944 124.138  0.00  0.00    +0.000 NA
ATOM     28  C   UNL     1      -6.597  -1.554 122.840  0.00  0.00    +0.000 C 
ATOM     29  C   UNL     1      -7.998  -2.106 122.742  0.00  0.00    +0.000 C 
ATOM     30  C   UNL     1      -8.407  -3.020 123.910  0.00  0.00    +0.000 C 
ATOM     31  C   UNL     1      -7.645  -2.801 125.238  0.00  0.00    +0.000 C 
ATOM     32  C   UNL     1      -6.328  -2.078 125.038  0.00  0.00    +0.000 C 
ENDBRANCH  16  27
BRANCH   4  33
ATOM     33  O   UNL     1      -5.919   3.609 132.724  0.00  0.00    +0.000 OA
BRANCH  33  34
ATOM     34  C   UNL     1      -6.708   2.981 133.627  0.00  0.00    +0.000 C 
ATOM     35  C   UNL     1      -7.891   3.725 134.154  0.00  0.00    +0.000 C 
ATOM     36  O   UNL     1      -6.464   1.848 133.946  0.00  0.00    +0.000 OA
ENDBRANCH  33  34
ENDBRANCH   4  33
BRANCH  15  37
ATOM     37  O   UNL     1      -8.878   2.017 123.570  0.00  0.00    +0.000 OA
BRANCH  37  38
ATOM     38  C   UNL     1     -10.004   1.273 123.471  0.00  0.00    +0.000 C 
ATOM     39  C   UNL     1     -10.261   0.434 122.244  0.00  0.00    +0.000 C 
ATOM     40  O   UNL     1     -10.765   1.208 124.427  0.00  0.00    +0.000 OA
ENDBRANCH  37  38
ENDBRANCH  15  37
TORSDOF 6
ENDMDL
MODEL 3
REMARK VINA RESULT:      -9.1      1.771      2.211
REMARK  Name = Vecuronium
REMARK  11 active torsions:
REMARK  status: ('A' for Active; 'I' for Inactive)
REMARK    1  A    between atoms: C_4  and  N_38
REMARK    2  A    between atoms: C_5  and  O_6
REMARK    3  A    between atoms: O_6  and  C_7
REMARK    4  A    between atoms: C_7  and  C_8
REMARK    5  A    between atoms: C_10  and  C_11
REMARK    6  A    between atoms: C_23  and  O_24
REMARK    7  A    between atoms: O_24  and  C_25
REMARK    8  A    between atoms: C_25  and  C_26
REMARK    9  A    between atoms: C_28  and  N_32
REMARK   10  A    between atoms: C_30  and  C_31
REMARK   11  A    between atoms: N_38  and  C_39
REMARK                            x       y       z     vdW  Elec       q    Type
REMARK                         _______ _______ _______ _____ _____    ______ ____
ROOT
ATOM      1  C   UNL     1      -6.874   0.439 127.586  0.00  0.00    +0.000 C 
ATOM      2  C   UNL     1      -6.802  -1.002 127.131  0.00  0.00    +0.000 C 
ATOM      3  C   UNL     1      -7.919  -1.096 126.065  0.00  0.00    +0.000 C 
ATOM      4  C   UNL     1      -8.357   0.415 125.776  0.00  0.00    +0.000 C 
ATOM      5  C   UNL     1      -7.190   1.262 126.327  0.00  0.00    +0.000 C 
ATOM      6  C   UNL     1      -6.028   1.457 125.317  0.00  0.00    +0.000 C 
ATOM      7  C   UNL     1      -7.561   2.670 126.781  0.00  0.00    +0.000 C 
ATOM      8  C   UNL     1      -6.448   3.338 127.529  0.00  0.00    +0.000 C 
ATOM      9  C   UNL     1      -5.960   2.455 128.681  0.00  0.00    +0.000 C 
ATOM     10  C   UNL     1      -5.655   0.979 128.273  0.00  0.00    +0.000 C 
ATOM     11  C   UNL     1      -5.203   0.118 129.456  0.00  0.00    +0.000 C 
ATOM     12  C   UNL     1      -4.105   0.764 130.287  0.00  0.00    +0.000 C 
ATOM     13  C   UNL     1      -4.597   2.143 130.694  0.00  0.00    +0.000 C 
ATOM     14  C   UNL     1      -3.888   2.653 131.962  0.00  0.00    +0.000 C 
ATOM     15  C   UNL     1      -4.130   4.181 132.170  0.00  0.00    +0.000 C 
ATOM     16  C   UNL     1      -4.115   5.142 130.886  0.00  0.00    +0.000 C 
ATOM     17  C   UNL     1      -5.073   4.497 129.845  0.00  0.00    +0.000 C 
ATOM     18  C   UNL     1      -4.718   3.050 129.382  0.00  0.00    +0.000 C 
ATOM     19  C   UNL     1      -3.633   2.946 128.192  0.00  0.00    +0.000 C 
ENDROOT
BRANCH   3  20
ATOM     20  N   UNL     1      -7.459  -1.950 124.830  0.00  0.00    +0.000 N 
ATOM     21  C   UNL     1      -8.650  -2.779 124.329  0.00  0.00    +0.000 C 
ATOM     22  C   UNL     1      -6.985  -1.021 123.698  0.00  0.00    +0.000 C 
ATOM     23  C   UNL     1      -6.399  -1.825 122.550  0.00  0.00    +0.000 C 
ATOM     24  C   UNL     1      -5.294  -2.783 122.998  0.00  0.00    +0.000 C 
ATOM     25  C   UNL     1      -5.747  -3.695 124.113  0.00  0.00    +0.000 C 
ATOM     26  C   UNL     1      -6.335  -2.876 125.216  0.00  0.00    +0.000 C 
ENDBRANCH   3  20
BRANCH  16  27
ATOM     27  N   UNL     1      -2.844   5.748 130.327  0.00  0.00    +0.000 NA
ATOM     28  C   UNL     1      -2.147   6.626 131.235  0.00  0.00    +0.000 C 
ATOM     29  C   UNL     1      -3.067   7.767 131.596  0.00  0.00    +0.000 C 
ATOM     30  C   UNL     1      -3.689   8.491 130.389  0.00  0.00    +0.000 C 
ATOM     31  C   UNL     1      -3.788   7.666 129.084  0.00  0.00    +0.000 C 
ATOM     32  C   UNL     1      -2.844   6.481 129.074  0.00  0.00    +0.000 C 
ENDBRANCH  16  27
BRANCH   4  33
ATOM     33  O   UNL     1      -8.630   0.649 124.391  0.00  0.00    +0.000 OA
BRANCH  33  34
ATOM     34  C   UNL     1      -9.536   1.455 123.790  0.00  0.00    +0.000 C 
ATOM     35  C   UNL     1      -9.026   2.497 122.850  0.00  0.00    +0.000 C 
ATOM     36  O   UNL     1     -10.710   1.290 123.994  0.00  0.00    +0.000 OA
ENDBRANCH  33  34
ENDBRANCH   4  33
BRANCH  15  37
ATOM     37  O   UNL     1      -5.408   4.286 132.845  0.00  0.00    +0.000 OA
BRANCH  37  38
ATOM     38  C   UNL     1      -5.950   5.464 133.237  0.00  0.00    +0.000 C 
ATOM     39  C   UNL     1      -7.292   5.901 132.708  0.00  0.00    +0.000 C 
ATOM     40  O   UNL     1      -5.387   6.124 134.101  0.00  0.00    +0.000 OA
ENDBRANCH  37  38
ENDBRANCH  15  37
TORSDOF 6
ENDMDL
MODEL 4
REMARK VINA RESULT:      -8.5      4.892      9.535
REMARK  Name = Vecuronium
REMARK  11 active torsions:
REMARK  status: ('A' for Active; 'I' for Inactive)
REMARK    1  A    between atoms: C_4  and  N_38
REMARK    2  A    between atoms: C_5  and  O_6
REMARK    3  A    between atoms: O_6  and  C_7
REMARK    4  A    between atoms: C_7  and  C_8
REMARK    5  A    between atoms: C_10  and  C_11
REMARK    6  A    between atoms: C_23  and  O_24
REMARK    7  A    between atoms: O_24  and  C_25
REMARK    8  A    between atoms: C_25  and  C_26
REMARK    9  A    between atoms: C_28  and  N_32
REMARK   10  A    between atoms: C_30  and  C_31
REMARK   11  A    between atoms: N_38  and  C_39
REMARK                            x       y       z     vdW  Elec       q    Type
REMARK                         _______ _______ _______ _____ _____    ______ ____
ROOT
ATOM      1  C   UNL     1      -5.500  -2.875 130.396  0.00  0.00    +0.000 C 
ATOM      2  C   UNL     1      -5.975  -3.951 131.348  0.00  0.00    +0.000 C 
ATOM      3  C   UNL     1      -4.835  -4.036 132.390  0.00  0.00    +0.000 C 
ATOM      4  C   UNL     1      -3.911  -2.761 132.110  0.00  0.00    +0.000 C 
ATOM      5  C   UNL     1      -4.803  -1.821 131.270  0.00  0.00    +0.000 C 
ATOM      6  C   UNL     1      -5.723  -0.907 132.122  0.00  0.00    +0.000 C 
ATOM      7  C   UNL     1      -4.057  -0.873 130.337  0.00  0.00    +0.000 C 
ATOM      8  C   UNL     1      -4.976  -0.177 129.381  0.00  0.00    +0.000 C 
ATOM      9  C   UNL     1      -5.843  -1.189 128.626  0.00  0.00    +0.000 C 
ATOM     10  C   UNL     1      -6.554  -2.234 129.542  0.00  0.00    +0.000 C 
ATOM     11  C   UNL     1      -7.384  -3.250 128.751  0.00  0.00    +0.000 C 
ATOM     12  C   UNL     1      -8.304  -2.607 127.726  0.00  0.00    +0.000 C 
ATOM     13  C   UNL     1      -7.449  -1.709 126.848  0.00  0.00    +0.000 C 
ATOM     14  C   UNL     1      -8.095  -1.468 125.472  0.00  0.00    +0.000 C 
ATOM     15  C   UNL     1      -7.405  -0.286 124.721  0.00  0.00    +0.000 C 
ATOM     16  C   UNL     1      -6.972   1.009 125.563  0.00  0.00    +0.000 C 
ATOM     17  C   UNL     1      -6.159   0.488 126.781  0.00  0.00    +0.000 C 
ATOM     18  C   UNL     1      -6.901  -0.496 127.737  0.00  0.00    +0.000 C 
ATOM     19  C   UNL     1      -7.825   0.194 128.868  0.00  0.00    +0.000 C 
ENDROOT
BRANCH   3  20
ATOM     20  N   UNL     1      -5.402  -4.196 133.845  0.00  0.00    +0.000 N 
ATOM     21  C   UNL     1      -4.253  -4.018 134.847  0.00  0.00    +0.000 C 
ATOM     22  C   UNL     1      -6.470  -3.120 134.113  0.00  0.00    +0.000 C 
ATOM     23  C   UNL     1      -7.137  -3.346 135.460  0.00  0.00    +0.000 C 
ATOM     24  C   UNL     1      -7.703  -4.758 135.615  0.00  0.00    +0.000 C 
ATOM     25  C   UNL     1      -6.664  -5.821 135.347  0.00  0.00    +0.000 C 
ATOM     26  C   UNL     1      -6.015  -5.561 134.027  0.00  0.00    +0.000 C 
ENDBRANCH   3  20
BRANCH  16  27
ATOM     27  N   UNL     1      -7.915   2.161 125.842  0.00  0.00    +0.000 NA
ATOM     28  C   UNL     1      -8.529   2.733 124.669  0.00  0.00    +0.000 C 
ATOM     29  C   UNL     1      -7.437   3.256 123.767  0.00  0.00    +0.000 C 
ATOM     30  C   UNL     1      -6.431   4.192 124.459  0.00  0.00    +0.000 C 
ATOM     31  C   UNL     1      -6.294   4.023 125.990  0.00  0.00    +0.000 C 
ATOM     32  C   UNL     1      -7.487   3.320 126.604  0.00  0.00    +0.000 C 
ENDBRANCH  16  27
BRANCH   4  33
ATOM     33  O   UNL     1      -3.426  -2.163 133.317  0.00  0.00    +0.000 OA
BRANCH  33  34
ATOM     34  C   UNL     1      -2.349  -1.375 133.545  0.00  0.00    +0.000 C 
ATOM     35  C   UNL     1      -2.582   0.091 133.713  0.00  0.00    +0.000 C 
ATOM     36  O   UNL     1      -1.258  -1.871 133.645  0.00  0.00    +0.000 OA
ENDBRANCH  33  34
ENDBRANCH   4  33
BRANCH  15  37
ATOM     37  O   UNL     1      -6.243  -0.859 124.073  0.00  0.00    +0.000 OA
BRANCH  37  38
ATOM     38  C   UNL     1      -6.300  -1.944 123.263  0.00  0.00    +0.000 C 
ATOM     39  C   UNL     1      -5.483  -3.172 123.574  0.00  0.00    +0.000 C 
ATOM     40  O   UNL     1      -7.095  -1.956 122.333  0.00  0.00    +0.000 OA
ENDBRANCH  37  38
ENDBRANCH  15  37
TORSDOF 6
ENDMDL
MODEL 5
REMARK VINA RESULT:      -8.4      2.670      9.703
REMARK  Name = Vecuronium
REMARK  11 active torsions:
REMARK  status: ('A' for Active; 'I' for Inactive)
REMARK    1  A    between atoms: C_4  and  N_38
REMARK    2  A    between atoms: C_5  and  O_6
REMARK    3  A    between atoms: O_6  and  C_7
REMARK    4  A    between atoms: C_7  and  C_8
REMARK    5  A    between atoms: C_10  and  C_11
REMARK    6  A    between atoms: C_23  and  O_24
REMARK    7  A    between atoms: O_24  and  C_25
REMARK    8  A    between atoms: C_25  and  C_26
REMARK    9  A    between atoms: C_28  and  N_32
REMARK   10  A    between atoms: C_30  and  C_31
REMARK   11  A    between atoms: N_38  and  C_39
REMARK                            x       y       z     vdW  Elec       q    Type
REMARK                         _______ _______ _______ _____ _____    ______ ____
ROOT
ATOM      1  C   UNL     1      -4.171   2.329 129.669  0.00  0.00    +0.000 C 
ATOM      2  C   UNL     1      -3.860   2.480 131.142  0.00  0.00    +0.000 C 
ATOM      3  C   UNL     1      -3.189   3.871 131.225  0.00  0.00    +0.000 C 
ATOM      4  C   UNL     1      -3.444   4.550 129.799  0.00  0.00    +0.000 C 
ATOM      5  C   UNL     1      -4.596   3.724 129.185  0.00  0.00    +0.000 C 
ATOM      6  C   UNL     1      -6.007   4.207 129.613  0.00  0.00    +0.000 C 
ATOM      7  C   UNL     1      -4.634   3.688 127.661  0.00  0.00    +0.000 C 
ATOM      8  C   UNL     1      -5.610   2.678 127.141  0.00  0.00    +0.000 C 
ATOM      9  C   UNL     1      -5.349   1.301 127.758  0.00  0.00    +0.000 C 
ATOM     10  C   UNL     1      -5.213   1.310 129.313  0.00  0.00    +0.000 C 
ATOM     11  C   UNL     1      -4.918  -0.077 129.892  0.00  0.00    +0.000 C 
ATOM     12  C   UNL     1      -5.846  -1.159 129.363  0.00  0.00    +0.000 C 
ATOM     13  C   UNL     1      -5.783  -1.110 127.846  0.00  0.00    +0.000 C 
ATOM     14  C   UNL     1      -6.182  -2.454 127.212  0.00  0.00    +0.000 C 
ATOM     15  C   UNL     1      -6.455  -2.300 125.682  0.00  0.00    +0.000 C 
ATOM     16  C   UNL     1      -7.228  -0.992 125.170  0.00  0.00    +0.000 C 
ATOM     17  C   UNL     1      -6.490   0.226 125.795  0.00  0.00    +0.000 C 
ATOM     18  C   UNL     1      -6.426   0.270 127.353  0.00  0.00    +0.000 C 
ATOM     19  C   UNL     1      -7.721   0.897 128.086  0.00  0.00    +0.000 C 
ENDROOT
BRANCH   3  20
ATOM     20  N   UNL     1      -3.679   4.667 132.487  0.00  0.00    +0.000 N 
ATOM     21  C   UNL     1      -2.860   5.959 132.607  0.00  0.00    +0.000 C 
ATOM     22  C   UNL     1      -5.167   5.031 132.332  0.00  0.00    +0.000 C 
ATOM     23  C   UNL     1      -5.700   5.672 133.602  0.00  0.00    +0.000 C 
ATOM     24  C   UNL     1      -5.452   4.820 134.848  0.00  0.00    +0.000 C 
ATOM     25  C   UNL     1      -3.995   4.452 135.005  0.00  0.00    +0.000 C 
ATOM     26  C   UNL     1      -3.497   3.843 133.735  0.00  0.00    +0.000 C 
ENDBRANCH   3  20
BRANCH  16  27
ATOM     27  N   UNL     1      -8.739  -0.894 125.122  0.00  0.00    +0.000 NA
ATOM     28  C   UNL     1      -9.432  -2.079 125.565  0.00  0.00    +0.000 C 
ATOM     29  C   UNL     1      -9.028  -3.229 124.675  0.00  0.00    +0.000 C 
ATOM     30  C   UNL     1      -9.176  -2.953 123.169  0.00  0.00    +0.000 C 
ATOM     31  C   UNL     1      -9.135  -1.465 122.748  0.00  0.00    +0.000 C 
ATOM     32  C   UNL     1      -9.434  -0.528 123.901  0.00  0.00    +0.000 C 
ENDBRANCH  16  27
BRANCH   4  33
ATOM     33  O   UNL     1      -3.734   5.947 129.903  0.00  0.00    +0.000 OA
BRANCH  33  34
ATOM     34  C   UNL     1      -3.456   6.975 129.067  0.00  0.00    +0.000 C 
ATOM     35  C   UNL     1      -2.287   6.829 128.148  0.00  0.00    +0.000 C 
ATOM     36  O   UNL     1      -4.168   7.944 129.056  0.00  0.00    +0.000 OA
ENDBRANCH  33  34
ENDBRANCH   4  33
BRANCH  15  37
ATOM     37  O   UNL     1      -5.158  -2.385 125.043  0.00  0.00    +0.000 OA
BRANCH  37  38
ATOM     38  C   UNL     1      -4.944  -3.036 123.874  0.00  0.00    +0.000 C 
ATOM     39  C   UNL     1      -4.306  -4.402 123.866  0.00  0.00    +0.000 C 
ATOM     40  O   UNL     1      -5.363  -2.549 122.833  0.00  0.00    +0.000 OA
ENDBRANCH  37  38
ENDBRANCH  15  37
TORSDOF 6
ENDMDL
MODEL 6
REMARK VINA RESULT:      -8.3      4.634     10.179
REMARK  Name = Vecuronium
REMARK  11 active torsions:
REMARK  status: ('A' for Active; 'I' for Inactive)
REMARK    1  A    between atoms: C_4  and  N_38
REMARK    2  A    between atoms: C_5  and  O_6
REMARK    3  A    between atoms: O_6  and  C_7
REMARK    4  A    between atoms: C_7  and  C_8
REMARK    5  A    between atoms: C_10  and  C_11
REMARK    6  A    between atoms: C_23  and  O_24
REMARK    7  A    between atoms: O_24  and  C_25
REMARK    8  A    between atoms: C_25  and  C_26
REMARK    9  A    between atoms: C_28  and  N_32
REMARK   10  A    between atoms: C_30  and  C_31
REMARK   11  A    between atoms: N_38  and  C_39
REMARK                            x       y       z     vdW  Elec       q    Type
REMARK                         _______ _______ _______ _____ _____    ______ ____
ROOT
ATOM      1  C   UNL     1      -6.064  -0.825 131.481  0.00  0.00    +0.000 C 
ATOM      2  C   UNL     1      -5.019  -0.504 132.527  0.00  0.00    +0.000 C 
ATOM      3  C   UNL     1      -5.588  -1.149 133.812  0.00  0.00    +0.000 C 
ATOM      4  C   UNL     1      -6.804  -2.066 133.322  0.00  0.00    +0.000 C 
ATOM      5  C   UNL     1      -6.562  -2.242 131.807  0.00  0.00    +0.000 C 
ATOM      6  C   UNL     1      -5.603  -3.411 131.459  0.00  0.00    +0.000 C 
ATOM      7  C   UNL     1      -7.812  -2.491 130.970  0.00  0.00    +0.000 C 
ATOM      8  C   UNL     1      -7.540  -2.401 129.500  0.00  0.00    +0.000 C 
ATOM      9  C   UNL     1      -6.852  -1.077 129.155  0.00  0.00    +0.000 C 
ATOM     10  C   UNL     1      -5.619  -0.741 130.051  0.00  0.00    +0.000 C 
ATOM     11  C   UNL     1      -4.979   0.605 129.700  0.00  0.00    +0.000 C 
ATOM     12  C   UNL     1      -4.721   0.779 128.212  0.00  0.00    +0.000 C 
ATOM     13  C   UNL     1      -6.035   0.527 127.492  0.00  0.00    +0.000 C 
ATOM     14  C   UNL     1      -6.073   1.212 126.113  0.00  0.00    +0.000 C 
ATOM     15  C   UNL     1      -7.252   0.670 125.245  0.00  0.00    +0.000 C 
ATOM     16  C   UNL     1      -7.581  -0.899 125.292  0.00  0.00    +0.000 C 
ATOM     17  C   UNL     1      -7.692  -1.278 126.796  0.00  0.00    +0.000 C 
ATOM     18  C   UNL     1      -6.428  -1.013 127.670  0.00  0.00    +0.000 C 
ATOM     19  C   UNL     1      -5.303  -2.171 127.639  0.00  0.00    +0.000 C 
ENDROOT
BRANCH   3  20
ATOM     20  N   UNL     1      -4.460  -1.853 134.646  0.00  0.00    +0.000 N 
ATOM     21  C   UNL     1      -4.887  -1.900 136.119  0.00  0.00    +0.000 C 
ATOM     22  C   UNL     1      -4.254  -3.292 134.139  0.00  0.00    +0.000 C 
ATOM     23  C   UNL     1      -3.068  -3.944 134.832  0.00  0.00    +0.000 C 
ATOM     24  C   UNL     1      -1.787  -3.116 134.723  0.00  0.00    +0.000 C 
ATOM     25  C   UNL     1      -1.981  -1.699 135.212  0.00  0.00    +0.000 C 
ATOM     26  C   UNL     1      -3.163  -1.095 134.527  0.00  0.00    +0.000 C 
ENDBRANCH   3  20
BRANCH  16  27
ATOM     27  N   UNL     1      -6.887  -1.912 124.405  0.00  0.00    +0.000 NA
ATOM     28  C   UNL     1      -7.116  -1.731 122.992  0.00  0.00    +0.000 C 
ATOM     29  C   UNL     1      -8.598  -1.847 122.731  0.00  0.00    +0.000 C 
ATOM     30  C   UNL     1      -9.250  -3.116 123.306  0.00  0.00    +0.000 C 
ATOM     31  C   UNL     1      -8.520  -3.767 124.504  0.00  0.00    +0.000 C 
ATOM     32  C   UNL     1      -7.070  -3.339 124.601  0.00  0.00    +0.000 C 
ENDBRANCH  16  27
BRANCH   4  33
ATOM     33  O   UNL     1      -6.877  -3.304 134.037  0.00  0.00    +0.000 OA
BRANCH  33  34
ATOM     34  C   UNL     1      -7.754  -3.736 134.973  0.00  0.00    +0.000 C 
ATOM     35  C   UNL     1      -7.696  -5.175 135.369  0.00  0.00    +0.000 C 
ATOM     36  O   UNL     1      -8.516  -2.957 135.482  0.00  0.00    +0.000 OA
ENDBRANCH  33  34
ENDBRANCH   4  33
BRANCH  15  37
ATOM     37  O   UNL     1      -8.418   1.427 125.651  0.00  0.00    +0.000 OA
BRANCH  37  38
ATOM     38  C   UNL     1      -9.153   2.179 124.798  0.00  0.00    +0.000 C 
ATOM     39  C   UNL     1     -10.169   1.533 123.891  0.00  0.00    +0.000 C 
ATOM     40  O   UNL     1      -9.058   3.399 124.840  0.00  0.00    +0.000 OA
ENDBRANCH  37  38
ENDBRANCH  15  37
TORSDOF 6
ENDMDL
MODEL 7
REMARK VINA RESULT:      -8.3      4.343      5.578
REMARK  Name = Vecuronium
REMARK  11 active torsions:
REMARK  status: ('A' for Active; 'I' for Inactive)
REMARK    1  A    between atoms: C_4  and  N_38
REMARK    2  A    between atoms: C_5  and  O_6
REMARK    3  A    between atoms: O_6  and  C_7
REMARK    4  A    between atoms: C_7  and  C_8
REMARK    5  A    between atoms: C_10  and  C_11
REMARK    6  A    between atoms: C_23  and  O_24
REMARK    7  A    between atoms: O_24  and  C_25
REMARK    8  A    between atoms: C_25  and  C_26
REMARK    9  A    between atoms: C_28  and  N_32
REMARK   10  A    between atoms: C_30  and  C_31
REMARK   11  A    between atoms: N_38  and  C_39
REMARK                            x       y       z     vdW  Elec       q    Type
REMARK                         _______ _______ _______ _____ _____    ______ ____
ROOT
ATOM      1  C   UNL     1      -7.768  -2.245 128.548  0.00  0.00    +0.000 C 
ATOM      2  C   UNL     1      -7.812  -3.207 127.380  0.00  0.00    +0.000 C 
ATOM      3  C   UNL     1      -8.563  -2.411 126.288  0.00  0.00    +0.000 C 
ATOM      4  C   UNL     1      -8.632  -0.908 126.832  0.00  0.00    +0.000 C 
ATOM      5  C   UNL     1      -7.552  -0.852 127.935  0.00  0.00    +0.000 C 
ATOM      6  C   UNL     1      -6.129  -0.543 127.400  0.00  0.00    +0.000 C 
ATOM      7  C   UNL     1      -7.794   0.175 129.036  0.00  0.00    +0.000 C 
ATOM      8  C   UNL     1      -6.855   0.004 130.189  0.00  0.00    +0.000 C 
ATOM      9  C   UNL     1      -6.887  -1.437 130.708  0.00  0.00    +0.000 C 
ATOM     10  C   UNL     1      -6.732  -2.522 129.597  0.00  0.00    +0.000 C 
ATOM     11  C   UNL     1      -6.804  -3.950 130.147  0.00  0.00    +0.000 C 
ATOM     12  C   UNL     1      -5.907  -4.176 131.353  0.00  0.00    +0.000 C 
ATOM     13  C   UNL     1      -6.254  -3.112 132.382  0.00  0.00    +0.000 C 
ATOM     14  C   UNL     1      -5.874  -3.549 133.808  0.00  0.00    +0.000 C 
ATOM     15  C   UNL     1      -5.902  -2.340 134.797  0.00  0.00    +0.000 C 
ATOM     16  C   UNL     1      -5.344  -0.924 134.292  0.00  0.00    +0.000 C 
ATOM     17  C   UNL     1      -6.048  -0.634 132.936  0.00  0.00    +0.000 C 
ATOM     18  C   UNL     1      -5.825  -1.683 131.803  0.00  0.00    +0.000 C 
ATOM     19  C   UNL     1      -4.471  -1.503 130.943  0.00  0.00    +0.000 C 
ENDROOT
BRANCH   3  20
ATOM     20  N   UNL     1      -7.913  -2.624 124.875  0.00  0.00    +0.000 N 
ATOM     21  C   UNL     1      -8.030  -4.106 124.494  0.00  0.00    +0.000 C 
ATOM     22  C   UNL     1      -8.652  -1.777 123.824  0.00  0.00    +0.000 C 
ATOM     23  C   UNL     1      -7.949  -1.854 122.479  0.00  0.00    +0.000 C 
ATOM     24  C   UNL     1      -6.467  -1.489 122.560  0.00  0.00    +0.000 C 
ATOM     25  C   UNL     1      -5.734  -2.310 123.594  0.00  0.00    +0.000 C 
ATOM     26  C   UNL     1      -6.459  -2.230 124.898  0.00  0.00    +0.000 C 
ENDBRANCH   3  20
BRANCH  16  27
ATOM     27  N   UNL     1      -3.881  -0.540 134.371  0.00  0.00    +0.000 NA
ATOM     28  C   UNL     1      -3.320  -0.585 135.700  0.00  0.00    +0.000 C 
ATOM     29  C   UNL     1      -4.084   0.379 136.573  0.00  0.00    +0.000 C 
ATOM     30  C   UNL     1      -4.205   1.801 136.000  0.00  0.00    +0.000 C 
ATOM     31  C   UNL     1      -4.082   1.923 134.463  0.00  0.00    +0.000 C 
ATOM     32  C   UNL     1      -3.401   0.722 133.840  0.00  0.00    +0.000 C 
ENDBRANCH  16  27
BRANCH   4  33
ATOM     33  O   UNL     1      -8.440   0.058 125.794  0.00  0.00    +0.000 OA
BRANCH  33  34
ATOM     34  C   UNL     1      -8.961   1.296 125.627  0.00  0.00    +0.000 C 
ATOM     35  C   UNL     1      -9.868   1.518 124.462  0.00  0.00    +0.000 C 
ATOM     36  O   UNL     1      -8.717   2.159 126.428  0.00  0.00    +0.000 OA
ENDBRANCH  33  34
ENDBRANCH   4  33
BRANCH  15  37
ATOM     37  O   UNL     1      -7.284  -2.204 135.208  0.00  0.00    +0.000 OA
BRANCH  37  38
ATOM     38  C   UNL     1      -7.777  -2.733 136.353  0.00  0.00    +0.000 C 
ATOM     39  C   UNL     1      -8.172  -4.187 136.415  0.00  0.00    +0.000 C 
ATOM     40  O   UNL     1      -7.806  -2.047 137.366  0.00  0.00    +0.000 OA
ENDBRANCH  37  38
ENDBRANCH  15  37
TORSDOF 6
ENDMDL
MODEL 8
REMARK VINA RESULT:      -8.2      2.111      9.659
REMARK  Name = Vecuronium
REMARK  11 active torsions:
REMARK  status: ('A' for Active; 'I' for Inactive)
REMARK    1  A    between atoms: C_4  and  N_38
REMARK    2  A    between atoms: C_5  and  O_6
REMARK    3  A    between atoms: O_6  and  C_7
REMARK    4  A    between atoms: C_7  and  C_8
REMARK    5  A    between atoms: C_10  and  C_11
REMARK    6  A    between atoms: C_23  and  O_24
REMARK    7  A    between atoms: O_24  and  C_25
REMARK    8  A    between atoms: C_25  and  C_26
REMARK    9  A    between atoms: C_28  and  N_32
REMARK   10  A    between atoms: C_30  and  C_31
REMARK   11  A    between atoms: N_38  and  C_39
REMARK                            x       y       z     vdW  Elec       q    Type
REMARK                         _______ _______ _______ _____ _____    ______ ____
ROOT
ATOM      1  C   UNL     1      -5.263   4.294 129.306  0.00  0.00    +0.000 C 
ATOM      2  C   UNL     1      -4.157   5.321 129.192  0.00  0.00    +0.000 C 
ATOM      3  C   UNL     1      -4.252   6.099 130.525  0.00  0.00    +0.000 C 
ATOM      4  C   UNL     1      -5.240   5.241 131.446  0.00  0.00    +0.000 C 
ATOM      5  C   UNL     1      -5.272   3.850 130.777  0.00  0.00    +0.000 C 
ATOM      6  C   UNL     1      -4.119   2.913 131.225  0.00  0.00    +0.000 C 
ATOM      7  C   UNL     1      -6.547   3.045 131.004  0.00  0.00    +0.000 C 
ATOM      8  C   UNL     1      -6.616   1.830 130.131  0.00  0.00    +0.000 C 
ATOM      9  C   UNL     1      -6.407   2.203 128.660  0.00  0.00    +0.000 C 
ATOM     10  C   UNL     1      -5.159   3.104 128.399  0.00  0.00    +0.000 C 
ATOM     11  C   UNL     1      -5.002   3.486 126.924  0.00  0.00    +0.000 C 
ATOM     12  C   UNL     1      -5.110   2.299 125.980  0.00  0.00    +0.000 C 
ATOM     13  C   UNL     1      -6.421   1.595 126.286  0.00  0.00    +0.000 C 
ATOM     14  C   UNL     1      -6.927   0.777 125.084  0.00  0.00    +0.000 C 
ATOM     15  C   UNL     1      -8.061  -0.209 125.507  0.00  0.00    +0.000 C 
ATOM     16  C   UNL     1      -7.926  -0.976 126.909  0.00  0.00    +0.000 C 
ATOM     17  C   UNL     1      -7.620   0.112 127.977  0.00  0.00    +0.000 C 
ATOM     18  C   UNL     1      -6.328   0.957 127.751  0.00  0.00    +0.000 C 
ATOM     19  C   UNL     1      -4.958   0.291 128.286  0.00  0.00    +0.000 C 
ENDROOT
BRANCH   3  20
ATOM     20  N   UNL     1      -2.827   6.408 131.109  0.00  0.00    +0.000 N 
ATOM     21  C   UNL     1      -1.860   6.667 129.946  0.00  0.00    +0.000 C 
ATOM     22  C   UNL     1      -2.886   7.661 132.000  0.00  0.00    +0.000 C 
ATOM     23  C   UNL     1      -1.554   7.894 132.692  0.00  0.00    +0.000 C 
ATOM     24  C   UNL     1      -1.064   6.671 133.467  0.00  0.00    +0.000 C 
ATOM     25  C   UNL     1      -1.009   5.433 132.603  0.00  0.00    +0.000 C 
ATOM     26  C   UNL     1      -2.326   5.243 131.923  0.00  0.00    +0.000 C 
ENDBRANCH   3  20
BRANCH  16  27
ATOM     27  N   UNL     1      -7.175  -2.282 127.064  0.00  0.00    +0.000 NA
ATOM     28  C   UNL     1      -7.628  -3.342 126.196  0.00  0.00    +0.000 C 
ATOM     29  C   UNL     1      -9.079  -3.621 126.502  0.00  0.00    +0.000 C 
ATOM     30  C   UNL     1      -9.382  -3.867 127.990  0.00  0.00    +0.000 C 
ATOM     31  C   UNL     1      -8.380  -3.251 128.994  0.00  0.00    +0.000 C 
ATOM     32  C   UNL     1      -7.043  -2.930 128.356  0.00  0.00    +0.000 C 
ENDBRANCH  16  27
BRANCH   4  33
ATOM     33  O   UNL     1      -4.820   5.209 132.814  0.00  0.00    +0.000 OA
BRANCH  33  34
ATOM     34  C   UNL     1      -5.473   5.550 133.949  0.00  0.00    +0.000 C 
ATOM     35  C   UNL     1      -4.711   6.300 134.992  0.00  0.00    +0.000 C 
ATOM     36  O   UNL     1      -6.639   5.281 134.071  0.00  0.00    +0.000 OA
ENDBRANCH  33  34
ENDBRANCH   4  33
BRANCH  15  37
ATOM     37  O   UNL     1      -9.283   0.569 125.490  0.00  0.00    +0.000 OA
BRANCH  37  38
ATOM     38  C   UNL     1      -9.571   1.484 124.534  0.00  0.00    +0.000 C 
ATOM     39  C   UNL     1     -10.082   1.045 123.185  0.00  0.00    +0.000 C 
ATOM     40  O   UNL     1      -9.508   2.675 124.807  0.00  0.00    +0.000 OA
ENDBRANCH  37  38
ENDBRANCH  15  37
TORSDOF 6
ENDMDL
MODEL 9
REMARK VINA RESULT:      -8.0      6.376     14.190
REMARK  Name = Vecuronium
REMARK  11 active torsions:
REMARK  status: ('A' for Active; 'I' for Inactive)
REMARK    1  A    between atoms: C_4  and  N_38
REMARK    2  A    between atoms: C_5  and  O_6
REMARK    3  A    between atoms: O_6  and  C_7
REMARK    4  A    between atoms: C_7  and  C_8
REMARK    5  A    between atoms: C_10  and  C_11
REMARK    6  A    between atoms: C_23  and  O_24
REMARK    7  A    between atoms: O_24  and  C_25
REMARK    8  A    between atoms: C_25  and  C_26
REMARK    9  A    between atoms: C_28  and  N_32
REMARK   10  A    between atoms: C_30  and  C_31
REMARK   11  A    between atoms: N_38  and  C_39
REMARK                            x       y       z     vdW  Elec       q    Type
REMARK                         _______ _______ _______ _____ _____    ______ ____
ROOT
ATOM      1  C   UNL     1      -0.227  11.423 134.016  0.00  0.00    +0.000 C 
ATOM      2  C   UNL     1       0.849  11.875 134.979  0.00  0.00    +0.000 C 
ATOM      3  C   UNL     1       0.654  13.408 135.041  0.00  0.00    +0.000 C 
ATOM      4  C   UNL     1      -0.745  13.686 134.316  0.00  0.00    +0.000 C 
ATOM      5  C   UNL     1      -1.448  12.311 134.305  0.00  0.00    +0.000 C 
ATOM      6  C   UNL     1      -2.237  12.002 135.605  0.00  0.00    +0.000 C 
ATOM      7  C   UNL     1      -2.447  12.097 133.173  0.00  0.00    +0.000 C 
ATOM      8  C   UNL     1      -2.898  10.672 133.075  0.00  0.00    +0.000 C 
ATOM      9  C   UNL     1      -1.697   9.726 132.988  0.00  0.00    +0.000 C 
ATOM     10  C   UNL     1      -0.606   9.973 134.077  0.00  0.00    +0.000 C 
ATOM     11  C   UNL     1       0.595   9.033 133.939  0.00  0.00    +0.000 C 
ATOM     12  C   UNL     1       0.201   7.573 133.785  0.00  0.00    +0.000 C 
ATOM     13  C   UNL     1      -0.773   7.485 132.623  0.00  0.00    +0.000 C 
ATOM     14  C   UNL     1      -0.797   6.079 131.999  0.00  0.00    +0.000 C 
ATOM     15  C   UNL     1      -2.029   5.897 131.057  0.00  0.00    +0.000 C 
ATOM     16  C   UNL     1      -3.436   6.522 131.507  0.00  0.00    +0.000 C 
ATOM     17  C   UNL     1      -3.157   8.004 131.886  0.00  0.00    +0.000 C 
ATOM     18  C   UNL     1      -2.123   8.242 133.030  0.00  0.00    +0.000 C 
ATOM     19  C   UNL     1      -2.712   8.149 134.531  0.00  0.00    +0.000 C 
ENDROOT
BRANCH   3  20
ATOM     20  N   UNL     1       0.812  13.945 136.508  0.00  0.00    +0.000 N 
ATOM     21  C   UNL     1       1.911  13.141 137.215  0.00  0.00    +0.000 C 
ATOM     22  C   UNL     1       1.216  15.430 136.481  0.00  0.00    +0.000 C 
ATOM     23  C   UNL     1       1.231  16.010 137.886  0.00  0.00    +0.000 C 
ATOM     24  C   UNL     1      -0.085  15.794 138.633  0.00  0.00    +0.000 C 
ATOM     25  C   UNL     1      -0.494  14.340 138.659  0.00  0.00    +0.000 C 
ATOM     26  C   UNL     1      -0.481  13.796 137.267  0.00  0.00    +0.000 C 
ENDBRANCH   3  20
BRANCH  16  27
ATOM     27  N   UNL     1      -4.415   5.787 132.398  0.00  0.00    +0.000 NA
ATOM     28  C   UNL     1      -4.679   4.424 132.006  0.00  0.00    +0.000 C 
ATOM     29  C   UNL     1      -5.260   4.432 130.613  0.00  0.00    +0.000 C 
ATOM     30  C   UNL     1      -6.463   5.373 130.429  0.00  0.00    +0.000 C 
ATOM     31  C   UNL     1      -6.554   6.556 131.421  0.00  0.00    +0.000 C 
ATOM     32  C   UNL     1      -5.736   6.324 132.676  0.00  0.00    +0.000 C 
ENDBRANCH  16  27
BRANCH   4  33
ATOM     33  O   UNL     1      -1.503  14.710 134.967  0.00  0.00    +0.000 OA
BRANCH  33  34
ATOM     34  C   UNL     1      -2.350  15.640 134.467  0.00  0.00    +0.000 C 
ATOM     35  C   UNL     1      -2.545  16.897 135.249  0.00  0.00    +0.000 C 
ATOM     36  O   UNL     1      -2.883  15.451 133.406  0.00  0.00    +0.000 OA
ENDBRANCH  33  34
ENDBRANCH   4  33
BRANCH  15  37
ATOM     37  O   UNL     1      -1.632   6.454 129.781  0.00  0.00    +0.000 OA
BRANCH  37  38
ATOM     38  C   UNL     1      -2.319   6.251 128.632  0.00  0.00    +0.000 C 
ATOM     39  C   UNL     1      -2.537   4.854 128.109  0.00  0.00    +0.000 C 
ATOM     40  O   UNL     1      -2.848   7.203 128.074  0.00  0.00    +0.000 OA
ENDBRANCH  37  38
ENDBRANCH  15  37
TORSDOF 6
ENDMDL
