MODEL 1
REMARK VINA RESULT:      -8.8      0.000      0.000
REMARK  Name = Vemurafenib
REMARK  8 active torsions:
REMARK  status: ('A' for Active; 'I' for Inactive)
REMARK    1  A    between atoms: C_1  and  C_2
REMARK    2  A    between atoms: C_2  and  C_3
REMARK    3  A    between atoms: C_3  and  S_4
REMARK    4  A    between atoms: S_4  and  N_7
REMARK    5  A    between atoms: N_7  and  C_8
REMARK    6  A    between atoms: C_11  and  C_12
REMARK    7  A    between atoms: C_12  and  C_14
REMARK    8  A    between atoms: C_20  and  C_23
REMARK                            x       y       z     vdW  Elec       q    Type
REMARK                         _______ _______ _______ _____ _____    ______ ____
ROOT
ATOM      1  C   UNL     1      -9.060   1.664 131.895  0.00  0.00    +0.000 C 
ATOM      2  O   UNL     1      -9.921   0.815 132.105  0.00  0.00    +0.000 OA
ENDROOT
BRANCH   1   3
ATOM      3  C   UNL     1      -7.718   1.252 131.471  0.00  0.00    +0.000 A 
ATOM      4  C   UNL     1      -6.550   1.545 132.159  0.00  0.00    +0.000 A 
ATOM      5  N   UNL     1      -5.501   0.938 131.513  0.00  0.00    +0.000 N 
ATOM      6  C   UNL     1      -5.953   0.303 130.392  0.00  0.00    +0.000 A 
ATOM      7  N   UNL     1      -5.171  -0.387 129.541  0.00  0.00    +0.000 NA
ATOM      8  C   UNL     1      -5.870  -0.920 128.509  0.00  0.00    +0.000 A 
ATOM      9  C   UNL     1      -7.245  -0.803 128.283  0.00  0.00    +0.000 A 
ATOM     10  C   UNL     1      -7.992  -0.068 129.212  0.00  0.00    +0.000 A 
ATOM     11  C   UNL     1      -7.325   0.506 130.309  0.00  0.00    +0.000 A 
ATOM     12  H   UNL     1      -4.532   0.945 131.796  0.00  0.00    +0.000 HD
BRANCH   9  13
ATOM     13  C   UNL     1      -7.884  -1.422 127.120  0.00  0.00    +0.000 A 
ATOM     14  C   UNL     1      -8.405  -2.723 127.202  0.00  0.00    +0.000 A 
ATOM     15  C   UNL     1      -8.969  -3.337 126.082  0.00  0.00    +0.000 A 
ATOM     16  C   UNL     1      -9.022  -2.652 124.872  0.00  0.00    +0.000 A 
ATOM     17 CL   UNL     1      -9.688  -3.423 123.486  0.00  0.00    +0.000 Cl
ATOM     18  C   UNL     1      -8.535  -1.350 124.774  0.00  0.00    +0.000 A 
ATOM     19  C   UNL     1      -7.970  -0.738 125.897  0.00  0.00    +0.000 A 
ENDBRANCH   9  13
ENDBRANCH   1   3
BRANCH   1  23
ATOM     20  C   UNL     1     -10.423   5.164 131.085  0.00  0.00    +0.000 A 
ATOM     21  C   UNL     1     -10.056   3.811 131.007  0.00  0.00    +0.000 A 
ATOM     22  F   UNL     1     -10.303   3.183 129.866  0.00  0.00    +0.000 F 
ATOM     23  C   UNL     1      -9.404   3.116 132.027  0.00  0.00    +0.000 A 
ATOM     24  C   UNL     1      -9.113   3.830 133.187  0.00  0.00    +0.000 A 
ATOM     25  F   UNL     1      -8.511   3.253 134.237  0.00  0.00    +0.000 F 
ATOM     26  C   UNL     1      -9.439   5.191 133.297  0.00  0.00    +0.000 A 
ATOM     27  C   UNL     1     -10.086   5.863 132.245  0.00  0.00    +0.000 A 
BRANCH  20  28
ATOM     28  N   UNL     1     -11.061   5.823 129.964  0.00  0.00    +0.000 N 
ATOM     29  H   UNL     1     -12.027   5.602 129.739  0.00  0.00    +0.000 HD
BRANCH  28  30
ATOM     30  S   UNL     1     -10.108   6.700 128.871  0.00  0.00    +0.000 S 
ATOM     31  O   UNL     1      -9.385   5.739 128.072  0.00  0.00    +0.000 OA
ATOM     32  O   UNL     1      -9.421   7.766 129.572  0.00  0.00    +0.000 OA
BRANCH  30  33
ATOM     33  C   UNL     1     -11.269   7.558 127.805  0.00  0.00    +0.000 C 
BRANCH  33  35
ATOM     34  C   UNL     1     -12.707   9.145 129.169  0.00  0.00    +0.000 C 
ATOM     35  C   UNL     1     -12.591   7.758 128.564  0.00  0.00    +0.000 C 
ENDBRANCH  33  35
ENDBRANCH  30  33
ENDBRANCH  28  30
ENDBRANCH  20  28
ENDBRANCH   1  23
TORSDOF 7
ENDMDL
MODEL 2
REMARK VINA RESULT:      -8.7      3.404      4.481
REMARK  Name = Vemurafenib
REMARK  8 active torsions:
REMARK  status: ('A' for Active; 'I' for Inactive)
REMARK    1  A    between atoms: C_1  and  C_2
REMARK    2  A    between atoms: C_2  and  C_3
REMARK    3  A    between atoms: C_3  and  S_4
REMARK    4  A    between atoms: S_4  and  N_7
REMARK    5  A    between atoms: N_7  and  C_8
REMARK    6  A    between atoms: C_11  and  C_12
REMARK    7  A    between atoms: C_12  and  C_14
REMARK    8  A    between atoms: C_20  and  C_23
REMARK                            x       y       z     vdW  Elec       q    Type
REMARK                         _______ _______ _______ _____ _____    ______ ____
ROOT
ATOM      1  C   UNL     1      -6.945   3.419 128.127  0.00  0.00    +0.000 C 
ATOM      2  O   UNL     1      -5.746   3.460 128.382  0.00  0.00    +0.000 OA
ENDROOT
BRANCH   1   3
ATOM      3  C   UNL     1      -7.397   3.505 126.735  0.00  0.00    +0.000 A 
ATOM      4  C   UNL     1      -8.032   4.607 126.179  0.00  0.00    +0.000 A 
ATOM      5  N   UNL     1      -8.239   4.361 124.844  0.00  0.00    +0.000 N 
ATOM      6  C   UNL     1      -7.805   3.105 124.531  0.00  0.00    +0.000 A 
ATOM      7  N   UNL     1      -7.868   2.562 123.301  0.00  0.00    +0.000 NA
ATOM      8  C   UNL     1      -7.368   1.302 123.263  0.00  0.00    +0.000 A 
ATOM      9  C   UNL     1      -6.839   0.581 124.338  0.00  0.00    +0.000 A 
ATOM     10  C   UNL     1      -6.808   1.213 125.587  0.00  0.00    +0.000 A 
ATOM     11  C   UNL     1      -7.307   2.523 125.692  0.00  0.00    +0.000 A 
ATOM     12  H   UNL     1      -8.651   4.990 124.171  0.00  0.00    +0.000 HD
BRANCH   9  13
ATOM     13  C   UNL     1      -6.336  -0.783 124.168  0.00  0.00    +0.000 A 
ATOM     14  C   UNL     1      -5.839  -1.502 125.267  0.00  0.00    +0.000 A 
ATOM     15  C   UNL     1      -5.311  -2.783 125.103  0.00  0.00    +0.000 A 
ATOM     16  C   UNL     1      -5.282  -3.361 123.837  0.00  0.00    +0.000 A 
ATOM     17 CL   UNL     1      -4.602  -4.927 123.632  0.00  0.00    +0.000 Cl
ATOM     18  C   UNL     1      -5.795  -2.678 122.736  0.00  0.00    +0.000 A 
ATOM     19  C   UNL     1      -6.321  -1.394 122.904  0.00  0.00    +0.000 A 
ENDBRANCH   9  13
ENDBRANCH   1   3
BRANCH   1  23
ATOM     20  C   UNL     1      -9.544   4.196 130.849  0.00  0.00    +0.000 A 
ATOM     21  C   UNL     1      -8.593   4.314 129.823  0.00  0.00    +0.000 A 
ATOM     22  F   UNL     1      -8.274   5.540 129.433  0.00  0.00    +0.000 F 
ATOM     23  C   UNL     1      -7.933   3.232 129.238  0.00  0.00    +0.000 A 
ATOM     24  C   UNL     1      -8.258   1.965 129.717  0.00  0.00    +0.000 A 
ATOM     25  F   UNL     1      -7.701   0.856 129.208  0.00  0.00    +0.000 F 
ATOM     26  C   UNL     1      -9.183   1.803 130.760  0.00  0.00    +0.000 A 
ATOM     27  C   UNL     1      -9.822   2.917 131.333  0.00  0.00    +0.000 A 
BRANCH  20  28
ATOM     28  N   UNL     1     -10.154   5.373 131.431  0.00  0.00    +0.000 N 
ATOM     29  H   UNL     1      -9.849   5.693 132.347  0.00  0.00    +0.000 HD
BRANCH  28  30
ATOM     30  S   UNL     1     -11.563   6.005 130.732  0.00  0.00    +0.000 S 
ATOM     31  O   UNL     1     -12.407   6.456 131.813  0.00  0.00    +0.000 OA
ATOM     32  O   UNL     1     -12.056   5.090 129.723  0.00  0.00    +0.000 OA
BRANCH  30  33
ATOM     33  C   UNL     1     -11.031   7.441 129.796  0.00  0.00    +0.000 C 
BRANCH  33  35
ATOM     34  C   UNL     1     -10.638   8.231 127.415  0.00  0.00    +0.000 C 
ATOM     35  C   UNL     1     -11.292   7.188 128.302  0.00  0.00    +0.000 C 
ENDBRANCH  33  35
ENDBRANCH  30  33
ENDBRANCH  28  30
ENDBRANCH  20  28
ENDBRANCH   1  23
TORSDOF 7
ENDMDL
MODEL 3
REMARK VINA RESULT:      -8.7      5.627      8.548
REMARK  Name = Vemurafenib
REMARK  8 active torsions:
REMARK  status: ('A' for Active; 'I' for Inactive)
REMARK    1  A    between atoms: C_1  and  C_2
REMARK    2  A    between atoms: C_2  and  C_3
REMARK    3  A    between atoms: C_3  and  S_4
REMARK    4  A    between atoms: S_4  and  N_7
REMARK    5  A    between atoms: N_7  and  C_8
REMARK    6  A    between atoms: C_11  and  C_12
REMARK    7  A    between atoms: C_12  and  C_14
REMARK    8  A    between atoms: C_20  and  C_23
REMARK                            x       y       z     vdW  Elec       q    Type
REMARK                         _______ _______ _______ _____ _____    ______ ____
ROOT
ATOM      1  C   UNL     1      -7.469  -2.045 124.440  0.00  0.00    +0.000 C 
ATOM      2  O   UNL     1      -6.974  -2.826 123.634  0.00  0.00    +0.000 OA
ENDROOT
BRANCH   1   3
ATOM      3  C   UNL     1      -8.048  -0.782 123.970  0.00  0.00    +0.000 A 
ATOM      4  C   UNL     1      -9.149  -0.684 123.132  0.00  0.00    +0.000 A 
ATOM      5  N   UNL     1      -9.452   0.645 122.967  0.00  0.00    +0.000 N 
ATOM      6  C   UNL     1      -8.541   1.415 123.632  0.00  0.00    +0.000 A 
ATOM      7  N   UNL     1      -8.561   2.760 123.666  0.00  0.00    +0.000 NA
ATOM      8  C   UNL     1      -7.544   3.276 124.398  0.00  0.00    +0.000 A 
ATOM      9  C   UNL     1      -6.545   2.557 125.064  0.00  0.00    +0.000 A 
ATOM     10  C   UNL     1      -6.591   1.160 124.981  0.00  0.00    +0.000 A 
ATOM     11  C   UNL     1      -7.626   0.563 124.240  0.00  0.00    +0.000 A 
ATOM     12  H   UNL     1     -10.221   1.028 122.436  0.00  0.00    +0.000 HD
BRANCH   9  13
ATOM     13  C   UNL     1      -5.490   3.236 125.819  0.00  0.00    +0.000 A 
ATOM     14  C   UNL     1      -4.329   2.544 126.200  0.00  0.00    +0.000 A 
ATOM     15  C   UNL     1      -3.343   3.171 126.964  0.00  0.00    +0.000 A 
ATOM     16  C   UNL     1      -3.507   4.499 127.347  0.00  0.00    +0.000 A 
ATOM     17 CL   UNL     1      -2.305   5.260 128.315  0.00  0.00    +0.000 Cl
ATOM     18  C   UNL     1      -4.637   5.213 126.957  0.00  0.00    +0.000 A 
ATOM     19  C   UNL     1      -5.624   4.582 126.193  0.00  0.00    +0.000 A 
ENDBRANCH   9  13
ENDBRANCH   1   3
BRANCH   1  23
ATOM     20  C   UNL     1      -6.445  -2.476 128.118  0.00  0.00    +0.000 A 
ATOM     21  C   UNL     1      -6.444  -2.174 126.747  0.00  0.00    +0.000 A 
ATOM     22  F   UNL     1      -5.323  -1.683 126.238  0.00  0.00    +0.000 F 
ATOM     23  C   UNL     1      -7.520  -2.412 125.891  0.00  0.00    +0.000 A 
ATOM     24  C   UNL     1      -8.659  -2.982 126.458  0.00  0.00    +0.000 A 
ATOM     25  F   UNL     1      -9.758  -3.230 125.731  0.00  0.00    +0.000 F 
ATOM     26  C   UNL     1      -8.693  -3.324 127.818  0.00  0.00    +0.000 A 
ATOM     27  C   UNL     1      -7.585  -3.080 128.650  0.00  0.00    +0.000 A 
BRANCH  20  28
ATOM     28  N   UNL     1      -5.270  -2.236 128.930  0.00  0.00    +0.000 N 
ATOM     29  H   UNL     1      -4.584  -2.976 129.048  0.00  0.00    +0.000 HD
BRANCH  28  30
ATOM     30  S   UNL     1      -5.213  -0.855 129.912  0.00  0.00    +0.000 S 
ATOM     31  O   UNL     1      -3.849  -0.711 130.363  0.00  0.00    +0.000 OA
ATOM     32  O   UNL     1      -6.318  -0.881 130.849  0.00  0.00    +0.000 OA
BRANCH  30  33
ATOM     33  C   UNL     1      -5.596   0.521 128.826  0.00  0.00    +0.000 C 
BRANCH  33  35
ATOM     34  C   UNL     1      -8.037   0.871 128.222  0.00  0.00    +0.000 C 
ATOM     35  C   UNL     1      -6.945   1.128 129.244  0.00  0.00    +0.000 C 
ENDBRANCH  33  35
ENDBRANCH  30  33
ENDBRANCH  28  30
ENDBRANCH  20  28
ENDBRANCH   1  23
TORSDOF 7
ENDMDL
MODEL 4
REMARK VINA RESULT:      -8.7      6.410      7.877
REMARK  Name = Vemurafenib
REMARK  8 active torsions:
REMARK  status: ('A' for Active; 'I' for Inactive)
REMARK    1  A    between atoms: C_1  and  C_2
REMARK    2  A    between atoms: C_2  and  C_3
REMARK    3  A    between atoms: C_3  and  S_4
REMARK    4  A    between atoms: S_4  and  N_7
REMARK    5  A    between atoms: N_7  and  C_8
REMARK    6  A    between atoms: C_11  and  C_12
REMARK    7  A    between atoms: C_12  and  C_14
REMARK    8  A    between atoms: C_20  and  C_23
REMARK                            x       y       z     vdW  Elec       q    Type
REMARK                         _______ _______ _______ _____ _____    ______ ____
ROOT
ATOM      1  C   UNL     1      -6.219  -0.947 125.012  0.00  0.00    +0.000 C 
ATOM      2  O   UNL     1      -5.175  -1.540 124.759  0.00  0.00    +0.000 OA
ENDROOT
BRANCH   1   3
ATOM      3  C   UNL     1      -7.413  -1.705 125.397  0.00  0.00    +0.000 A 
ATOM      4  C   UNL     1      -8.517  -1.907 124.580  0.00  0.00    +0.000 A 
ATOM      5  N   UNL     1      -9.403  -2.721 125.240  0.00  0.00    +0.000 N 
ATOM      6  C   UNL     1      -8.928  -3.009 126.488  0.00  0.00    +0.000 A 
ATOM      7  N   UNL     1      -9.565  -3.785 127.384  0.00  0.00    +0.000 NA
ATOM      8  C   UNL     1      -8.876  -3.910 128.545  0.00  0.00    +0.000 A 
ATOM      9  C   UNL     1      -7.644  -3.323 128.852  0.00  0.00    +0.000 A 
ATOM     10  C   UNL     1      -7.044  -2.528 127.868  0.00  0.00    +0.000 A 
ATOM     11  C   UNL     1      -7.707  -2.363 126.639  0.00  0.00    +0.000 A 
ATOM     12  H   UNL     1     -10.283  -3.068 124.887  0.00  0.00    +0.000 HD
BRANCH   9  13
ATOM     13  C   UNL     1      -7.003  -3.529 130.152  0.00  0.00    +0.000 A 
ATOM     14  C   UNL     1      -7.396  -2.773 131.268  0.00  0.00    +0.000 A 
ATOM     15  C   UNL     1      -6.753  -2.929 132.497  0.00  0.00    +0.000 A 
ATOM     16  C   UNL     1      -5.716  -3.848 132.623  0.00  0.00    +0.000 A 
ATOM     17 CL   UNL     1      -4.905  -4.015 134.131  0.00  0.00    +0.000 Cl
ATOM     18  C   UNL     1      -5.328  -4.629 131.537  0.00  0.00    +0.000 A 
ATOM     19  C   UNL     1      -5.972  -4.470 130.306  0.00  0.00    +0.000 A 
ENDBRANCH   9  13
ENDBRANCH   1   3
BRANCH   1  23
ATOM     20  C   UNL     1      -6.794   2.646 123.778  0.00  0.00    +0.000 A 
ATOM     21  C   UNL     1      -6.722   1.246 123.861  0.00  0.00    +0.000 A 
ATOM     22  F   UNL     1      -7.081   0.558 122.785  0.00  0.00    +0.000 F 
ATOM     23  C   UNL     1      -6.248   0.550 124.973  0.00  0.00    +0.000 A 
ATOM     24  C   UNL     1      -5.828   1.315 126.060  0.00  0.00    +0.000 A 
ATOM     25  F   UNL     1      -5.378   0.747 127.188  0.00  0.00    +0.000 F 
ATOM     26  C   UNL     1      -5.858   2.717 126.010  0.00  0.00    +0.000 A 
ATOM     27  C   UNL     1      -6.333   3.386 124.867  0.00  0.00    +0.000 A 
BRANCH  20  28
ATOM     28  N   UNL     1      -7.261   3.293 122.569  0.00  0.00    +0.000 N 
ATOM     29  H   UNL     1      -8.259   3.332 122.377  0.00  0.00    +0.000 HD
BRANCH  28  30
ATOM     30  S   UNL     1      -6.142   3.687 121.359  0.00  0.00    +0.000 S 
ATOM     31  O   UNL     1      -5.478   2.462 120.980  0.00  0.00    +0.000 OA
ATOM     32  O   UNL     1      -5.391   4.860 121.756  0.00  0.00    +0.000 OA
BRANCH  30  33
ATOM     33  C   UNL     1      -7.123   4.249 119.964  0.00  0.00    +0.000 C 
BRANCH  33  35
ATOM     34  C   UNL     1      -9.505   4.356 119.090  0.00  0.00    +0.000 C 
ATOM     35  C   UNL     1      -8.601   3.918 120.227  0.00  0.00    +0.000 C 
ENDBRANCH  33  35
ENDBRANCH  30  33
ENDBRANCH  28  30
ENDBRANCH  20  28
ENDBRANCH   1  23
TORSDOF 7
ENDMDL
MODEL 5
REMARK VINA RESULT:      -8.6      4.298      6.893
REMARK  Name = Vemurafenib
REMARK  8 active torsions:
REMARK  status: ('A' for Active; 'I' for Inactive)
REMARK    1  A    between atoms: C_1  and  C_2
REMARK    2  A    between atoms: C_2  and  C_3
REMARK    3  A    between atoms: C_3  and  S_4
REMARK    4  A    between atoms: S_4  and  N_7
REMARK    5  A    between atoms: N_7  and  C_8
REMARK    6  A    between atoms: C_11  and  C_12
REMARK    7  A    between atoms: C_12  and  C_14
REMARK    8  A    between atoms: C_20  and  C_23
REMARK                            x       y       z     vdW  Elec       q    Type
REMARK                         _______ _______ _______ _____ _____    ______ ____
ROOT
ATOM      1  C   UNL     1      -8.180   3.304 125.352  0.00  0.00    +0.000 C 
ATOM      2  O   UNL     1      -8.879   4.311 125.401  0.00  0.00    +0.000 OA
ENDROOT
BRANCH   1   3
ATOM      3  C   UNL     1      -8.687   2.096 124.695  0.00  0.00    +0.000 A 
ATOM      4  C   UNL     1      -9.386   2.085 123.497  0.00  0.00    +0.000 A 
ATOM      5  N   UNL     1      -9.633   0.779 123.149  0.00  0.00    +0.000 N 
ATOM      6  C   UNL     1      -9.159  -0.056 124.120  0.00  0.00    +0.000 A 
ATOM      7  N   UNL     1      -9.246  -1.398 124.078  0.00  0.00    +0.000 NA
ATOM      8  C   UNL     1      -8.696  -1.989 125.168  0.00  0.00    +0.000 A 
ATOM      9  C   UNL     1      -8.098  -1.343 126.255  0.00  0.00    +0.000 A 
ATOM     10  C   UNL     1      -8.047   0.056 126.227  0.00  0.00    +0.000 A 
ATOM     11  C   UNL     1      -8.595   0.728 125.120  0.00  0.00    +0.000 A 
ATOM     12  H   UNL     1     -10.096   0.454 122.314  0.00  0.00    +0.000 HD
BRANCH   9  13
ATOM     13  C   UNL     1      -7.546  -2.097 127.381  0.00  0.00    +0.000 A 
ATOM     14  C   UNL     1      -8.367  -2.944 128.143  0.00  0.00    +0.000 A 
ATOM     15  C   UNL     1      -7.858  -3.626 129.249  0.00  0.00    +0.000 A 
ATOM     16  C   UNL     1      -6.520  -3.472 129.601  0.00  0.00    +0.000 A 
ATOM     17 CL   UNL     1      -5.903  -4.288 130.983  0.00  0.00    +0.000 Cl
ATOM     18  C   UNL     1      -5.680  -2.658 128.844  0.00  0.00    +0.000 A 
ATOM     19  C   UNL     1      -6.193  -1.976 127.737  0.00  0.00    +0.000 A 
ENDBRANCH   9  13
ENDBRANCH   1   3
BRANCH   1  23
ATOM     20  C   UNL     1      -5.294   3.349 127.889  0.00  0.00    +0.000 A 
ATOM     21  C   UNL     1      -6.568   3.343 127.299  0.00  0.00    +0.000 A 
ATOM     22  F   UNL     1      -7.612   3.401 128.115  0.00  0.00    +0.000 F 
ATOM     23  C   UNL     1      -6.795   3.337 125.922  0.00  0.00    +0.000 A 
ATOM     24  C   UNL     1      -5.669   3.333 125.101  0.00  0.00    +0.000 A 
ATOM     25  F   UNL     1      -5.773   3.302 123.765  0.00  0.00    +0.000 F 
ATOM     26  C   UNL     1      -4.377   3.366 125.648  0.00  0.00    +0.000 A 
ATOM     27  C   UNL     1      -4.186   3.382 127.041  0.00  0.00    +0.000 A 
BRANCH  20  28
ATOM     28  N   UNL     1      -5.145   3.397 129.329  0.00  0.00    +0.000 N 
ATOM     29  H   UNL     1      -4.911   4.279 129.778  0.00  0.00    +0.000 HD
BRANCH  28  30
ATOM     30  S   UNL     1      -5.051   1.946 130.198  0.00  0.00    +0.000 S 
ATOM     31  O   UNL     1      -4.126   2.161 131.286  0.00  0.00    +0.000 OA
ATOM     32  O   UNL     1      -4.887   0.838 129.278  0.00  0.00    +0.000 OA
BRANCH  30  33
ATOM     33  C   UNL     1      -6.687   1.696 130.892  0.00  0.00    +0.000 C 
BRANCH  33  35
ATOM     34  C   UNL     1      -8.218  -0.328 130.825  0.00  0.00    +0.000 C 
ATOM     35  C   UNL     1      -7.458   0.701 130.010  0.00  0.00    +0.000 C 
ENDBRANCH  33  35
ENDBRANCH  30  33
ENDBRANCH  28  30
ENDBRANCH  20  28
ENDBRANCH   1  23
TORSDOF 7
ENDMDL
MODEL 6
REMARK VINA RESULT:      -8.6      5.832      7.773
REMARK  Name = Vemurafenib
REMARK  8 active torsions:
REMARK  status: ('A' for Active; 'I' for Inactive)
REMARK    1  A    between atoms: C_1  and  C_2
REMARK    2  A    between atoms: C_2  and  C_3
REMARK    3  A    between atoms: C_3  and  S_4
REMARK    4  A    between atoms: S_4  and  N_7
REMARK    5  A    between atoms: N_7  and  C_8
REMARK    6  A    between atoms: C_11  and  C_12
REMARK    7  A    between atoms: C_12  and  C_14
REMARK    8  A    between atoms: C_20  and  C_23
REMARK                            x       y       z     vdW  Elec       q    Type
REMARK                         _______ _______ _______ _____ _____    ______ ____
ROOT
ATOM      1  C   UNL     1      -6.652   3.453 129.986  0.00  0.00    +0.000 C 
ATOM      2  O   UNL     1      -6.894   2.251 130.033  0.00  0.00    +0.000 OA
ENDROOT
BRANCH   1   3
ATOM      3  C   UNL     1      -5.667   3.962 129.028  0.00  0.00    +0.000 A 
ATOM      4  C   UNL     1      -5.670   3.681 127.669  0.00  0.00    +0.000 A 
ATOM      5  N   UNL     1      -4.651   4.385 127.076  0.00  0.00    +0.000 N 
ATOM      6  C   UNL     1      -3.951   5.074 128.026  0.00  0.00    +0.000 A 
ATOM      7  N   UNL     1      -2.890   5.860 127.767  0.00  0.00    +0.000 NA
ATOM      8  C   UNL     1      -2.380   6.429 128.887  0.00  0.00    +0.000 A 
ATOM      9  C   UNL     1      -2.843   6.257 130.196  0.00  0.00    +0.000 A 
ATOM     10  C   UNL     1      -3.950   5.422 130.385  0.00  0.00    +0.000 A 
ATOM     11  C   UNL     1      -4.529   4.806 129.261  0.00  0.00    +0.000 A 
ATOM     12  H   UNL     1      -4.424   4.407 126.093  0.00  0.00    +0.000 HD
BRANCH   9  13
ATOM     13  C   UNL     1      -2.196   6.923 131.328  0.00  0.00    +0.000 A 
ATOM     14  C   UNL     1      -2.835   7.982 131.993  0.00  0.00    +0.000 A 
ATOM     15  C   UNL     1      -2.202   8.654 133.039  0.00  0.00    +0.000 A 
ATOM     16  C   UNL     1      -0.925   8.268 133.435  0.00  0.00    +0.000 A 
ATOM     17 CL   UNL     1      -0.133   9.118 134.704  0.00  0.00    +0.000 Cl
ATOM     18  C   UNL     1      -0.282   7.203 132.808  0.00  0.00    +0.000 A 
ATOM     19  C   UNL     1      -0.918   6.533 131.760  0.00  0.00    +0.000 A 
ENDBRANCH   9  13
ENDBRANCH   1   3
BRANCH   1  23
ATOM     20  C   UNL     1      -9.144   6.128 131.169  0.00  0.00    +0.000 A 
ATOM     21  C   UNL     1      -8.392   5.244 130.378  0.00  0.00    +0.000 A 
ATOM     22  F   UNL     1      -8.610   5.269 129.071  0.00  0.00    +0.000 F 
ATOM     23  C   UNL     1      -7.404   4.394 130.877  0.00  0.00    +0.000 A 
ATOM     24  C   UNL     1      -7.169   4.442 132.249  0.00  0.00    +0.000 A 
ATOM     25  F   UNL     1      -6.260   3.650 132.836  0.00  0.00    +0.000 F 
ATOM     26  C   UNL     1      -7.879   5.330 133.072  0.00  0.00    +0.000 A 
ATOM     27  C   UNL     1      -8.861   6.180 132.534  0.00  0.00    +0.000 A 
BRANCH  20  28
ATOM     28  N   UNL     1     -10.124   7.009 130.566  0.00  0.00    +0.000 N 
ATOM     29  H   UNL     1      -9.901   7.992 130.440  0.00  0.00    +0.000 HD
BRANCH  28  30
ATOM     30  S   UNL     1     -11.717   6.463 130.376  0.00  0.00    +0.000 S 
ATOM     31  O   UNL     1     -12.350   6.540 131.672  0.00  0.00    +0.000 OA
ATOM     32  O   UNL     1     -11.721   5.235 129.608  0.00  0.00    +0.000 OA
BRANCH  30  33
ATOM     33  C   UNL     1     -12.507   7.657 129.293  0.00  0.00    +0.000 C 
BRANCH  33  35
ATOM     34  C   UNL     1     -11.068   7.900 127.215  0.00  0.00    +0.000 C 
ATOM     35  C   UNL     1     -11.421   8.474 128.575  0.00  0.00    +0.000 C 
ENDBRANCH  33  35
ENDBRANCH  30  33
ENDBRANCH  28  30
ENDBRANCH  20  28
ENDBRANCH   1  23
TORSDOF 7
ENDMDL
MODEL 7
REMARK VINA RESULT:      -8.6      6.553      9.115
REMARK  Name = Vemurafenib
REMARK  8 active torsions:
REMARK  status: ('A' for Active; 'I' for Inactive)
REMARK    1  A    between atoms: C_1  and  C_2
REMARK    2  A    between atoms: C_2  and  C_3
REMARK    3  A    between atoms: C_3  and  S_4
REMARK    4  A    between atoms: S_4  and  N_7
REMARK    5  A    between atoms: N_7  and  C_8
REMARK    6  A    between atoms: C_11  and  C_12
REMARK    7  A    between atoms: C_12  and  C_14
REMARK    8  A    between atoms: C_20  and  C_23
REMARK                            x       y       z     vdW  Elec       q    Type
REMARK                         _______ _______ _______ _____ _____    ______ ____
ROOT
ATOM      1  C   UNL     1      -6.572  -1.436 129.640  0.00  0.00    +0.000 C 
ATOM      2  O   UNL     1      -6.895  -0.375 130.164  0.00  0.00    +0.000 OA
ENDROOT
BRANCH   1   3
ATOM      3  C   UNL     1      -5.399  -2.165 130.131  0.00  0.00    +0.000 A 
ATOM      4  C   UNL     1      -4.147  -2.136 129.536  0.00  0.00    +0.000 A 
ATOM      5  N   UNL     1      -3.281  -2.871 130.308  0.00  0.00    +0.000 N 
ATOM      6  C   UNL     1      -3.954  -3.423 131.361  0.00  0.00    +0.000 A 
ATOM      7  N   UNL     1      -3.387  -4.200 132.302  0.00  0.00    +0.000 NA
ATOM      8  C   UNL     1      -4.277  -4.617 133.236  0.00  0.00    +0.000 A 
ATOM      9  C   UNL     1      -5.644  -4.321 133.278  0.00  0.00    +0.000 A 
ATOM     10  C   UNL     1      -6.160  -3.507 132.262  0.00  0.00    +0.000 A 
ATOM     11  C   UNL     1      -5.286  -3.037 131.266  0.00  0.00    +0.000 A 
ATOM     12  H   UNL     1      -2.294  -3.007 130.147  0.00  0.00    +0.000 HD
BRANCH   9  13
ATOM     13  C   UNL     1      -6.506  -4.842 134.340  0.00  0.00    +0.000 A 
ATOM     14  C   UNL     1      -6.098  -5.939 135.116  0.00  0.00    +0.000 A 
ATOM     15  C   UNL     1      -6.937  -6.472 136.095  0.00  0.00    +0.000 A 
ATOM     16  C   UNL     1      -8.191  -5.908 136.313  0.00  0.00    +0.000 A 
ATOM     17 CL   UNL     1      -9.236  -6.587 137.498  0.00  0.00    +0.000 Cl
ATOM     18  C   UNL     1      -8.606  -4.802 135.574  0.00  0.00    +0.000 A 
ATOM     19  C   UNL     1      -7.764  -4.271 134.593  0.00  0.00    +0.000 A 
ENDBRANCH   9  13
ENDBRANCH   1   3
BRANCH   1  23
ATOM     20  C   UNL     1      -8.158  -1.939 126.176  0.00  0.00    +0.000 A 
ATOM     21  C   UNL     1      -7.412  -1.440 127.255  0.00  0.00    +0.000 A 
ATOM     22  F   UNL     1      -6.712  -0.333 127.045  0.00  0.00    +0.000 F 
ATOM     23  C   UNL     1      -7.411  -2.000 128.533  0.00  0.00    +0.000 A 
ATOM     24  C   UNL     1      -8.205  -3.129 128.725  0.00  0.00    +0.000 A 
ATOM     25  F   UNL     1      -8.257  -3.760 129.906  0.00  0.00    +0.000 F 
ATOM     26  C   UNL     1      -8.987  -3.646 127.681  0.00  0.00    +0.000 A 
ATOM     27  C   UNL     1      -8.972  -3.049 126.407  0.00  0.00    +0.000 A 
BRANCH  20  28
ATOM     28  N   UNL     1      -8.137  -1.273 124.890  0.00  0.00    +0.000 N 
ATOM     29  H   UNL     1      -8.737  -0.467 124.734  0.00  0.00    +0.000 HD
BRANCH  28  30
ATOM     30  S   UNL     1      -7.363  -2.026 123.583  0.00  0.00    +0.000 S 
ATOM     31  O   UNL     1      -6.626  -1.003 122.880  0.00  0.00    +0.000 OA
ATOM     32  O   UNL     1      -8.301  -2.887 122.894  0.00  0.00    +0.000 OA
BRANCH  30  33
ATOM     33  C   UNL     1      -6.184  -3.164 124.317  0.00  0.00    +0.000 C 
BRANCH  33  35
ATOM     34  C   UNL     1      -4.215  -4.570 123.546  0.00  0.00    +0.000 C 
ATOM     35  C   UNL     1      -4.940  -3.244 123.417  0.00  0.00    +0.000 C 
ENDBRANCH  33  35
ENDBRANCH  30  33
ENDBRANCH  28  30
ENDBRANCH  20  28
ENDBRANCH   1  23
TORSDOF 7
ENDMDL
MODEL 8
REMARK VINA RESULT:      -8.5      4.172      7.671
REMARK  Name = Vemurafenib
REMARK  8 active torsions:
REMARK  status: ('A' for Active; 'I' for Inactive)
REMARK    1  A    between atoms: C_1  and  C_2
REMARK    2  A    between atoms: C_2  and  C_3
REMARK    3  A    between atoms: C_3  and  S_4
REMARK    4  A    between atoms: S_4  and  N_7
REMARK    5  A    between atoms: N_7  and  C_8
REMARK    6  A    between atoms: C_11  and  C_12
REMARK    7  A    between atoms: C_12  and  C_14
REMARK    8  A    between atoms: C_20  and  C_23
REMARK                            x       y       z     vdW  Elec       q    Type
REMARK                         _______ _______ _______ _____ _____    ______ ____
ROOT
ATOM      1  C   UNL     1      -8.084  -2.414 126.929  0.00  0.00    +0.000 C 
ATOM      2  O   UNL     1      -8.794  -3.247 127.484  0.00  0.00    +0.000 OA
ENDROOT
BRANCH   1   3
ATOM      3  C   UNL     1      -6.947  -1.830 127.647  0.00  0.00    +0.000 A 
ATOM      4  C   UNL     1      -5.680  -2.392 127.707  0.00  0.00    +0.000 A 
ATOM      5  N   UNL     1      -4.857  -1.537 128.397  0.00  0.00    +0.000 N 
ATOM      6  C   UNL     1      -5.572  -0.459 128.836  0.00  0.00    +0.000 A 
ATOM      7  N   UNL     1      -5.054   0.560 129.545  0.00  0.00    +0.000 NA
ATOM      8  C   UNL     1      -5.979   1.502 129.854  0.00  0.00    +0.000 A 
ATOM      9  C   UNL     1      -7.336   1.481 129.515  0.00  0.00    +0.000 A 
ATOM     10  C   UNL     1      -7.802   0.386 128.777  0.00  0.00    +0.000 A 
ATOM     11  C   UNL     1      -6.889  -0.623 128.421  0.00  0.00    +0.000 A 
ATOM     12  H   UNL     1      -3.872  -1.660 128.576  0.00  0.00    +0.000 HD
BRANCH   9  13
ATOM     13  C   UNL     1      -8.240   2.561 129.917  0.00  0.00    +0.000 A 
ATOM     14  C   UNL     1      -9.277   2.319 130.832  0.00  0.00    +0.000 A 
ATOM     15  C   UNL     1     -10.173   3.331 131.180  0.00  0.00    +0.000 A 
ATOM     16  C   UNL     1     -10.035   4.598 130.619  0.00  0.00    +0.000 A 
ATOM     17 CL   UNL     1     -11.159   5.835 131.025  0.00  0.00    +0.000 Cl
ATOM     18  C   UNL     1      -8.997   4.868 129.730  0.00  0.00    +0.000 A 
ATOM     19  C   UNL     1      -8.103   3.852 129.383  0.00  0.00    +0.000 A 
ENDBRANCH   9  13
ENDBRANCH   1   3
BRANCH   1  23
ATOM     20  C   UNL     1      -9.182  -0.392 123.851  0.00  0.00    +0.000 A 
ATOM     21  C   UNL     1      -8.924  -0.807 125.167  0.00  0.00    +0.000 A 
ATOM     22  F   UNL     1      -9.296   0.012 126.142  0.00  0.00    +0.000 F 
ATOM     23  C   UNL     1      -8.359  -2.037 125.505  0.00  0.00    +0.000 A 
ATOM     24  C   UNL     1      -8.036  -2.890 124.452  0.00  0.00    +0.000 A 
ATOM     25  F   UNL     1      -7.467  -4.085 124.663  0.00  0.00    +0.000 F 
ATOM     26  C   UNL     1      -8.301  -2.526 123.122  0.00  0.00    +0.000 A 
ATOM     27  C   UNL     1      -8.881  -1.282 122.819  0.00  0.00    +0.000 A 
BRANCH  20  28
ATOM     28  N   UNL     1      -9.810   0.886 123.587  0.00  0.00    +0.000 N 
ATOM     29  H   UNL     1     -10.739   0.911 123.175  0.00  0.00    +0.000 HD
BRANCH  28  30
ATOM     30  S   UNL     1      -8.876   2.298 123.674  0.00  0.00    +0.000 S 
ATOM     31  O   UNL     1      -9.150   2.911 124.952  0.00  0.00    +0.000 OA
ATOM     32  O   UNL     1      -9.006   3.043 122.437  0.00  0.00    +0.000 OA
BRANCH  30  33
ATOM     33  C   UNL     1      -7.169   1.744 123.670  0.00  0.00    +0.000 C 
BRANCH  33  35
ATOM     34  C   UNL     1      -5.642   0.961 125.542  0.00  0.00    +0.000 C 
ATOM     35  C   UNL     1      -6.533   2.077 125.030  0.00  0.00    +0.000 C 
ENDBRANCH  33  35
ENDBRANCH  30  33
ENDBRANCH  28  30
ENDBRANCH  20  28
ENDBRANCH   1  23
TORSDOF 7
ENDMDL
MODEL 9
REMARK VINA RESULT:      -8.5      4.222      7.340
REMARK  Name = Vemurafenib
REMARK  8 active torsions:
REMARK  status: ('A' for Active; 'I' for Inactive)
REMARK    1  A    between atoms: C_1  and  C_2
REMARK    2  A    between atoms: C_2  and  C_3
REMARK    3  A    between atoms: C_3  and  S_4
REMARK    4  A    between atoms: S_4  and  N_7
REMARK    5  A    between atoms: N_7  and  C_8
REMARK    6  A    between atoms: C_11  and  C_12
REMARK    7  A    between atoms: C_12  and  C_14
REMARK    8  A    between atoms: C_20  and  C_23
REMARK                            x       y       z     vdW  Elec       q    Type
REMARK                         _______ _______ _______ _____ _____    ______ ____
ROOT
ATOM      1  C   UNL     1      -6.598  -2.372 128.295  0.00  0.00    +0.000 C 
ATOM      2  O   UNL     1      -5.410  -2.562 128.052  0.00  0.00    +0.000 OA
ENDROOT
BRANCH   1   3
ATOM      3  C   UNL     1      -7.039  -2.197 129.682  0.00  0.00    +0.000 A 
ATOM      4  C   UNL     1      -6.985  -3.182 130.658  0.00  0.00    +0.000 A 
ATOM      5  N   UNL     1      -7.408  -2.641 131.847  0.00  0.00    +0.000 N 
ATOM      6  C   UNL     1      -7.789  -1.343 131.656  0.00  0.00    +0.000 A 
ATOM      7  N   UNL     1      -8.253  -0.536 132.627  0.00  0.00    +0.000 NA
ATOM      8  C   UNL     1      -8.558   0.704 132.170  0.00  0.00    +0.000 A 
ATOM      9  C   UNL     1      -8.440   1.161 130.853  0.00  0.00    +0.000 A 
ATOM     10  C   UNL     1      -7.950   0.262 129.899  0.00  0.00    +0.000 A 
ATOM     11  C   UNL     1      -7.610  -1.039 130.311  0.00  0.00    +0.000 A 
ATOM     12  H   UNL     1      -7.448  -3.106 132.741  0.00  0.00    +0.000 HD
BRANCH   9  13
ATOM     13  C   UNL     1      -8.813   2.528 130.483  0.00  0.00    +0.000 A 
ATOM     14  C   UNL     1     -10.041   3.068 130.897  0.00  0.00    +0.000 A 
ATOM     15  C   UNL     1     -10.425   4.351 130.505  0.00  0.00    +0.000 A 
ATOM     16  C   UNL     1      -9.580   5.108 129.699  0.00  0.00    +0.000 A 
ATOM     17 CL   UNL     1     -10.070   6.677 129.190  0.00  0.00    +0.000 Cl
ATOM     18  C   UNL     1      -8.345   4.603 129.298  0.00  0.00    +0.000 A 
ATOM     19  C   UNL     1      -7.964   3.318 129.692  0.00  0.00    +0.000 A 
ENDBRANCH   9  13
ENDBRANCH   1   3
BRANCH   1  23
ATOM     20  C   UNL     1      -8.413  -1.090 125.160  0.00  0.00    +0.000 A 
ATOM     21  C   UNL     1      -7.536  -1.221 126.249  0.00  0.00    +0.000 A 
ATOM     22  F   UNL     1      -6.654  -0.249 126.435  0.00  0.00    +0.000 F 
ATOM     23  C   UNL     1      -7.578  -2.272 127.166  0.00  0.00    +0.000 A 
ATOM     24  C   UNL     1      -8.558  -3.242 126.966  0.00  0.00    +0.000 A 
ATOM     25  F   UNL     1      -8.670  -4.307 127.773  0.00  0.00    +0.000 F 
ATOM     26  C   UNL     1      -9.471  -3.136 125.906  0.00  0.00    +0.000 A 
ATOM     27  C   UNL     1      -9.407  -2.057 125.006  0.00  0.00    +0.000 A 
BRANCH  20  28
ATOM     28  N   UNL     1      -8.329   0.055 124.277  0.00  0.00    +0.000 N 
ATOM     29  H   UNL     1      -7.552   0.128 123.626  0.00  0.00    +0.000 HD
BRANCH  28  30
ATOM     30  S   UNL     1      -9.336   1.389 124.558  0.00  0.00    +0.000 S 
ATOM     31  O   UNL     1      -9.175   1.759 125.945  0.00  0.00    +0.000 OA
ATOM     32  O   UNL     1     -10.646   1.136 123.994  0.00  0.00    +0.000 OA
BRANCH  30  33
ATOM     33  C   UNL     1      -8.673   2.712 123.542  0.00  0.00    +0.000 C 
BRANCH  33  35
ATOM     34  C   UNL     1      -6.240   3.067 124.177  0.00  0.00    +0.000 C 
ATOM     35  C   UNL     1      -7.204   2.401 123.213  0.00  0.00    +0.000 C 
ENDBRANCH  33  35
ENDBRANCH  30  33
ENDBRANCH  28  30
ENDBRANCH  20  28
ENDBRANCH   1  23
TORSDOF 7
ENDMDL
