MODEL 1
REMARK VINA RESULT:      -6.6      0.000      0.000
REMARK  Name = Venlafaxine
REMARK  9 active torsions:
REMARK  status: ('A' for Active; 'I' for Inactive)
REMARK    1  A    between atoms: C_1  and  O_2
REMARK    2  A    between atoms: O_2  and  C_3
REMARK    3  A    between atoms: C_6  and  C_9
REMARK    4  A    between atoms: C_9  and  C_10
REMARK    5  A    between atoms: C_9  and  C_14
REMARK    6  A    between atoms: C_10  and  N_11
REMARK    7  A    between atoms: N_11  and  C_12
REMARK    8  A    between atoms: N_11  and  C_13
REMARK    9  A    between atoms: C_14  and  O_15
REMARK                            x       y       z     vdW  Elec       q    Type
REMARK                         _______ _______ _______ _____ _____    ______ ____
ROOT
ATOM      1  C   UNL     1      -7.686   2.783 124.247  0.00  0.00    +0.000 C 
ENDROOT
BRANCH   1   5
ATOM      2  C   UNL     1      -7.258   4.103 120.060  0.00  0.00    +0.000 A 
ATOM      3  C   UNL     1      -6.176   3.627 120.791  0.00  0.00    +0.000 A 
ATOM      4  C   UNL     1      -6.326   2.880 121.980  0.00  0.00    +0.000 A 
ATOM      5  C   UNL     1      -7.550   2.951 122.646  0.00  0.00    +0.000 A 
ATOM      6  C   UNL     1      -8.637   3.270 121.802  0.00  0.00    +0.000 A 
ATOM      7  C   UNL     1      -8.527   3.847 120.549  0.00  0.00    +0.000 A 
BRANCH   2   9
ATOM      8  C   UNL     1      -5.834   5.560 118.837  0.00  0.00    +0.000 C 
ATOM      9  O   UNL     1      -6.971   4.706 118.880  0.00  0.00    +0.000 OA
ENDBRANCH   2   9
ENDBRANCH   1   5
BRANCH   1  10
ATOM     10  C   UNL     1      -8.553   1.452 124.472  0.00  0.00    +0.000 C 
ATOM     11  C   UNL     1      -9.856   0.966 123.809  0.00  0.00    +0.000 C 
ATOM     12  C   UNL     1      -9.810  -0.056 122.685  0.00  0.00    +0.000 C 
ATOM     13  C   UNL     1      -8.832  -1.192 122.947  0.00  0.00    +0.000 C 
ATOM     14  C   UNL     1      -7.476  -0.625 123.269  0.00  0.00    +0.000 C 
ATOM     15  C   UNL     1      -7.567   0.229 124.523  0.00  0.00    +0.000 C 
BRANCH  10  16
ATOM     16  O   UNL     1      -9.197   1.782 125.756  0.00  0.00    +0.000 OA
ATOM     17  H   UNL     1      -8.794   2.628 126.048  0.00  0.00    +0.000 HD
ENDBRANCH  10  16
ENDBRANCH   1  10
BRANCH   1  18
ATOM     18  C   UNL     1      -8.262   4.047 125.077  0.00  0.00    +0.000 C 
BRANCH  18  19
ATOM     19  N   UNL     1      -7.324   4.866 125.907  0.00  0.00    +0.000 NA
ATOM     20  C   UNL     1      -6.865   4.116 127.070  0.00  0.00    +0.000 C 
ATOM     21  C   UNL     1      -6.066   5.196 125.222  0.00  0.00    +0.000 C 
ENDBRANCH  18  19
ENDBRANCH   1  18
TORSDOF 6
ENDMDL
MODEL 2
REMARK VINA RESULT:      -6.4      3.653      7.205
REMARK  Name = Venlafaxine
REMARK  9 active torsions:
REMARK  status: ('A' for Active; 'I' for Inactive)
REMARK    1  A    between atoms: C_1  and  O_2
REMARK    2  A    between atoms: O_2  and  C_3
REMARK    3  A    between atoms: C_6  and  C_9
REMARK    4  A    between atoms: C_9  and  C_10
REMARK    5  A    between atoms: C_9  and  C_14
REMARK    6  A    between atoms: C_10  and  N_11
REMARK    7  A    between atoms: N_11  and  C_12
REMARK    8  A    between atoms: N_11  and  C_13
REMARK    9  A    between atoms: C_14  and  O_15
REMARK                            x       y       z     vdW  Elec       q    Type
REMARK                         _______ _______ _______ _____ _____    ______ ____
ROOT
ATOM      1  C   UNL     1      -8.139  -0.058 125.538  0.00  0.00    +0.000 C 
ENDROOT
BRANCH   1   5
ATOM      2  C   UNL     1      -7.619  -3.093 128.697  0.00  0.00    +0.000 A 
ATOM      3  C   UNL     1      -7.308  -1.755 128.909  0.00  0.00    +0.000 A 
ATOM      4  C   UNL     1      -7.780  -0.719 128.075  0.00  0.00    +0.000 A 
ATOM      5  C   UNL     1      -8.234  -1.061 126.802  0.00  0.00    +0.000 A 
ATOM      6  C   UNL     1      -8.700  -2.392 126.704  0.00  0.00    +0.000 A 
ATOM      7  C   UNL     1      -8.401  -3.404 127.599  0.00  0.00    +0.000 A 
BRANCH   2   9
ATOM      8  C   UNL     1      -5.854  -3.839 130.102  0.00  0.00    +0.000 C 
ATOM      9  O   UNL     1      -7.193  -3.969 129.640  0.00  0.00    +0.000 OA
ENDBRANCH   2   9
ENDBRANCH   1   5
BRANCH   1  10
ATOM     10  C   UNL     1      -6.709  -0.337 124.869  0.00  0.00    +0.000 C 
ATOM     11  C   UNL     1      -5.564  -1.284 125.278  0.00  0.00    +0.000 C 
ATOM     12  C   UNL     1      -5.401  -2.632 124.595  0.00  0.00    +0.000 C 
ATOM     13  C   UNL     1      -5.589  -2.566 123.086  0.00  0.00    +0.000 C 
ATOM     14  C   UNL     1      -6.908  -1.913 122.771  0.00  0.00    +0.000 C 
ATOM     15  C   UNL     1      -6.916  -0.495 123.318  0.00  0.00    +0.000 C 
BRANCH  10  16
ATOM     16  O   UNL     1      -5.993   0.886 125.276  0.00  0.00    +0.000 OA
ATOM     17  H   UNL     1      -5.816   0.784 126.236  0.00  0.00    +0.000 HD
ENDBRANCH  10  16
ENDBRANCH   1  10
BRANCH   1  18
ATOM     18  C   UNL     1      -8.396   1.514 125.822  0.00  0.00    +0.000 C 
BRANCH  18  19
ATOM     19  N   UNL     1      -9.269   2.293 124.889  0.00  0.00    +0.000 NA
ATOM     20  C   UNL     1      -8.472   2.997 123.892  0.00  0.00    +0.000 C 
ATOM     21  C   UNL     1     -10.145   1.450 124.060  0.00  0.00    +0.000 C 
ENDBRANCH  18  19
ENDBRANCH   1  18
TORSDOF 6
ENDMDL
MODEL 3
REMARK VINA RESULT:      -6.3      4.079      7.619
REMARK  Name = Venlafaxine
REMARK  9 active torsions:
REMARK  status: ('A' for Active; 'I' for Inactive)
REMARK    1  A    between atoms: C_1  and  O_2
REMARK    2  A    between atoms: O_2  and  C_3
REMARK    3  A    between atoms: C_6  and  C_9
REMARK    4  A    between atoms: C_9  and  C_10
REMARK    5  A    between atoms: C_9  and  C_14
REMARK    6  A    between atoms: C_10  and  N_11
REMARK    7  A    between atoms: N_11  and  C_12
REMARK    8  A    between atoms: N_11  and  C_13
REMARK    9  A    between atoms: C_14  and  O_15
REMARK                            x       y       z     vdW  Elec       q    Type
REMARK                         _______ _______ _______ _____ _____    ______ ____
ROOT
ATOM      1  C   UNL     1      -8.990  -1.363 125.489  0.00  0.00    +0.000 C 
ENDROOT
BRANCH   1   5
ATOM      2  C   UNL     1      -7.719  -2.883 129.430  0.00  0.00    +0.000 A 
ATOM      3  C   UNL     1      -8.651  -3.558 128.651  0.00  0.00    +0.000 A 
ATOM      4  C   UNL     1      -8.818  -3.310 127.272  0.00  0.00    +0.000 A 
ATOM      5  C   UNL     1      -8.327  -2.109 126.760  0.00  0.00    +0.000 A 
ATOM      6  C   UNL     1      -7.259  -1.568 127.509  0.00  0.00    +0.000 A 
ATOM      7  C   UNL     1      -6.951  -1.910 128.814  0.00  0.00    +0.000 A 
BRANCH   2   9
ATOM      8  C   UNL     1      -6.284  -3.659 131.158  0.00  0.00    +0.000 C 
ATOM      9  O   UNL     1      -7.587  -3.301 130.713  0.00  0.00    +0.000 OA
ENDBRANCH   2   9
ENDBRANCH   1   5
BRANCH   1  10
ATOM     10  C   UNL     1      -7.943  -1.541 124.286  0.00  0.00    +0.000 C 
ATOM     11  C   UNL     1      -6.499  -1.033 124.115  0.00  0.00    +0.000 C 
ATOM     12  C   UNL     1      -5.323  -1.956 124.387  0.00  0.00    +0.000 C 
ATOM     13  C   UNL     1      -5.518  -3.357 123.824  0.00  0.00    +0.000 C 
ATOM     14  C   UNL     1      -6.823  -3.921 124.316  0.00  0.00    +0.000 C 
ATOM     15  C   UNL     1      -7.969  -3.046 123.834  0.00  0.00    +0.000 C 
BRANCH  10  16
ATOM     16  O   UNL     1      -8.512  -0.592 123.311  0.00  0.00    +0.000 OA
ATOM     17  H   UNL     1      -9.090  -1.126 122.726  0.00  0.00    +0.000 HD
ENDBRANCH  10  16
ENDBRANCH   1  10
BRANCH   1  18
ATOM     18  C   UNL     1      -9.448   0.175 125.691  0.00  0.00    +0.000 C 
BRANCH  18  19
ATOM     19  N   UNL     1      -8.407   1.249 125.734  0.00  0.00    +0.000 NA
ATOM     20  C   UNL     1      -8.788   2.382 124.900  0.00  0.00    +0.000 C 
ATOM     21  C   UNL     1      -8.252   1.866 127.060  0.00  0.00    +0.000 C 
ENDBRANCH  18  19
ENDBRANCH   1  18
TORSDOF 6
ENDMDL
MODEL 4
REMARK VINA RESULT:      -6.1      3.300      5.647
REMARK  Name = Venlafaxine
REMARK  9 active torsions:
REMARK  status: ('A' for Active; 'I' for Inactive)
REMARK    1  A    between atoms: C_1  and  O_2
REMARK    2  A    between atoms: O_2  and  C_3
REMARK    3  A    between atoms: C_6  and  C_9
REMARK    4  A    between atoms: C_9  and  C_10
REMARK    5  A    between atoms: C_9  and  C_14
REMARK    6  A    between atoms: C_10  and  N_11
REMARK    7  A    between atoms: N_11  and  C_12
REMARK    8  A    between atoms: N_11  and  C_13
REMARK    9  A    between atoms: C_14  and  O_15
REMARK                            x       y       z     vdW  Elec       q    Type
REMARK                         _______ _______ _______ _____ _____    ______ ____
ROOT
ATOM      1  C   UNL     1      -7.757   0.345 125.268  0.00  0.00    +0.000 C 
ENDROOT
BRANCH   1   5
ATOM      2  C   UNL     1      -5.309  -2.840 123.444  0.00  0.00    +0.000 A 
ATOM      3  C   UNL     1      -6.226  -2.105 122.701  0.00  0.00    +0.000 A 
ATOM      4  C   UNL     1      -6.757  -0.874 123.143  0.00  0.00    +0.000 A 
ATOM      5  C   UNL     1      -6.672  -0.577 124.504  0.00  0.00    +0.000 A 
ATOM      6  C   UNL     1      -5.604  -1.228 125.161  0.00  0.00    +0.000 A 
ATOM      7  C   UNL     1      -4.936  -2.340 124.679  0.00  0.00    +0.000 A 
BRANCH   2   9
ATOM      8  C   UNL     1      -4.124  -4.886 123.676  0.00  0.00    +0.000 C 
ATOM      9  O   UNL     1      -4.797  -3.945 122.849  0.00  0.00    +0.000 OA
ENDBRANCH   2   9
ENDBRANCH   1   5
BRANCH   1  10
ATOM     10  C   UNL     1      -8.743  -0.675 126.017  0.00  0.00    +0.000 C 
ATOM     11  C   UNL     1      -9.197  -2.101 125.650  0.00  0.00    +0.000 C 
ATOM     12  C   UNL     1      -8.538  -3.307 126.299  0.00  0.00    +0.000 C 
ATOM     13  C   UNL     1      -8.313  -3.136 127.794  0.00  0.00    +0.000 C 
ATOM     14  C   UNL     1      -7.558  -1.859 128.047  0.00  0.00    +0.000 C 
ATOM     15  C   UNL     1      -8.374  -0.679 127.545  0.00  0.00    +0.000 C 
BRANCH  10  16
ATOM     16  O   UNL     1     -10.042  -0.057 125.695  0.00  0.00    +0.000 OA
ATOM     17  H   UNL     1     -10.571  -0.760 125.261  0.00  0.00    +0.000 HD
ENDBRANCH  10  16
ENDBRANCH   1  10
BRANCH   1  18
ATOM     18  C   UNL     1      -8.553   1.439 124.382  0.00  0.00    +0.000 C 
BRANCH  18  19
ATOM     19  N   UNL     1      -7.800   2.589 123.790  0.00  0.00    +0.000 NA
ATOM     20  C   UNL     1      -8.413   3.029 122.543  0.00  0.00    +0.000 C 
ATOM     21  C   UNL     1      -7.840   3.807 124.613  0.00  0.00    +0.000 C 
ENDBRANCH  18  19
ENDBRANCH   1  18
TORSDOF 6
ENDMDL
MODEL 5
REMARK VINA RESULT:      -6.0      7.383      9.356
REMARK  Name = Venlafaxine
REMARK  9 active torsions:
REMARK  status: ('A' for Active; 'I' for Inactive)
REMARK    1  A    between atoms: C_1  and  O_2
REMARK    2  A    between atoms: O_2  and  C_3
REMARK    3  A    between atoms: C_6  and  C_9
REMARK    4  A    between atoms: C_9  and  C_10
REMARK    5  A    between atoms: C_9  and  C_14
REMARK    6  A    between atoms: C_10  and  N_11
REMARK    7  A    between atoms: N_11  and  C_12
REMARK    8  A    between atoms: N_11  and  C_13
REMARK    9  A    between atoms: C_14  and  O_15
REMARK                            x       y       z     vdW  Elec       q    Type
REMARK                         _______ _______ _______ _____ _____    ______ ____
ROOT
ATOM      1  C   UNL     1      -9.353   6.318 130.695  0.00  0.00    +0.000 C 
ENDROOT
BRANCH   1   5
ATOM      2  C   UNL     1      -5.280   6.080 132.375  0.00  0.00    +0.000 A 
ATOM      3  C   UNL     1      -5.560   6.826 131.235  0.00  0.00    +0.000 A 
ATOM      4  C   UNL     1      -6.869   7.213 130.877  0.00  0.00    +0.000 A 
ATOM      5  C   UNL     1      -7.935   6.515 131.445  0.00  0.00    +0.000 A 
ATOM      6  C   UNL     1      -7.627   5.927 132.693  0.00  0.00    +0.000 A 
ATOM      7  C   UNL     1      -6.348   5.686 133.162  0.00  0.00    +0.000 A 
BRANCH   2   9
ATOM      8  C   UNL     1      -3.139   5.386 131.613  0.00  0.00    +0.000 C 
ATOM      9  O   UNL     1      -3.970   5.878 132.658  0.00  0.00    +0.000 OA
ENDBRANCH   2   9
ENDBRANCH   1   5
BRANCH   1  10
ATOM     10  C   UNL     1      -9.212   4.961 129.851  0.00  0.00    +0.000 C 
ATOM     11  C   UNL     1      -7.979   4.101 129.511  0.00  0.00    +0.000 C 
ATOM     12  C   UNL     1      -7.672   2.848 130.313  0.00  0.00    +0.000 C 
ATOM     13  C   UNL     1      -8.906   2.005 130.605  0.00  0.00    +0.000 C 
ATOM     14  C   UNL     1      -9.960   2.863 131.252  0.00  0.00    +0.000 C 
ATOM     15  C   UNL     1     -10.356   3.982 130.304  0.00  0.00    +0.000 C 
BRANCH  10  16
ATOM     16  O   UNL     1      -9.358   5.494 128.485  0.00  0.00    +0.000 OA
ATOM     17  H   UNL     1      -8.593   6.093 128.349  0.00  0.00    +0.000 HD
ENDBRANCH  10  16
ENDBRANCH   1  10
BRANCH   1  18
ATOM     18  C   UNL     1      -9.894   7.552 129.800  0.00  0.00    +0.000 C 
BRANCH  18  19
ATOM     19  N   UNL     1     -11.276   7.491 129.229  0.00  0.00    +0.000 NA
ATOM     20  C   UNL     1     -12.279   7.511 130.286  0.00  0.00    +0.000 C 
ATOM     21  C   UNL     1     -11.633   8.670 128.426  0.00  0.00    +0.000 C 
ENDBRANCH  18  19
ENDBRANCH   1  18
TORSDOF 6
ENDMDL
MODEL 6
REMARK VINA RESULT:      -5.9      8.354     10.310
REMARK  Name = Venlafaxine
REMARK  9 active torsions:
REMARK  status: ('A' for Active; 'I' for Inactive)
REMARK    1  A    between atoms: C_1  and  O_2
REMARK    2  A    between atoms: O_2  and  C_3
REMARK    3  A    between atoms: C_6  and  C_9
REMARK    4  A    between atoms: C_9  and  C_10
REMARK    5  A    between atoms: C_9  and  C_14
REMARK    6  A    between atoms: C_10  and  N_11
REMARK    7  A    between atoms: N_11  and  C_12
REMARK    8  A    between atoms: N_11  and  C_13
REMARK    9  A    between atoms: C_14  and  O_15
REMARK                            x       y       z     vdW  Elec       q    Type
REMARK                         _______ _______ _______ _____ _____    ______ ____
ROOT
ATOM      1  C   UNL     1      -9.716   4.501 130.988  0.00  0.00    +0.000 C 
ENDROOT
BRANCH   1   5
ATOM      2  C   UNL     1      -8.055   0.515 131.891  0.00  0.00    +0.000 A 
ATOM      3  C   UNL     1      -9.407   0.796 132.046  0.00  0.00    +0.000 A 
ATOM      4  C   UNL     1     -10.029   1.913 131.447  0.00  0.00    +0.000 A 
ATOM      5  C   UNL     1      -9.215   2.964 131.024  0.00  0.00    +0.000 A 
ATOM      6  C   UNL     1      -7.894   2.570 130.716  0.00  0.00    +0.000 A 
ATOM      7  C   UNL     1      -7.297   1.395 131.139  0.00  0.00    +0.000 A 
BRANCH   2   9
ATOM      8  C   UNL     1      -7.484  -1.767 131.553  0.00  0.00    +0.000 C 
ATOM      9  O   UNL     1      -7.615  -0.651 132.426  0.00  0.00    +0.000 OA
ENDBRANCH   2   9
ENDBRANCH   1   5
BRANCH   1  10
ATOM     10  C   UNL     1      -9.436   5.082 132.457  0.00  0.00    +0.000 C 
ATOM     11  C   UNL     1      -9.299   4.376 133.819  0.00  0.00    +0.000 C 
ATOM     12  C   UNL     1      -7.925   4.085 134.399  0.00  0.00    +0.000 C 
ATOM     13  C   UNL     1      -6.952   5.245 134.246  0.00  0.00    +0.000 C 
ATOM     14  C   UNL     1      -6.894   5.666 132.802  0.00  0.00    +0.000 C 
ATOM     15  C   UNL     1      -8.269   6.131 132.353  0.00  0.00    +0.000 C 
BRANCH  10  16
ATOM     16  O   UNL     1     -10.759   5.657 132.760  0.00  0.00    +0.000 OA
ATOM     17  H   UNL     1     -10.998   6.203 131.981  0.00  0.00    +0.000 HD
ENDBRANCH  10  16
ENDBRANCH   1  10
BRANCH   1  18
ATOM     18  C   UNL     1     -11.231   4.773 130.492  0.00  0.00    +0.000 C 
BRANCH  18  19
ATOM     19  N   UNL     1     -11.481   5.804 129.436  0.00  0.00    +0.000 NA
ATOM     20  C   UNL     1     -12.530   6.729 129.846  0.00  0.00    +0.000 C 
ATOM     21  C   UNL     1     -10.337   6.699 129.205  0.00  0.00    +0.000 C 
ENDBRANCH  18  19
ENDBRANCH   1  18
TORSDOF 6
ENDMDL
MODEL 7
REMARK VINA RESULT:      -5.8      5.013      8.086
REMARK  Name = Venlafaxine
REMARK  9 active torsions:
REMARK  status: ('A' for Active; 'I' for Inactive)
REMARK    1  A    between atoms: C_1  and  O_2
REMARK    2  A    between atoms: O_2  and  C_3
REMARK    3  A    between atoms: C_6  and  C_9
REMARK    4  A    between atoms: C_9  and  C_10
REMARK    5  A    between atoms: C_9  and  C_14
REMARK    6  A    between atoms: C_10  and  N_11
REMARK    7  A    between atoms: N_11  and  C_12
REMARK    8  A    between atoms: N_11  and  C_13
REMARK    9  A    between atoms: C_14  and  O_15
REMARK                            x       y       z     vdW  Elec       q    Type
REMARK                         _______ _______ _______ _____ _____    ______ ____
ROOT
ATOM      1  C   UNL     1      -7.128  -0.694 127.075  0.00  0.00    +0.000 C 
ENDROOT
BRANCH   1   5
ATOM      2  C   UNL     1      -5.663  -3.736 129.915  0.00  0.00    +0.000 A 
ATOM      3  C   UNL     1      -7.015  -3.604 129.616  0.00  0.00    +0.000 A 
ATOM      4  C   UNL     1      -7.482  -2.908 128.480  0.00  0.00    +0.000 A 
ATOM      5  C   UNL     1      -6.613  -2.009 127.862  0.00  0.00    +0.000 A 
ATOM      6  C   UNL     1      -5.247  -2.308 128.066  0.00  0.00    +0.000 A 
ATOM      7  C   UNL     1      -4.755  -3.128 129.066  0.00  0.00    +0.000 A 
BRANCH   2   9
ATOM      8  C   UNL     1      -5.774  -4.096 132.261  0.00  0.00    +0.000 C 
ATOM      9  O   UNL     1      -5.353  -4.526 130.972  0.00  0.00    +0.000 OA
ENDBRANCH   2   9
ENDBRANCH   1   5
BRANCH   1  10
ATOM     10  C   UNL     1      -7.408  -1.172 125.569  0.00  0.00    +0.000 C 
ATOM     11  C   UNL     1      -6.689  -2.207 124.683  0.00  0.00    +0.000 C 
ATOM     12  C   UNL     1      -7.256  -3.607 124.523  0.00  0.00    +0.000 C 
ATOM     13  C   UNL     1      -8.766  -3.624 124.329  0.00  0.00    +0.000 C 
ATOM     14  C   UNL     1      -9.425  -2.856 125.443  0.00  0.00    +0.000 C 
ATOM     15  C   UNL     1      -8.953  -1.411 125.412  0.00  0.00    +0.000 C 
BRANCH  10  16
ATOM     16  O   UNL     1      -6.883  -0.008 124.831  0.00  0.00    +0.000 OA
ATOM     17  H   UNL     1      -7.531   0.168 124.116  0.00  0.00    +0.000 HD
ENDBRANCH  10  16
ENDBRANCH   1  10
BRANCH   1  18
ATOM     18  C   UNL     1      -6.191   0.623 127.144  0.00  0.00    +0.000 C 
BRANCH  18  19
ATOM     19  N   UNL     1      -6.832   1.974 127.193  0.00  0.00    +0.000 NA
ATOM     20  C   UNL     1      -8.214   1.882 127.647  0.00  0.00    +0.000 C 
ATOM     21  C   UNL     1      -6.229   2.877 128.185  0.00  0.00    +0.000 C 
ENDBRANCH  18  19
ENDBRANCH   1  18
TORSDOF 6
ENDMDL
MODEL 8
REMARK VINA RESULT:      -5.6      4.789      8.619
REMARK  Name = Venlafaxine
REMARK  9 active torsions:
REMARK  status: ('A' for Active; 'I' for Inactive)
REMARK    1  A    between atoms: C_1  and  O_2
REMARK    2  A    between atoms: O_2  and  C_3
REMARK    3  A    between atoms: C_6  and  C_9
REMARK    4  A    between atoms: C_9  and  C_10
REMARK    5  A    between atoms: C_9  and  C_14
REMARK    6  A    between atoms: C_10  and  N_11
REMARK    7  A    between atoms: N_11  and  C_12
REMARK    8  A    between atoms: N_11  and  C_13
REMARK    9  A    between atoms: C_14  and  O_15
REMARK                            x       y       z     vdW  Elec       q    Type
REMARK                         _______ _______ _______ _____ _____    ______ ____
ROOT
ATOM      1  C   UNL     1      -7.752  -1.633 126.047  0.00  0.00    +0.000 C 
ENDROOT
BRANCH   1   5
ATOM      2  C   UNL     1      -6.298  -3.045 129.966  0.00  0.00    +0.000 A 
ATOM      3  C   UNL     1      -7.614  -3.236 129.562  0.00  0.00    +0.000 A 
ATOM      4  C   UNL     1      -8.024  -3.126 128.215  0.00  0.00    +0.000 A 
ATOM      5  C   UNL     1      -7.192  -2.436 127.334  0.00  0.00    +0.000 A 
ATOM      6  C   UNL     1      -5.833  -2.432 127.721  0.00  0.00    +0.000 A 
ATOM      7  C   UNL     1      -5.371  -2.705 128.997  0.00  0.00    +0.000 A 
BRANCH   2   9
ATOM      8  C   UNL     1      -5.501  -4.573 131.601  0.00  0.00    +0.000 C 
ATOM      9  O   UNL     1      -6.025  -3.293 131.271  0.00  0.00    +0.000 OA
ENDBRANCH   2   9
ENDBRANCH   1   5
BRANCH   1  10
ATOM     10  C   UNL     1      -7.788  -0.089 126.481  0.00  0.00    +0.000 C 
ATOM     11  C   UNL     1      -7.928   0.572 127.866  0.00  0.00    +0.000 C 
ATOM     12  C   UNL     1      -6.701   1.087 128.599  0.00  0.00    +0.000 C 
ATOM     13  C   UNL     1      -5.730   1.833 127.694  0.00  0.00    +0.000 C 
ATOM     14  C   UNL     1      -5.380   0.969 126.511  0.00  0.00    +0.000 C 
ATOM     15  C   UNL     1      -6.638   0.661 125.717  0.00  0.00    +0.000 C 
BRANCH  10  16
ATOM     16  O   UNL     1      -9.152   0.265 126.049  0.00  0.00    +0.000 OA
ATOM     17  H   UNL     1      -9.238   1.230 126.201  0.00  0.00    +0.000 HD
ENDBRANCH  10  16
ENDBRANCH   1  10
BRANCH   1  18
ATOM     18  C   UNL     1      -9.155  -2.134 125.417  0.00  0.00    +0.000 C 
BRANCH  18  19
ATOM     19  N   UNL     1      -9.342  -2.104 123.932  0.00  0.00    +0.000 NA
ATOM     20  C   UNL     1      -8.095  -1.769 123.255  0.00  0.00    +0.000 C 
ATOM     21  C   UNL     1      -9.677  -3.414 123.354  0.00  0.00    +0.000 C 
ENDBRANCH  18  19
ENDBRANCH   1  18
TORSDOF 6
ENDMDL
MODEL 9
REMARK VINA RESULT:      -5.6      3.981      5.906
REMARK  Name = Venlafaxine
REMARK  9 active torsions:
REMARK  status: ('A' for Active; 'I' for Inactive)
REMARK    1  A    between atoms: C_1  and  O_2
REMARK    2  A    between atoms: O_2  and  C_3
REMARK    3  A    between atoms: C_6  and  C_9
REMARK    4  A    between atoms: C_9  and  C_10
REMARK    5  A    between atoms: C_9  and  C_14
REMARK    6  A    between atoms: C_10  and  N_11
REMARK    7  A    between atoms: N_11  and  C_12
REMARK    8  A    between atoms: N_11  and  C_13
REMARK    9  A    between atoms: C_14  and  O_15
REMARK                            x       y       z     vdW  Elec       q    Type
REMARK                         _______ _______ _______ _____ _____    ______ ____
ROOT
ATOM      1  C   UNL     1      -6.956  -2.052 126.734  0.00  0.00    +0.000 C 
ENDROOT
BRANCH   1   5
ATOM      2  C   UNL     1      -8.099   2.104 125.792  0.00  0.00    +0.000 A 
ATOM      3  C   UNL     1      -8.725   1.384 126.802  0.00  0.00    +0.000 A 
ATOM      4  C   UNL     1      -8.171   0.213 127.364  0.00  0.00    +0.000 A 
ATOM      5  C   UNL     1      -7.183  -0.454 126.639  0.00  0.00    +0.000 A 
ATOM      6  C   UNL     1      -6.467   0.382 125.754  0.00  0.00    +0.000 A 
ATOM      7  C   UNL     1      -6.895   1.620 125.310  0.00  0.00    +0.000 A 
BRANCH   2   9
ATOM      8  C   UNL     1      -7.927   4.463 125.566  0.00  0.00    +0.000 C 
ATOM      9  O   UNL     1      -8.688   3.269 125.427  0.00  0.00    +0.000 OA
ENDBRANCH   2   9
ENDBRANCH   1   5
BRANCH   1  10
ATOM     10  C   UNL     1      -7.681  -2.671 125.444  0.00  0.00    +0.000 C 
ATOM     11  C   UNL     1      -8.881  -2.171 124.618  0.00  0.00    +0.000 C 
ATOM     12  C   UNL     1      -8.658  -1.432 123.309  0.00  0.00    +0.000 C 
ATOM     13  C   UNL     1      -7.577  -2.060 122.442  0.00  0.00    +0.000 C 
ATOM     14  C   UNL     1      -6.313  -2.211 123.245  0.00  0.00    +0.000 C 
ATOM     15  C   UNL     1      -6.570  -3.127 124.430  0.00  0.00    +0.000 C 
BRANCH  10  16
ATOM     16  O   UNL     1      -8.431  -3.771 126.077  0.00  0.00    +0.000 OA
ATOM     17  H   UNL     1      -9.373  -3.498 126.058  0.00  0.00    +0.000 HD
ENDBRANCH  10  16
ENDBRANCH   1  10
BRANCH   1  18
ATOM     18  C   UNL     1      -7.401  -2.781 128.107  0.00  0.00    +0.000 C 
BRANCH  18  19
ATOM     19  N   UNL     1      -6.686  -2.448 129.378  0.00  0.00    +0.000 NA
ATOM     20  C   UNL     1      -7.508  -2.766 130.540  0.00  0.00    +0.000 C 
ATOM     21  C   UNL     1      -5.482  -3.261 129.607  0.00  0.00    +0.000 C 
ENDBRANCH  18  19
ENDBRANCH   1  18
TORSDOF 6
ENDMDL
