MODEL 1
REMARK VINA RESULT:      -9.1      0.000      0.000
REMARK  Name = Vericiguat
REMARK  7 active torsions:
REMARK  status: ('A' for Active; 'I' for Inactive)
REMARK    1  A    between atoms: C_1  and  O_2
REMARK    2  A    between atoms: O_2  and  C_3
REMARK    3  A    between atoms: N_5  and  C_6
REMARK    4  A    between atoms: C_7  and  N_8
REMARK    5  A    between atoms: C_10  and  C_14
REMARK    6  A    between atoms: N_16  and  C_17
REMARK    7  A    between atoms: C_17  and  C_18
REMARK                            x       y       z     vdW  Elec       q    Type
REMARK                         _______ _______ _______ _____ _____    ______ ____
ROOT
ATOM      1  C   UNL     1     -10.374   7.053 128.642  0.00  0.00    +0.000 A 
ATOM      2  C   UNL     1      -9.598   6.013 129.172  0.00  0.00    +0.000 A 
ATOM      3  N   UNL     1      -8.896   5.152 128.417  0.00  0.00    +0.000 NA
ATOM      4  C   UNL     1      -8.989   5.307 127.087  0.00  0.00    +0.000 A 
ATOM      5  N   UNL     1      -9.691   6.283 126.466  0.00  0.00    +0.000 NA
ATOM      6  C   UNL     1     -10.390   7.127 127.249  0.00  0.00    +0.000 A 
ATOM      7  N   UNL     1     -11.161   8.060 126.575  0.00  0.00    +0.000 N 
ATOM      8  H   UNL     1     -11.014   8.103 125.572  0.00  0.00    +0.000 HD
ATOM      9  H   UNL     1     -11.561   8.852 127.045  0.00  0.00    +0.000 HD
ENDROOT
BRANCH   4  10
ATOM     10  C   UNL     1      -8.142   4.449 126.236  0.00  0.00    +0.000 A 
ATOM     11  N   UNL     1      -8.503   3.941 125.033  0.00  0.00    +0.000 NA
ATOM     12  N   UNL     1      -7.412   3.223 124.623  0.00  0.00    +0.000 N 
ATOM     13  C   UNL     1      -6.367   3.297 125.513  0.00  0.00    +0.000 A 
ATOM     14  C   UNL     1      -6.828   4.035 126.588  0.00  0.00    +0.000 A 
ATOM     15  C   UNL     1      -5.972   4.200 127.689  0.00  0.00    +0.000 A 
ATOM     16  C   UNL     1      -4.731   3.581 127.632  0.00  0.00    +0.000 A 
ATOM     17  F   UNL     1      -3.884   3.687 128.661  0.00  0.00    +0.000 F 
ATOM     18  C   UNL     1      -4.372   2.873 126.503  0.00  0.00    +0.000 A 
ATOM     19  N   UNL     1      -5.140   2.744 125.404  0.00  0.00    +0.000 NA
BRANCH  12  20
ATOM     20  C   UNL     1      -7.484   2.508 123.342  0.00  0.00    +0.000 C 
BRANCH  20  21
ATOM     21  C   UNL     1      -7.051   3.275 122.118  0.00  0.00    +0.000 A 
ATOM     22  C   UNL     1      -5.727   3.714 121.986  0.00  0.00    +0.000 A 
ATOM     23  C   UNL     1      -5.321   4.396 120.837  0.00  0.00    +0.000 A 
ATOM     24  C   UNL     1      -6.220   4.611 119.791  0.00  0.00    +0.000 A 
ATOM     25  C   UNL     1      -7.536   4.171 119.905  0.00  0.00    +0.000 A 
ATOM     26  C   UNL     1      -7.951   3.552 121.079  0.00  0.00    +0.000 A 
ATOM     27  F   UNL     1      -9.225   3.140 121.169  0.00  0.00    +0.000 F 
ENDBRANCH  20  21
ENDBRANCH  12  20
ENDBRANCH   4  10
BRANCH   1  30
ATOM     28  C   UNL     1     -12.458   7.951 129.620  0.00  0.00    +0.000 C 
ATOM     29  O   UNL     1     -13.202   7.119 129.096  0.00  0.00    +0.000 OA
ATOM     30  N   UNL     1     -11.090   7.988 129.460  0.00  0.00    +0.000 N 
ATOM     31  H   UNL     1     -10.563   8.592 130.075  0.00  0.00    +0.000 HD
BRANCH  28  33
ATOM     32  C   UNL     1     -13.216  10.166 129.742  0.00  0.00    +0.000 C 
ATOM     33  O   UNL     1     -12.922   8.936 130.438  0.00  0.00    +0.000 OA
ENDBRANCH  28  33
ENDBRANCH   1  30
BRANCH   2  34
ATOM     34  N   UNL     1      -9.691   5.666 130.526  0.00  0.00    +0.000 N 
ATOM     35  H   UNL     1      -9.947   6.456 131.110  0.00  0.00    +0.000 HD
ATOM     36  H   UNL     1      -8.814   5.245 130.814  0.00  0.00    +0.000 HD
ENDBRANCH   2  34
TORSDOF 6
ENDMDL
MODEL 2
REMARK VINA RESULT:      -8.7      4.297      5.419
REMARK  Name = Vericiguat
REMARK  7 active torsions:
REMARK  status: ('A' for Active; 'I' for Inactive)
REMARK    1  A    between atoms: C_1  and  O_2
REMARK    2  A    between atoms: O_2  and  C_3
REMARK    3  A    between atoms: N_5  and  C_6
REMARK    4  A    between atoms: C_7  and  N_8
REMARK    5  A    between atoms: C_10  and  C_14
REMARK    6  A    between atoms: N_16  and  C_17
REMARK    7  A    between atoms: C_17  and  C_18
REMARK                            x       y       z     vdW  Elec       q    Type
REMARK                         _______ _______ _______ _____ _____    ______ ____
ROOT
ATOM      1  C   UNL     1     -11.070   7.656 129.175  0.00  0.00    +0.000 A 
ATOM      2  C   UNL     1     -10.817   6.945 130.355  0.00  0.00    +0.000 A 
ATOM      3  N   UNL     1      -9.943   5.928 130.436  0.00  0.00    +0.000 NA
ATOM      4  C   UNL     1      -9.318   5.583 129.299  0.00  0.00    +0.000 A 
ATOM      5  N   UNL     1      -9.470   6.208 128.108  0.00  0.00    +0.000 NA
ATOM      6  C   UNL     1     -10.358   7.219 128.057  0.00  0.00    +0.000 A 
ATOM      7  N   UNL     1     -10.546   7.780 126.804  0.00  0.00    +0.000 N 
ATOM      8  H   UNL     1      -9.900   7.469 126.087  0.00  0.00    +0.000 HD
ATOM      9  H   UNL     1     -11.026   8.654 126.685  0.00  0.00    +0.000 HD
ENDROOT
BRANCH   4  10
ATOM     10  C   UNL     1      -8.272   4.545 129.380  0.00  0.00    +0.000 A 
ATOM     11  N   UNL     1      -7.046   4.625 128.810  0.00  0.00    +0.000 NA
ATOM     12  N   UNL     1      -6.432   3.451 129.153  0.00  0.00    +0.000 N 
ATOM     13  C   UNL     1      -7.220   2.657 129.952  0.00  0.00    +0.000 A 
ATOM     14  C   UNL     1      -8.432   3.312 130.069  0.00  0.00    +0.000 A 
ATOM     15  C   UNL     1      -9.459   2.673 130.782  0.00  0.00    +0.000 A 
ATOM     16  C   UNL     1      -9.193   1.410 131.292  0.00  0.00    +0.000 A 
ATOM     17  F   UNL     1     -10.141   0.746 131.961  0.00  0.00    +0.000 F 
ATOM     18  C   UNL     1      -7.942   0.854 131.120  0.00  0.00    +0.000 A 
ATOM     19  N   UNL     1      -6.913   1.460 130.497  0.00  0.00    +0.000 NA
BRANCH  12  20
ATOM     20  C   UNL     1      -5.070   3.201 128.660  0.00  0.00    +0.000 C 
BRANCH  20  21
ATOM     21  C   UNL     1      -4.055   4.289 128.908  0.00  0.00    +0.000 A 
ATOM     22  C   UNL     1      -3.606   4.559 130.207  0.00  0.00    +0.000 A 
ATOM     23  C   UNL     1      -2.642   5.545 130.430  0.00  0.00    +0.000 A 
ATOM     24  C   UNL     1      -2.087   6.242 129.355  0.00  0.00    +0.000 A 
ATOM     25  C   UNL     1      -2.517   5.977 128.059  0.00  0.00    +0.000 A 
ATOM     26  C   UNL     1      -3.525   5.041 127.850  0.00  0.00    +0.000 A 
ATOM     27  F   UNL     1      -3.928   4.805 126.592  0.00  0.00    +0.000 F 
ENDBRANCH  20  21
ENDBRANCH  12  20
ENDBRANCH   4  10
BRANCH   1  30
ATOM     28  C   UNL     1     -13.188   8.704 128.453  0.00  0.00    +0.000 C 
ATOM     29  O   UNL     1     -13.619   7.708 127.868  0.00  0.00    +0.000 OA
ATOM     30  N   UNL     1     -11.978   8.765 129.110  0.00  0.00    +0.000 N 
ATOM     31  H   UNL     1     -11.808   9.562 129.706  0.00  0.00    +0.000 HD
BRANCH  28  33
ATOM     32  C   UNL     1     -13.503  10.704 129.634  0.00  0.00    +0.000 C 
ATOM     33  O   UNL     1     -13.884   9.873 128.518  0.00  0.00    +0.000 OA
ENDBRANCH  28  33
ENDBRANCH   1  30
BRANCH   2  34
ATOM     34  N   UNL     1     -11.636   7.106 131.480  0.00  0.00    +0.000 N 
ATOM     35  H   UNL     1     -12.205   7.945 131.426  0.00  0.00    +0.000 HD
ATOM     36  H   UNL     1     -11.053   7.092 132.310  0.00  0.00    +0.000 HD
ENDBRANCH   2  34
TORSDOF 6
ENDMDL
MODEL 3
REMARK VINA RESULT:      -8.7      4.911      8.767
REMARK  Name = Vericiguat
REMARK  7 active torsions:
REMARK  status: ('A' for Active; 'I' for Inactive)
REMARK    1  A    between atoms: C_1  and  O_2
REMARK    2  A    between atoms: O_2  and  C_3
REMARK    3  A    between atoms: N_5  and  C_6
REMARK    4  A    between atoms: C_7  and  N_8
REMARK    5  A    between atoms: C_10  and  C_14
REMARK    6  A    between atoms: N_16  and  C_17
REMARK    7  A    between atoms: C_17  and  C_18
REMARK                            x       y       z     vdW  Elec       q    Type
REMARK                         _______ _______ _______ _____ _____    ______ ____
ROOT
ATOM      1  C   UNL     1      -7.014   1.389 125.354  0.00  0.00    +0.000 A 
ATOM      2  C   UNL     1      -6.232   1.451 126.515  0.00  0.00    +0.000 A 
ATOM      3  N   UNL     1      -6.583   2.146 127.610  0.00  0.00    +0.000 NA
ATOM      4  C   UNL     1      -7.737   2.829 127.542  0.00  0.00    +0.000 A 
ATOM      5  N   UNL     1      -8.579   2.828 126.483  0.00  0.00    +0.000 NA
ATOM      6  C   UNL     1      -8.197   2.128 125.398  0.00  0.00    +0.000 A 
ATOM      7  N   UNL     1      -9.045   2.218 124.306  0.00  0.00    +0.000 N 
ATOM      8  H   UNL     1      -9.929   2.683 124.478  0.00  0.00    +0.000 HD
ATOM      9  H   UNL     1      -8.966   1.591 123.525  0.00  0.00    +0.000 HD
ENDROOT
BRANCH   4  10
ATOM     10  C   UNL     1      -8.203   3.510 128.765  0.00  0.00    +0.000 A 
ATOM     11  N   UNL     1      -8.281   4.852 128.931  0.00  0.00    +0.000 NA
ATOM     12  N   UNL     1      -8.763   5.012 130.203  0.00  0.00    +0.000 N 
ATOM     13  C   UNL     1      -9.026   3.813 130.822  0.00  0.00    +0.000 A 
ATOM     14  C   UNL     1      -8.623   2.827 129.940  0.00  0.00    +0.000 A 
ATOM     15  C   UNL     1      -8.712   1.491 130.362  0.00  0.00    +0.000 A 
ATOM     16  C   UNL     1      -9.170   1.257 131.650  0.00  0.00    +0.000 A 
ATOM     17  F   UNL     1      -9.255   0.004 132.111  0.00  0.00    +0.000 F 
ATOM     18  C   UNL     1      -9.552   2.319 132.443  0.00  0.00    +0.000 A 
ATOM     19  N   UNL     1      -9.540   3.608 132.054  0.00  0.00    +0.000 NA
BRANCH  12  20
ATOM     20  C   UNL     1      -8.944   6.376 130.718  0.00  0.00    +0.000 C 
BRANCH  20  21
ATOM     21  C   UNL     1     -10.233   7.068 130.353  0.00  0.00    +0.000 A 
ATOM     22  C   UNL     1     -10.315   7.852 129.194  0.00  0.00    +0.000 A 
ATOM     23  C   UNL     1     -11.519   8.466 128.841  0.00  0.00    +0.000 A 
ATOM     24  C   UNL     1     -12.662   8.271 129.619  0.00  0.00    +0.000 A 
ATOM     25  C   UNL     1     -12.597   7.487 130.766  0.00  0.00    +0.000 A 
ATOM     26  C   UNL     1     -11.379   6.933 131.148  0.00  0.00    +0.000 A 
ATOM     27  F   UNL     1     -11.339   6.185 132.261  0.00  0.00    +0.000 F 
ENDBRANCH  20  21
ENDBRANCH  12  20
ENDBRANCH   4  10
BRANCH   1  30
ATOM     28  C   UNL     1      -6.981  -0.716 124.060  0.00  0.00    +0.000 C 
ATOM     29  O   UNL     1      -7.629  -1.369 124.881  0.00  0.00    +0.000 OA
ATOM     30  N   UNL     1      -6.646   0.613 124.205  0.00  0.00    +0.000 N 
ATOM     31  H   UNL     1      -6.277   1.094 123.397  0.00  0.00    +0.000 HD
BRANCH  28  33
ATOM     32  C   UNL     1      -5.751  -2.455 123.080  0.00  0.00    +0.000 C 
ATOM     33  O   UNL     1      -6.525  -1.251 122.893  0.00  0.00    +0.000 OA
ENDBRANCH  28  33
ENDBRANCH   1  30
BRANCH   2  34
ATOM     34  N   UNL     1      -4.915   0.973 126.521  0.00  0.00    +0.000 N 
ATOM     35  H   UNL     1      -4.244   1.696 126.758  0.00  0.00    +0.000 HD
ATOM     36  H   UNL     1      -4.720   0.551 125.619  0.00  0.00    +0.000 HD
ENDBRANCH   2  34
TORSDOF 6
ENDMDL
MODEL 4
REMARK VINA RESULT:      -8.6      3.976      8.363
REMARK  Name = Vericiguat
REMARK  7 active torsions:
REMARK  status: ('A' for Active; 'I' for Inactive)
REMARK    1  A    between atoms: C_1  and  O_2
REMARK    2  A    between atoms: O_2  and  C_3
REMARK    3  A    between atoms: N_5  and  C_6
REMARK    4  A    between atoms: C_7  and  N_8
REMARK    5  A    between atoms: C_10  and  C_14
REMARK    6  A    between atoms: N_16  and  C_17
REMARK    7  A    between atoms: C_17  and  C_18
REMARK                            x       y       z     vdW  Elec       q    Type
REMARK                         _______ _______ _______ _____ _____    ______ ____
ROOT
ATOM      1  C   UNL     1      -6.851   3.184 124.342  0.00  0.00    +0.000 A 
ATOM      2  C   UNL     1      -8.202   3.141 124.709  0.00  0.00    +0.000 A 
ATOM      3  N   UNL     1      -8.640   3.375 125.957  0.00  0.00    +0.000 NA
ATOM      4  C   UNL     1      -7.702   3.633 126.883  0.00  0.00    +0.000 A 
ATOM      5  N   UNL     1      -6.374   3.717 126.640  0.00  0.00    +0.000 NA
ATOM      6  C   UNL     1      -5.965   3.471 125.380  0.00  0.00    +0.000 A 
ATOM      7  N   UNL     1      -4.593   3.486 125.189  0.00  0.00    +0.000 N 
ATOM      8  H   UNL     1      -4.047   3.816 125.977  0.00  0.00    +0.000 HD
ATOM      9  H   UNL     1      -4.190   3.512 124.270  0.00  0.00    +0.000 HD
ENDROOT
BRANCH   4  10
ATOM     10  C   UNL     1      -8.159   4.004 128.236  0.00  0.00    +0.000 A 
ATOM     11  N   UNL     1      -8.394   5.268 128.663  0.00  0.00    +0.000 NA
ATOM     12  N   UNL     1      -8.797   5.121 129.963  0.00  0.00    +0.000 N 
ATOM     13  C   UNL     1      -8.860   3.803 130.350  0.00  0.00    +0.000 A 
ATOM     14  C   UNL     1      -8.401   3.064 129.275  0.00  0.00    +0.000 A 
ATOM     15  C   UNL     1      -8.289   1.673 129.434  0.00  0.00    +0.000 A 
ATOM     16  C   UNL     1      -8.618   1.143 130.672  0.00  0.00    +0.000 A 
ATOM     17  F   UNL     1      -8.509  -0.173 130.886  0.00  0.00    +0.000 F 
ATOM     18  C   UNL     1      -9.072   1.976 131.674  0.00  0.00    +0.000 A 
ATOM     19  N   UNL     1      -9.252   3.304 131.542  0.00  0.00    +0.000 NA
BRANCH  12  20
ATOM     20  C   UNL     1      -9.110   6.327 130.740  0.00  0.00    +0.000 C 
BRANCH  20  21
ATOM     21  C   UNL     1     -10.388   7.045 130.384  0.00  0.00    +0.000 A 
ATOM     22  C   UNL     1     -10.435   7.906 129.279  0.00  0.00    +0.000 A 
ATOM     23  C   UNL     1     -11.628   8.544 128.932  0.00  0.00    +0.000 A 
ATOM     24  C   UNL     1     -12.794   8.299 129.659  0.00  0.00    +0.000 A 
ATOM     25  C   UNL     1     -12.764   7.439 130.752  0.00  0.00    +0.000 A 
ATOM     26  C   UNL     1     -11.558   6.858 131.133  0.00  0.00    +0.000 A 
ATOM     27  F   UNL     1     -11.551   6.036 132.193  0.00  0.00    +0.000 F 
ENDBRANCH  20  21
ENDBRANCH  12  20
ENDBRANCH   4  10
BRANCH   1  30
ATOM     28  C   UNL     1      -5.688   3.910 122.286  0.00  0.00    +0.000 C 
ATOM     29  O   UNL     1      -5.357   5.015 122.721  0.00  0.00    +0.000 OA
ATOM     30  N   UNL     1      -6.400   2.968 122.997  0.00  0.00    +0.000 N 
ATOM     31  H   UNL     1      -6.456   2.035 122.614  0.00  0.00    +0.000 HD
BRANCH  28  33
ATOM     32  C   UNL     1      -6.196   4.075 120.003  0.00  0.00    +0.000 C 
ATOM     33  O   UNL     1      -5.367   3.492 121.030  0.00  0.00    +0.000 OA
ENDBRANCH  28  33
ENDBRANCH   1  30
BRANCH   2  34
ATOM     34  N   UNL     1      -9.168   2.621 123.836  0.00  0.00    +0.000 N 
ATOM     35  H   UNL     1      -8.782   1.925 123.206  0.00  0.00    +0.000 HD
ATOM     36  H   UNL     1      -9.602   3.391 123.338  0.00  0.00    +0.000 HD
ENDBRANCH   2  34
TORSDOF 6
ENDMDL
MODEL 5
REMARK VINA RESULT:      -8.6      5.026      6.913
REMARK  Name = Vericiguat
REMARK  7 active torsions:
REMARK  status: ('A' for Active; 'I' for Inactive)
REMARK    1  A    between atoms: C_1  and  O_2
REMARK    2  A    between atoms: O_2  and  C_3
REMARK    3  A    between atoms: N_5  and  C_6
REMARK    4  A    between atoms: C_7  and  N_8
REMARK    5  A    between atoms: C_10  and  C_14
REMARK    6  A    between atoms: N_16  and  C_17
REMARK    7  A    between atoms: C_17  and  C_18
REMARK                            x       y       z     vdW  Elec       q    Type
REMARK                         _______ _______ _______ _____ _____    ______ ____
ROOT
ATOM      1  C   UNL     1      -3.587   4.446 128.048  0.00  0.00    +0.000 A 
ATOM      2  C   UNL     1      -3.068   3.860 126.886  0.00  0.00    +0.000 A 
ATOM      3  N   UNL     1      -3.834   3.356 125.903  0.00  0.00    +0.000 NA
ATOM      4  C   UNL     1      -5.163   3.407 126.094  0.00  0.00    +0.000 A 
ATOM      5  N   UNL     1      -5.774   3.964 127.165  0.00  0.00    +0.000 NA
ATOM      6  C   UNL     1      -4.979   4.455 128.135  0.00  0.00    +0.000 A 
ATOM      7  N   UNL     1      -5.639   4.942 129.251  0.00  0.00    +0.000 N 
ATOM      8  H   UNL     1      -6.647   5.007 129.167  0.00  0.00    +0.000 HD
ATOM      9  H   UNL     1      -5.168   5.503 129.939  0.00  0.00    +0.000 HD
ENDROOT
BRANCH   4  10
ATOM     10  C   UNL     1      -6.030   2.963 124.985  0.00  0.00    +0.000 A 
ATOM     11  N   UNL     1      -7.010   2.033 125.084  0.00  0.00    +0.000 NA
ATOM     12  N   UNL     1      -7.538   1.956 123.823  0.00  0.00    +0.000 N 
ATOM     13  C   UNL     1      -6.945   2.837 122.949  0.00  0.00    +0.000 A 
ATOM     14  C   UNL     1      -5.933   3.460 123.656  0.00  0.00    +0.000 A 
ATOM     15  C   UNL     1      -5.111   4.365 122.968  0.00  0.00    +0.000 A 
ATOM     16  C   UNL     1      -5.353   4.547 121.614  0.00  0.00    +0.000 A 
ATOM     17  F   UNL     1      -4.586   5.381 120.903  0.00  0.00    +0.000 F 
ATOM     18  C   UNL     1      -6.397   3.876 121.010  0.00  0.00    +0.000 A 
ATOM     19  N   UNL     1      -7.245   3.048 121.649  0.00  0.00    +0.000 NA
BRANCH  12  20
ATOM     20  C   UNL     1      -8.625   1.000 123.575  0.00  0.00    +0.000 C 
BRANCH  20  21
ATOM     21  C   UNL     1      -8.372  -0.428 123.986  0.00  0.00    +0.000 A 
ATOM     22  C   UNL     1      -7.530  -1.249 123.224  0.00  0.00    +0.000 A 
ATOM     23  C   UNL     1      -7.272  -2.562 123.625  0.00  0.00    +0.000 A 
ATOM     24  C   UNL     1      -7.818  -3.056 124.812  0.00  0.00    +0.000 A 
ATOM     25  C   UNL     1      -8.647  -2.248 125.583  0.00  0.00    +0.000 A 
ATOM     26  C   UNL     1      -8.954  -0.964 125.144  0.00  0.00    +0.000 A 
ATOM     27  F   UNL     1      -9.760  -0.204 125.902  0.00  0.00    +0.000 F 
ENDBRANCH  20  21
ENDBRANCH  12  20
ENDBRANCH   4  10
BRANCH   1  30
ATOM     28  C   UNL     1      -2.224   6.282 128.986  0.00  0.00    +0.000 C 
ATOM     29  O   UNL     1      -2.405   7.056 128.043  0.00  0.00    +0.000 OA
ATOM     30  N   UNL     1      -2.758   5.014 129.072  0.00  0.00    +0.000 N 
ATOM     31  H   UNL     1      -2.699   4.540 129.962  0.00  0.00    +0.000 HD
BRANCH  28  33
ATOM     32  C   UNL     1      -2.208   6.596 131.309  0.00  0.00    +0.000 C 
ATOM     33  O   UNL     1      -1.469   6.612 130.070  0.00  0.00    +0.000 OA
ENDBRANCH  28  33
ENDBRANCH   1  30
BRANCH   2  34
ATOM     34  N   UNL     1      -1.705   3.556 126.780  0.00  0.00    +0.000 N 
ATOM     35  H   UNL     1      -1.301   3.283 127.671  0.00  0.00    +0.000 HD
ATOM     36  H   UNL     1      -1.226   4.352 126.372  0.00  0.00    +0.000 HD
ENDBRANCH   2  34
TORSDOF 6
ENDMDL
MODEL 6
REMARK VINA RESULT:      -8.5      4.715      5.698
REMARK  Name = Vericiguat
REMARK  7 active torsions:
REMARK  status: ('A' for Active; 'I' for Inactive)
REMARK    1  A    between atoms: C_1  and  O_2
REMARK    2  A    between atoms: O_2  and  C_3
REMARK    3  A    between atoms: N_5  and  C_6
REMARK    4  A    between atoms: C_7  and  N_8
REMARK    5  A    between atoms: C_10  and  C_14
REMARK    6  A    between atoms: N_16  and  C_17
REMARK    7  A    between atoms: C_17  and  C_18
REMARK                            x       y       z     vdW  Elec       q    Type
REMARK                         _______ _______ _______ _____ _____    ______ ____
ROOT
ATOM      1  C   UNL     1      -3.909   4.261 128.528  0.00  0.00    +0.000 A 
ATOM      2  C   UNL     1      -3.329   3.973 127.286  0.00  0.00    +0.000 A 
ATOM      3  N   UNL     1      -3.993   3.387 126.275  0.00  0.00    +0.000 NA
ATOM      4  C   UNL     1      -5.270   3.048 126.515  0.00  0.00    +0.000 A 
ATOM      5  N   UNL     1      -5.937   3.292 127.667  0.00  0.00    +0.000 NA
ATOM      6  C   UNL     1      -5.242   3.874 128.663  0.00  0.00    +0.000 A 
ATOM      7  N   UNL     1      -5.934   4.034 129.853  0.00  0.00    +0.000 N 
ATOM      8  H   UNL     1      -6.926   3.827 129.811  0.00  0.00    +0.000 HD
ATOM      9  H   UNL     1      -5.588   4.624 130.588  0.00  0.00    +0.000 HD
ENDROOT
BRANCH   4  10
ATOM     10  C   UNL     1      -6.057   2.506 125.390  0.00  0.00    +0.000 A 
ATOM     11  N   UNL     1      -6.738   3.247 124.483  0.00  0.00    +0.000 NA
ATOM     12  N   UNL     1      -7.301   2.326 123.641  0.00  0.00    +0.000 N 
ATOM     13  C   UNL     1      -6.962   1.035 123.969  0.00  0.00    +0.000 A 
ATOM     14  C   UNL     1      -6.206   1.117 125.125  0.00  0.00    +0.000 A 
ATOM     15  C   UNL     1      -5.789  -0.083 125.724  0.00  0.00    +0.000 A 
ATOM     16  C   UNL     1      -6.193  -1.269 125.129  0.00  0.00    +0.000 A 
ATOM     17  F   UNL     1      -5.842  -2.441 125.670  0.00  0.00    +0.000 F 
ATOM     18  C   UNL     1      -6.943  -1.232 123.971  0.00  0.00    +0.000 A 
ATOM     19  N   UNL     1      -7.310  -0.104 123.333  0.00  0.00    +0.000 NA
BRANCH  12  20
ATOM     20  C   UNL     1      -8.145   2.807 122.540  0.00  0.00    +0.000 C 
BRANCH  20  21
ATOM     21  C   UNL     1      -7.442   3.537 121.423  0.00  0.00    +0.000 A 
ATOM     22  C   UNL     1      -6.072   3.817 121.509  0.00  0.00    +0.000 A 
ATOM     23  C   UNL     1      -5.417   4.465 120.459  0.00  0.00    +0.000 A 
ATOM     24  C   UNL     1      -6.113   4.803 119.297  0.00  0.00    +0.000 A 
ATOM     25  C   UNL     1      -7.472   4.521 119.194  0.00  0.00    +0.000 A 
ATOM     26  C   UNL     1      -8.133   3.937 120.270  0.00  0.00    +0.000 A 
ATOM     27  F   UNL     1      -9.444   3.678 120.150  0.00  0.00    +0.000 F 
ENDBRANCH  20  21
ENDBRANCH  12  20
ENDBRANCH   4  10
BRANCH   1  30
ATOM     28  C   UNL     1      -3.187   6.290 129.741  0.00  0.00    +0.000 C 
ATOM     29  O   UNL     1      -3.782   7.083 129.007  0.00  0.00    +0.000 OA
ATOM     30  N   UNL     1      -3.199   4.921 129.587  0.00  0.00    +0.000 N 
ATOM     31  H   UNL     1      -2.834   4.361 130.344  0.00  0.00    +0.000 HD
BRANCH  28  33
ATOM     32  C   UNL     1      -3.066   7.760 131.563  0.00  0.00    +0.000 C 
ATOM     33  O   UNL     1      -2.448   6.695 130.811  0.00  0.00    +0.000 OA
ENDBRANCH  28  33
ENDBRANCH   1  30
BRANCH   2  34
ATOM     34  N   UNL     1      -1.944   4.072 127.098  0.00  0.00    +0.000 N 
ATOM     35  H   UNL     1      -1.613   5.029 127.175  0.00  0.00    +0.000 HD
ATOM     36  H   UNL     1      -1.708   3.656 126.204  0.00  0.00    +0.000 HD
ENDBRANCH   2  34
TORSDOF 6
ENDMDL
MODEL 7
REMARK VINA RESULT:      -8.5      5.202      8.508
REMARK  Name = Vericiguat
REMARK  7 active torsions:
REMARK  status: ('A' for Active; 'I' for Inactive)
REMARK    1  A    between atoms: C_1  and  O_2
REMARK    2  A    between atoms: O_2  and  C_3
REMARK    3  A    between atoms: N_5  and  C_6
REMARK    4  A    between atoms: C_7  and  N_8
REMARK    5  A    between atoms: C_10  and  C_14
REMARK    6  A    between atoms: N_16  and  C_17
REMARK    7  A    between atoms: C_17  and  C_18
REMARK                            x       y       z     vdW  Elec       q    Type
REMARK                         _______ _______ _______ _____ _____    ______ ____
ROOT
ATOM      1  C   UNL     1      -7.875   0.333 127.061  0.00  0.00    +0.000 A 
ATOM      2  C   UNL     1      -7.881   0.021 128.427  0.00  0.00    +0.000 A 
ATOM      3  N   UNL     1      -8.249   0.889 129.385  0.00  0.00    +0.000 NA
ATOM      4  C   UNL     1      -8.595   2.121 128.977  0.00  0.00    +0.000 A 
ATOM      5  N   UNL     1      -8.643   2.527 127.687  0.00  0.00    +0.000 NA
ATOM      6  C   UNL     1      -8.262   1.637 126.751  0.00  0.00    +0.000 A 
ATOM      7  N   UNL     1      -8.247   2.115 125.451  0.00  0.00    +0.000 N 
ATOM      8  H   UNL     1      -8.654   3.034 125.320  0.00  0.00    +0.000 HD
ATOM      9  H   UNL     1      -8.173   1.496 124.663  0.00  0.00    +0.000 HD
ENDROOT
BRANCH   4  10
ATOM     10  C   UNL     1      -9.109   3.059 129.993  0.00  0.00    +0.000 A 
ATOM     11  N   UNL     1     -10.018   4.037 129.765  0.00  0.00    +0.000 NA
ATOM     12  N   UNL     1     -10.188   4.638 130.983  0.00  0.00    +0.000 N 
ATOM     13  C   UNL     1      -9.444   4.041 131.974  0.00  0.00    +0.000 A 
ATOM     14  C   UNL     1      -8.697   3.056 131.354  0.00  0.00    +0.000 A 
ATOM     15  C   UNL     1      -7.782   2.335 132.137  0.00  0.00    +0.000 A 
ATOM     16  C   UNL     1      -7.670   2.685 133.474  0.00  0.00    +0.000 A 
ATOM     17  F   UNL     1      -6.798   2.046 134.262  0.00  0.00    +0.000 F 
ATOM     18  C   UNL     1      -8.472   3.683 133.989  0.00  0.00    +0.000 A 
ATOM     19  N   UNL     1      -9.404   4.354 133.287  0.00  0.00    +0.000 NA
BRANCH  12  20
ATOM     20  C   UNL     1     -11.107   5.779 131.080  0.00  0.00    +0.000 C 
BRANCH  20  21
ATOM     21  C   UNL     1     -11.281   6.611 129.834  0.00  0.00    +0.000 A 
ATOM     22  C   UNL     1     -12.443   6.498 129.060  0.00  0.00    +0.000 A 
ATOM     23  C   UNL     1     -12.615   7.293 127.925  0.00  0.00    +0.000 A 
ATOM     24  C   UNL     1     -11.649   8.237 127.573  0.00  0.00    +0.000 A 
ATOM     25  C   UNL     1     -10.494   8.367 128.340  0.00  0.00    +0.000 A 
ATOM     26  C   UNL     1     -10.298   7.526 129.430  0.00  0.00    +0.000 A 
ATOM     27  F   UNL     1      -9.176   7.666 130.152  0.00  0.00    +0.000 F 
ENDBRANCH  20  21
ENDBRANCH  12  20
ENDBRANCH   4  10
BRANCH   1  30
ATOM     28  C   UNL     1      -8.437  -1.425 125.418  0.00  0.00    +0.000 C 
ATOM     29  O   UNL     1      -9.648  -1.418 125.648  0.00  0.00    +0.000 OA
ATOM     30  N   UNL     1      -7.516  -0.614 126.046  0.00  0.00    +0.000 N 
ATOM     31  H   UNL     1      -6.586  -0.571 125.655  0.00  0.00    +0.000 HD
BRANCH  28  33
ATOM     32  C   UNL     1      -8.023  -3.649 124.801  0.00  0.00    +0.000 C 
ATOM     33  O   UNL     1      -7.872  -2.247 124.491  0.00  0.00    +0.000 OA
ENDBRANCH  28  33
ENDBRANCH   1  30
BRANCH   2  34
ATOM     34  N   UNL     1      -7.280  -1.153 128.899  0.00  0.00    +0.000 N 
ATOM     35  H   UNL     1      -7.950  -1.906 129.022  0.00  0.00    +0.000 HD
ATOM     36  H   UNL     1      -6.782  -0.940 129.757  0.00  0.00    +0.000 HD
ENDBRANCH   2  34
TORSDOF 6
ENDMDL
MODEL 8
REMARK VINA RESULT:      -8.5      6.126      8.400
REMARK  Name = Vericiguat
REMARK  7 active torsions:
REMARK  status: ('A' for Active; 'I' for Inactive)
REMARK    1  A    between atoms: C_1  and  O_2
REMARK    2  A    between atoms: O_2  and  C_3
REMARK    3  A    between atoms: N_5  and  C_6
REMARK    4  A    between atoms: C_7  and  N_8
REMARK    5  A    between atoms: C_10  and  C_14
REMARK    6  A    between atoms: N_16  and  C_17
REMARK    7  A    between atoms: C_17  and  C_18
REMARK                            x       y       z     vdW  Elec       q    Type
REMARK                         _______ _______ _______ _____ _____    ______ ____
ROOT
ATOM      1  C   UNL     1      -3.479   7.182 131.713  0.00  0.00    +0.000 A 
ATOM      2  C   UNL     1      -4.016   7.331 130.428  0.00  0.00    +0.000 A 
ATOM      3  N   UNL     1      -5.285   7.020 130.112  0.00  0.00    +0.000 NA
ATOM      4  C   UNL     1      -6.041   6.515 131.100  0.00  0.00    +0.000 A 
ATOM      5  N   UNL     1      -5.635   6.343 132.380  0.00  0.00    +0.000 NA
ATOM      6  C   UNL     1      -4.356   6.658 132.663  0.00  0.00    +0.000 A 
ATOM      7  N   UNL     1      -3.955   6.393 133.962  0.00  0.00    +0.000 N 
ATOM      8  H   UNL     1      -4.695   6.122 134.600  0.00  0.00    +0.000 HD
ATOM      9  H   UNL     1      -3.099   6.763 134.335  0.00  0.00    +0.000 HD
ENDROOT
BRANCH   4  10
ATOM     10  C   UNL     1      -7.467   6.269 130.813  0.00  0.00    +0.000 A 
ATOM     11  N   UNL     1      -8.412   7.228 130.671  0.00  0.00    +0.000 NA
ATOM     12  N   UNL     1      -9.566   6.537 130.413  0.00  0.00    +0.000 N 
ATOM     13  C   UNL     1      -9.364   5.179 130.351  0.00  0.00    +0.000 A 
ATOM     14  C   UNL     1      -8.032   4.973 130.660  0.00  0.00    +0.000 A 
ATOM     15  C   UNL     1      -7.573   3.648 130.742  0.00  0.00    +0.000 A 
ATOM     16  C   UNL     1      -8.501   2.637 130.539  0.00  0.00    +0.000 A 
ATOM     17  F   UNL     1      -8.124   1.357 130.627  0.00  0.00    +0.000 F 
ATOM     18  C   UNL     1      -9.807   2.959 130.230  0.00  0.00    +0.000 A 
ATOM     19  N   UNL     1     -10.270   4.214 130.081  0.00  0.00    +0.000 NA
BRANCH  12  20
ATOM     20  C   UNL     1     -10.812   7.295 130.232  0.00  0.00    +0.000 C 
BRANCH  20  21
ATOM     21  C   UNL     1     -11.396   7.305 128.842  0.00  0.00    +0.000 A 
ATOM     22  C   UNL     1     -10.572   7.504 127.726  0.00  0.00    +0.000 A 
ATOM     23  C   UNL     1     -11.111   7.482 126.437  0.00  0.00    +0.000 A 
ATOM     24  C   UNL     1     -12.469   7.220 126.247  0.00  0.00    +0.000 A 
ATOM     25  C   UNL     1     -13.297   7.010 127.346  0.00  0.00    +0.000 A 
ATOM     26  C   UNL     1     -12.767   7.100 128.629  0.00  0.00    +0.000 A 
ATOM     27  F   UNL     1     -13.584   6.899 129.674  0.00  0.00    +0.000 F 
ENDBRANCH  20  21
ENDBRANCH  12  20
ENDBRANCH   4  10
BRANCH   1  30
ATOM     28  C   UNL     1      -1.133   6.629 132.257  0.00  0.00    +0.000 C 
ATOM     29  O   UNL     1      -1.278   5.407 132.175  0.00  0.00    +0.000 OA
ATOM     30  N   UNL     1      -2.134   7.552 132.045  0.00  0.00    +0.000 N 
ATOM     31  H   UNL     1      -1.865   8.522 131.957  0.00  0.00    +0.000 HD
BRANCH  28  33
ATOM     32  C   UNL     1       0.181   7.574 133.952  0.00  0.00    +0.000 C 
ATOM     33  O   UNL     1       0.063   7.206 132.562  0.00  0.00    +0.000 OA
ENDBRANCH  28  33
ENDBRANCH   1  30
BRANCH   2  34
ATOM     34  N   UNL     1      -3.188   7.601 129.330  0.00  0.00    +0.000 N 
ATOM     35  H   UNL     1      -2.242   7.261 129.468  0.00  0.00    +0.000 HD
ATOM     36  H   UNL     1      -3.213   8.598 129.143  0.00  0.00    +0.000 HD
ENDBRANCH   2  34
TORSDOF 6
ENDMDL
MODEL 9
REMARK VINA RESULT:      -8.4      5.965      9.042
REMARK  Name = Vericiguat
REMARK  7 active torsions:
REMARK  status: ('A' for Active; 'I' for Inactive)
REMARK    1  A    between atoms: C_1  and  O_2
REMARK    2  A    between atoms: O_2  and  C_3
REMARK    3  A    between atoms: N_5  and  C_6
REMARK    4  A    between atoms: C_7  and  N_8
REMARK    5  A    between atoms: C_10  and  C_14
REMARK    6  A    between atoms: N_16  and  C_17
REMARK    7  A    between atoms: C_17  and  C_18
REMARK                            x       y       z     vdW  Elec       q    Type
REMARK                         _______ _______ _______ _____ _____    ______ ____
ROOT
ATOM      1  C   UNL     1      -6.373   3.375 123.628  0.00  0.00    +0.000 A 
ATOM      2  C   UNL     1      -5.667   2.991 124.776  0.00  0.00    +0.000 A 
ATOM      3  N   UNL     1      -6.035   1.969 125.567  0.00  0.00    +0.000 NA
ATOM      4  C   UNL     1      -7.161   1.322 125.224  0.00  0.00    +0.000 A 
ATOM      5  N   UNL     1      -7.911   1.593 124.131  0.00  0.00    +0.000 NA
ATOM      6  C   UNL     1      -7.520   2.627 123.362  0.00  0.00    +0.000 A 
ATOM      7  N   UNL     1      -8.358   2.925 122.300  0.00  0.00    +0.000 N 
ATOM      8  H   UNL     1      -9.098   2.254 122.127  0.00  0.00    +0.000 HD
ATOM      9  H   UNL     1      -8.069   3.537 121.557  0.00  0.00    +0.000 HD
ENDROOT
BRANCH   4  10
ATOM     10  C   UNL     1      -7.529   0.127 126.008  0.00  0.00    +0.000 A 
ATOM     11  N   UNL     1      -7.376  -0.008 127.347  0.00  0.00    +0.000 NA
ATOM     12  N   UNL     1      -7.852  -1.261 127.622  0.00  0.00    +0.000 N 
ATOM     13  C   UNL     1      -8.334  -1.900 126.504  0.00  0.00    +0.000 A 
ATOM     14  C   UNL     1      -8.088  -1.051 125.440  0.00  0.00    +0.000 A 
ATOM     15  C   UNL     1      -8.419  -1.499 124.151  0.00  0.00    +0.000 A 
ATOM     16  C   UNL     1      -8.941  -2.779 124.034  0.00  0.00    +0.000 A 
ATOM     17  F   UNL     1      -9.253  -3.266 122.828  0.00  0.00    +0.000 F 
ATOM     18  C   UNL     1      -9.150  -3.538 125.167  0.00  0.00    +0.000 A 
ATOM     19  N   UNL     1      -8.904  -3.121 126.424  0.00  0.00    +0.000 NA
BRANCH  12  20
ATOM     20  C   UNL     1      -7.803  -1.741 129.009  0.00  0.00    +0.000 C 
BRANCH  20  21
ATOM     21  C   UNL     1      -6.594  -2.554 129.398  0.00  0.00    +0.000 A 
ATOM     22  C   UNL     1      -5.433  -2.520 128.615  0.00  0.00    +0.000 A 
ATOM     23  C   UNL     1      -4.303  -3.248 128.995  0.00  0.00    +0.000 A 
ATOM     24  C   UNL     1      -4.307  -3.984 130.181  0.00  0.00    +0.000 A 
ATOM     25  C   UNL     1      -5.450  -4.018 130.974  0.00  0.00    +0.000 A 
ATOM     26  C   UNL     1      -6.593  -3.345 130.556  0.00  0.00    +0.000 A 
ATOM     27  F   UNL     1      -7.685  -3.395 131.334  0.00  0.00    +0.000 F 
ENDBRANCH  20  21
ENDBRANCH  12  20
ENDBRANCH   4  10
BRANCH   1  30
ATOM     28  C   UNL     1      -5.437   4.236 121.509  0.00  0.00    +0.000 C 
ATOM     29  O   UNL     1      -5.301   3.129 120.983  0.00  0.00    +0.000 OA
ATOM     30  N   UNL     1      -5.948   4.445 122.772  0.00  0.00    +0.000 N 
ATOM     31  H   UNL     1      -6.186   5.392 123.030  0.00  0.00    +0.000 HD
BRANCH  28  33
ATOM     32  C   UNL     1      -5.429   5.399 119.474  0.00  0.00    +0.000 C 
ATOM     33  O   UNL     1      -5.097   5.394 120.878  0.00  0.00    +0.000 OA
ENDBRANCH  28  33
ENDBRANCH   1  30
BRANCH   2  34
ATOM     34  N   UNL     1      -4.652   3.802 125.301  0.00  0.00    +0.000 N 
ATOM     35  H   UNL     1      -3.727   3.423 125.125  0.00  0.00    +0.000 HD
ATOM     36  H   UNL     1      -4.827   3.941 126.290  0.00  0.00    +0.000 HD
ENDBRANCH   2  34
TORSDOF 6
ENDMDL
