MODEL 1
REMARK VINA RESULT:      -7.1      0.000      0.000
REMARK  Name = Vernakalant
REMARK  10 active torsions:
REMARK  status: ('A' for Active; 'I' for Inactive)
REMARK    1  A    between atoms: C_1  and  O_2
REMARK    2  A    between atoms: O_2  and  C_3
REMARK    3  A    between atoms: C_4  and  O_5
REMARK    4  A    between atoms: O_5  and  C_6
REMARK    5  A    between atoms: C_8  and  C_9
REMARK    6  A    between atoms: C_9  and  C_10
REMARK    7  A    between atoms: C_10  and  O_11
REMARK    8  A    between atoms: O_11  and  C_12
REMARK    9  A    between atoms: C_17  and  N_18
REMARK   10  A    between atoms: C_21  and  O_22
REMARK                            x       y       z     vdW  Elec       q    Type
REMARK                         _______ _______ _______ _____ _____    ______ ____
ROOT
ATOM      1  O   UNL     1      -6.476   5.972 129.875  0.00  0.00    +0.000 OA
ENDROOT
BRANCH   1   2
ATOM      2  C   UNL     1      -5.141   5.742 130.392  0.00  0.00    +0.000 C 
ATOM      3  C   UNL     1      -4.823   6.868 131.377  0.00  0.00    +0.000 C 
ATOM      4  C   UNL     1      -3.406   6.747 131.928  0.00  0.00    +0.000 C 
ATOM      5  C   UNL     1      -2.378   6.787 130.810  0.00  0.00    +0.000 C 
ATOM      6  C   UNL     1      -2.625   5.664 129.829  0.00  0.00    +0.000 C 
ATOM      7  C   UNL     1      -4.060   5.660 129.256  0.00  0.00    +0.000 C 
BRANCH   7   8
ATOM      8  N   UNL     1      -4.250   4.475 128.395  0.00  0.00    +0.000 NA
ATOM      9  C   UNL     1      -3.072   3.601 128.304  0.00  0.00    +0.000 C 
ATOM     10  C   UNL     1      -2.630   3.665 126.864  0.00  0.00    +0.000 C 
ATOM     11  C   UNL     1      -3.941   3.855 126.128  0.00  0.00    +0.000 C 
ATOM     12  C   UNL     1      -4.750   4.773 127.043  0.00  0.00    +0.000 C 
BRANCH  11  13
ATOM     13  O   UNL     1      -4.590   2.590 125.994  0.00  0.00    +0.000 OA
ATOM     14  H   UNL     1      -4.239   2.181 125.180  0.00  0.00    +0.000 HD
ENDBRANCH  11  13
ENDBRANCH   7   8
ENDBRANCH   1   2
BRANCH   1  15
ATOM     15  C   UNL     1      -7.448   5.354 130.713  0.00  0.00    +0.000 C 
BRANCH  15  16
ATOM     16  C   UNL     1      -8.213   6.297 131.631  0.00  0.00    +0.000 C 
BRANCH  16  20
ATOM     17  C   UNL     1     -12.048   7.544 129.990  0.00  0.00    +0.000 A 
ATOM     18  C   UNL     1     -10.847   7.861 129.323  0.00  0.00    +0.000 A 
ATOM     19  C   UNL     1      -9.624   7.381 129.833  0.00  0.00    +0.000 A 
ATOM     20  C   UNL     1      -9.562   6.690 131.044  0.00  0.00    +0.000 A 
ATOM     21  C   UNL     1     -10.775   6.417 131.701  0.00  0.00    +0.000 A 
ATOM     22  C   UNL     1     -11.995   6.832 131.177  0.00  0.00    +0.000 A 
BRANCH  17  24
ATOM     23  C   UNL     1     -13.716   6.856 128.449  0.00  0.00    +0.000 C 
ATOM     24  O   UNL     1     -13.247   7.816 129.387  0.00  0.00    +0.000 OA
ENDBRANCH  17  24
BRANCH  18  25
ATOM     25  O   UNL     1     -10.707   8.637 128.200  0.00  0.00    +0.000 OA
ATOM     26  C   UNL     1     -10.698   7.959 126.947  0.00  0.00    +0.000 C 
ENDBRANCH  18  25
ENDBRANCH  16  20
ENDBRANCH  15  16
ENDBRANCH   1  15
TORSDOF 8
ENDMDL
MODEL 2
REMARK VINA RESULT:      -7.1      4.243      7.589
REMARK  Name = Vernakalant
REMARK  10 active torsions:
REMARK  status: ('A' for Active; 'I' for Inactive)
REMARK    1  A    between atoms: C_1  and  O_2
REMARK    2  A    between atoms: O_2  and  C_3
REMARK    3  A    between atoms: C_4  and  O_5
REMARK    4  A    between atoms: O_5  and  C_6
REMARK    5  A    between atoms: C_8  and  C_9
REMARK    6  A    between atoms: C_9  and  C_10
REMARK    7  A    between atoms: C_10  and  O_11
REMARK    8  A    between atoms: O_11  and  C_12
REMARK    9  A    between atoms: C_17  and  N_18
REMARK   10  A    between atoms: C_21  and  O_22
REMARK                            x       y       z     vdW  Elec       q    Type
REMARK                         _______ _______ _______ _____ _____    ______ ____
ROOT
ATOM      1  O   UNL     1      -9.036   4.125 128.856  0.00  0.00    +0.000 OA
ENDROOT
BRANCH   1   2
ATOM      2  C   UNL     1      -9.129   5.209 129.814  0.00  0.00    +0.000 C 
ATOM      3  C   UNL     1      -8.312   4.816 131.045  0.00  0.00    +0.000 C 
ATOM      4  C   UNL     1      -8.403   5.872 132.140  0.00  0.00    +0.000 C 
ATOM      5  C   UNL     1      -9.843   6.089 132.574  0.00  0.00    +0.000 C 
ATOM      6  C   UNL     1     -10.686   6.523 131.396  0.00  0.00    +0.000 C 
ATOM      7  C   UNL     1     -10.613   5.545 130.203  0.00  0.00    +0.000 C 
BRANCH   7   8
ATOM      8  N   UNL     1     -11.373   6.094 129.061  0.00  0.00    +0.000 NA
ATOM      9  C   UNL     1     -10.638   7.093 128.272  0.00  0.00    +0.000 C 
ATOM     10  C   UNL     1     -11.393   8.386 128.451  0.00  0.00    +0.000 C 
ATOM     11  C   UNL     1     -12.824   7.911 128.600  0.00  0.00    +0.000 C 
ATOM     12  C   UNL     1     -12.705   6.620 129.407  0.00  0.00    +0.000 C 
BRANCH  11  13
ATOM     13  O   UNL     1     -13.363   7.640 127.305  0.00  0.00    +0.000 OA
ATOM     14  H   UNL     1     -12.841   8.166 126.670  0.00  0.00    +0.000 HD
ENDBRANCH  11  13
ENDBRANCH   7   8
ENDBRANCH   1   2
BRANCH   1  15
ATOM     15  C   UNL     1      -7.809   4.201 128.136  0.00  0.00    +0.000 C 
BRANCH  15  16
ATOM     16  C   UNL     1      -7.247   2.868 127.661  0.00  0.00    +0.000 C 
BRANCH  16  20
ATOM     17  C   UNL     1      -9.716   1.257 124.457  0.00  0.00    +0.000 A 
ATOM     18  C   UNL     1      -8.930   2.409 124.246  0.00  0.00    +0.000 A 
ATOM     19  C   UNL     1      -8.081   2.867 125.273  0.00  0.00    +0.000 A 
ATOM     20  C   UNL     1      -8.080   2.271 126.535  0.00  0.00    +0.000 A 
ATOM     21  C   UNL     1      -8.898   1.143 126.723  0.00  0.00    +0.000 A 
ATOM     22  C   UNL     1      -9.695   0.644 125.698  0.00  0.00    +0.000 A 
BRANCH  17  24
ATOM     23  C   UNL     1      -9.665  -0.331 122.695  0.00  0.00    +0.000 C 
ATOM     24  O   UNL     1     -10.370   0.683 123.400  0.00  0.00    +0.000 OA
ENDBRANCH  17  24
BRANCH  18  25
ATOM     25  O   UNL     1      -8.905   3.195 123.121  0.00  0.00    +0.000 OA
ATOM     26  C   UNL     1      -7.764   3.072 122.277  0.00  0.00    +0.000 C 
ENDBRANCH  18  25
ENDBRANCH  16  20
ENDBRANCH  15  16
ENDBRANCH   1  15
TORSDOF 8
ENDMDL
MODEL 3
REMARK VINA RESULT:      -7.1      7.242     10.813
REMARK  Name = Vernakalant
REMARK  10 active torsions:
REMARK  status: ('A' for Active; 'I' for Inactive)
REMARK    1  A    between atoms: C_1  and  O_2
REMARK    2  A    between atoms: O_2  and  C_3
REMARK    3  A    between atoms: C_4  and  O_5
REMARK    4  A    between atoms: O_5  and  C_6
REMARK    5  A    between atoms: C_8  and  C_9
REMARK    6  A    between atoms: C_9  and  C_10
REMARK    7  A    between atoms: C_10  and  O_11
REMARK    8  A    between atoms: O_11  and  C_12
REMARK    9  A    between atoms: C_17  and  N_18
REMARK   10  A    between atoms: C_21  and  O_22
REMARK                            x       y       z     vdW  Elec       q    Type
REMARK                         _______ _______ _______ _____ _____    ______ ____
ROOT
ATOM      1  O   UNL     1      -8.300  -1.313 126.913  0.00  0.00    +0.000 OA
ENDROOT
BRANCH   1   2
ATOM      2  C   UNL     1      -8.982  -1.600 125.667  0.00  0.00    +0.000 C 
ATOM      3  C   UNL     1      -8.691  -3.056 125.302  0.00  0.00    +0.000 C 
ATOM      4  C   UNL     1      -9.317  -3.435 123.964  0.00  0.00    +0.000 C 
ATOM      5  C   UNL     1      -8.797  -2.549 122.845  0.00  0.00    +0.000 C 
ATOM      6  C   UNL     1      -9.099  -1.098 123.140  0.00  0.00    +0.000 C 
ATOM      7  C   UNL     1      -8.557  -0.629 124.509  0.00  0.00    +0.000 C 
BRANCH   7   8
ATOM      8  N   UNL     1      -8.988   0.761 124.766  0.00  0.00    +0.000 NA
ATOM      9  C   UNL     1      -9.760   1.365 123.671  0.00  0.00    +0.000 C 
ATOM     10  C   UNL     1      -8.912   2.500 123.156  0.00  0.00    +0.000 C 
ATOM     11  C   UNL     1      -8.192   2.965 124.406  0.00  0.00    +0.000 C 
ATOM     12  C   UNL     1      -7.905   1.673 125.169  0.00  0.00    +0.000 C 
BRANCH  11  13
ATOM     13  O   UNL     1      -9.065   3.806 125.162  0.00  0.00    +0.000 OA
ATOM     14  H   UNL     1      -8.520   4.543 125.497  0.00  0.00    +0.000 HD
ENDBRANCH  11  13
ENDBRANCH   7   8
ENDBRANCH   1   2
BRANCH   1  15
ATOM     15  C   UNL     1      -7.661  -2.484 127.413  0.00  0.00    +0.000 C 
BRANCH  15  16
ATOM     16  C   UNL     1      -7.974  -2.831 128.862  0.00  0.00    +0.000 C 
BRANCH  16  20
ATOM     17  C   UNL     1      -4.284  -3.487 131.078  0.00  0.00    +0.000 A 
ATOM     18  C   UNL     1      -4.560  -2.230 130.503  0.00  0.00    +0.000 A 
ATOM     19  C   UNL     1      -5.794  -2.020 129.857  0.00  0.00    +0.000 A 
ATOM     20  C   UNL     1      -6.708  -3.060 129.676  0.00  0.00    +0.000 A 
ATOM     21  C   UNL     1      -6.388  -4.310 130.235  0.00  0.00    +0.000 A 
ATOM     22  C   UNL     1      -5.200  -4.515 130.928  0.00  0.00    +0.000 A 
BRANCH  17  24
ATOM     23  C   UNL     1      -3.361  -4.461 133.035  0.00  0.00    +0.000 C 
ATOM     24  O   UNL     1      -3.192  -3.633 131.892  0.00  0.00    +0.000 OA
ENDBRANCH  17  24
BRANCH  18  25
ATOM     25  O   UNL     1      -3.729  -1.138 130.468  0.00  0.00    +0.000 OA
ATOM     26  C   UNL     1      -4.338   0.125 130.222  0.00  0.00    +0.000 C 
ENDBRANCH  18  25
ENDBRANCH  16  20
ENDBRANCH  15  16
ENDBRANCH   1  15
TORSDOF 8
ENDMDL
MODEL 4
REMARK VINA RESULT:      -7.1      7.908     10.821
REMARK  Name = Vernakalant
REMARK  10 active torsions:
REMARK  status: ('A' for Active; 'I' for Inactive)
REMARK    1  A    between atoms: C_1  and  O_2
REMARK    2  A    between atoms: O_2  and  C_3
REMARK    3  A    between atoms: C_4  and  O_5
REMARK    4  A    between atoms: O_5  and  C_6
REMARK    5  A    between atoms: C_8  and  C_9
REMARK    6  A    between atoms: C_9  and  C_10
REMARK    7  A    between atoms: C_10  and  O_11
REMARK    8  A    between atoms: O_11  and  C_12
REMARK    9  A    between atoms: C_17  and  N_18
REMARK   10  A    between atoms: C_21  and  O_22
REMARK                            x       y       z     vdW  Elec       q    Type
REMARK                         _______ _______ _______ _____ _____    ______ ____
ROOT
ATOM      1  O   UNL     1      -9.316  -3.574 125.218  0.00  0.00    +0.000 OA
ENDROOT
BRANCH   1   2
ATOM      2  C   UNL     1      -8.369  -2.947 124.318  0.00  0.00    +0.000 C 
ATOM      3  C   UNL     1      -7.024  -3.654 124.491  0.00  0.00    +0.000 C 
ATOM      4  C   UNL     1      -5.940  -3.017 123.627  0.00  0.00    +0.000 C 
ATOM      5  C   UNL     1      -5.756  -1.549 123.973  0.00  0.00    +0.000 C 
ATOM      6  C   UNL     1      -7.051  -0.796 123.777  0.00  0.00    +0.000 C 
ATOM      7  C   UNL     1      -8.233  -1.402 124.566  0.00  0.00    +0.000 C 
BRANCH   7   8
ATOM      8  N   UNL     1      -9.478  -0.677 124.236  0.00  0.00    +0.000 NA
ATOM      9  C   UNL     1      -9.591  -0.288 122.823  0.00  0.00    +0.000 C 
ATOM     10  C   UNL     1      -9.579   1.220 122.817  0.00  0.00    +0.000 C 
ATOM     11  C   UNL     1     -10.259   1.558 124.128  0.00  0.00    +0.000 C 
ATOM     12  C   UNL     1      -9.756   0.487 125.093  0.00  0.00    +0.000 C 
BRANCH  11  13
ATOM     13  O   UNL     1     -11.673   1.453 123.961  0.00  0.00    +0.000 OA
ATOM     14  H   UNL     1     -11.901   1.981 123.173  0.00  0.00    +0.000 HD
ENDBRANCH  11  13
ENDBRANCH   7   8
ENDBRANCH   1   2
BRANCH   1  15
ATOM     15  C   UNL     1      -9.295  -2.934 126.491  0.00  0.00    +0.000 C 
BRANCH  15  16
ATOM     16  C   UNL     1      -8.829  -3.802 127.651  0.00  0.00    +0.000 C 
BRANCH  16  20
ATOM     17  C   UNL     1      -5.600  -1.902 129.870  0.00  0.00    +0.000 A 
ATOM     18  C   UNL     1      -6.467  -2.813 130.507  0.00  0.00    +0.000 A 
ATOM     19  C   UNL     1      -7.457  -3.472 129.751  0.00  0.00    +0.000 A 
ATOM     20  C   UNL     1      -7.670  -3.165 128.406  0.00  0.00    +0.000 A 
ATOM     21  C   UNL     1      -6.807  -2.229 127.808  0.00  0.00    +0.000 A 
ATOM     22  C   UNL     1      -5.788  -1.615 128.528  0.00  0.00    +0.000 A 
BRANCH  17  24
ATOM     23  C   UNL     1      -3.266  -2.066 130.264  0.00  0.00    +0.000 C 
ATOM     24  O   UNL     1      -4.506  -1.428 130.543  0.00  0.00    +0.000 OA
ENDBRANCH  17  24
BRANCH  18  25
ATOM     25  O   UNL     1      -6.490  -3.135 131.841  0.00  0.00    +0.000 OA
ATOM     26  C   UNL     1      -5.746  -4.284 132.236  0.00  0.00    +0.000 C 
ENDBRANCH  18  25
ENDBRANCH  16  20
ENDBRANCH  15  16
ENDBRANCH   1  15
TORSDOF 8
ENDMDL
MODEL 5
REMARK VINA RESULT:      -7.1      7.200     10.205
REMARK  Name = Vernakalant
REMARK  10 active torsions:
REMARK  status: ('A' for Active; 'I' for Inactive)
REMARK    1  A    between atoms: C_1  and  O_2
REMARK    2  A    between atoms: O_2  and  C_3
REMARK    3  A    between atoms: C_4  and  O_5
REMARK    4  A    between atoms: O_5  and  C_6
REMARK    5  A    between atoms: C_8  and  C_9
REMARK    6  A    between atoms: C_9  and  C_10
REMARK    7  A    between atoms: C_10  and  O_11
REMARK    8  A    between atoms: O_11  and  C_12
REMARK    9  A    between atoms: C_17  and  N_18
REMARK   10  A    between atoms: C_21  and  O_22
REMARK                            x       y       z     vdW  Elec       q    Type
REMARK                         _______ _______ _______ _____ _____    ______ ____
ROOT
ATOM      1  O   UNL     1      -9.247  -3.677 125.043  0.00  0.00    +0.000 OA
ENDROOT
BRANCH   1   2
ATOM      2  C   UNL     1      -8.281  -2.949 124.244  0.00  0.00    +0.000 C 
ATOM      3  C   UNL     1      -6.921  -3.624 124.428  0.00  0.00    +0.000 C 
ATOM      4  C   UNL     1      -5.822  -2.885 123.672  0.00  0.00    +0.000 C 
ATOM      5  C   UNL     1      -5.707  -1.445 124.141  0.00  0.00    +0.000 C 
ATOM      6  C   UNL     1      -7.018  -0.721 123.940  0.00  0.00    +0.000 C 
ATOM      7  C   UNL     1      -8.213  -1.426 124.619  0.00  0.00    +0.000 C 
BRANCH   7   8
ATOM      8  N   UNL     1      -9.466  -0.717 124.285  0.00  0.00    +0.000 NA
ATOM      9  C   UNL     1      -9.618  -0.405 122.857  0.00  0.00    +0.000 C 
ATOM     10  C   UNL     1      -9.605   1.100 122.768  0.00  0.00    +0.000 C 
ATOM     11  C   UNL     1     -10.248   1.510 124.077  0.00  0.00    +0.000 C 
ATOM     12  C   UNL     1      -9.719   0.492 125.085  0.00  0.00    +0.000 C 
BRANCH  11  13
ATOM     13  O   UNL     1     -11.667   1.399 123.956  0.00  0.00    +0.000 OA
ATOM     14  H   UNL     1     -11.917   1.884 123.147  0.00  0.00    +0.000 HD
ENDBRANCH  11  13
ENDBRANCH   7   8
ENDBRANCH   1   2
BRANCH   1  15
ATOM     15  C   UNL     1      -9.407  -3.059 126.317  0.00  0.00    +0.000 C 
BRANCH  15  16
ATOM     16  C   UNL     1      -8.953  -3.891 127.508  0.00  0.00    +0.000 C 
BRANCH  16  20
ATOM     17  C   UNL     1      -6.077  -1.777 130.002  0.00  0.00    +0.000 A 
ATOM     18  C   UNL     1      -6.131  -1.539 128.613  0.00  0.00    +0.000 A 
ATOM     19  C   UNL     1      -7.121  -2.178 127.840  0.00  0.00    +0.000 A 
ATOM     20  C   UNL     1      -7.981  -3.125 128.397  0.00  0.00    +0.000 A 
ATOM     21  C   UNL     1      -7.880  -3.363 129.779  0.00  0.00    +0.000 A 
ATOM     22  C   UNL     1      -6.948  -2.694 130.566  0.00  0.00    +0.000 A 
BRANCH  17  24
ATOM     23  C   UNL     1      -5.841   0.201 131.291  0.00  0.00    +0.000 C 
ATOM     24  O   UNL     1      -5.269  -1.000 130.789  0.00  0.00    +0.000 OA
ENDBRANCH  17  24
BRANCH  18  25
ATOM     25  O   UNL     1      -5.286  -0.747 127.878  0.00  0.00    +0.000 OA
ATOM     26  C   UNL     1      -5.808   0.497 127.420  0.00  0.00    +0.000 C 
ENDBRANCH  18  25
ENDBRANCH  16  20
ENDBRANCH  15  16
ENDBRANCH   1  15
TORSDOF 8
ENDMDL
MODEL 6
REMARK VINA RESULT:      -7.0      6.783      9.461
REMARK  Name = Vernakalant
REMARK  10 active torsions:
REMARK  status: ('A' for Active; 'I' for Inactive)
REMARK    1  A    between atoms: C_1  and  O_2
REMARK    2  A    between atoms: O_2  and  C_3
REMARK    3  A    between atoms: C_4  and  O_5
REMARK    4  A    between atoms: O_5  and  C_6
REMARK    5  A    between atoms: C_8  and  C_9
REMARK    6  A    between atoms: C_9  and  C_10
REMARK    7  A    between atoms: C_10  and  O_11
REMARK    8  A    between atoms: O_11  and  C_12
REMARK    9  A    between atoms: C_17  and  N_18
REMARK   10  A    between atoms: C_21  and  O_22
REMARK                            x       y       z     vdW  Elec       q    Type
REMARK                         _______ _______ _______ _____ _____    ______ ____
ROOT
ATOM      1  O   UNL     1      -9.287  -0.840 124.458  0.00  0.00    +0.000 OA
ENDROOT
BRANCH   1   2
ATOM      2  C   UNL     1      -7.869  -1.121 124.354  0.00  0.00    +0.000 C 
ATOM      3  C   UNL     1      -7.573  -1.494 122.901  0.00  0.00    +0.000 C 
ATOM      4  C   UNL     1      -6.109  -1.872 122.705  0.00  0.00    +0.000 C 
ATOM      5  C   UNL     1      -5.724  -3.048 123.588  0.00  0.00    +0.000 C 
ATOM      6  C   UNL     1      -5.959  -2.712 125.042  0.00  0.00    +0.000 C 
ATOM      7  C   UNL     1      -7.405  -2.255 125.336  0.00  0.00    +0.000 C 
BRANCH   7   8
ATOM      8  N   UNL     1      -7.520  -1.844 126.750  0.00  0.00    +0.000 NA
ATOM      9  C   UNL     1      -6.239  -1.505 127.386  0.00  0.00    +0.000 C 
ATOM     10  C   UNL     1      -6.038  -2.538 128.466  0.00  0.00    +0.000 C 
ATOM     11  C   UNL     1      -7.458  -2.836 128.902  0.00  0.00    +0.000 C 
ATOM     12  C   UNL     1      -8.262  -2.786 127.605  0.00  0.00    +0.000 C 
BRANCH  11  13
ATOM     13  O   UNL     1      -7.896  -1.815 129.799  0.00  0.00    +0.000 OA
ATOM     14  H   UNL     1      -8.385  -2.263 130.515  0.00  0.00    +0.000 HD
ENDBRANCH  11  13
ENDBRANCH   7   8
ENDBRANCH   1   2
BRANCH   1  15
ATOM     15  C   UNL     1      -9.500   0.417 125.096  0.00  0.00    +0.000 C 
BRANCH  15  16
ATOM     16  C   UNL     1      -9.925   1.552 124.175  0.00  0.00    +0.000 C 
BRANCH  16  20
ATOM     17  C   UNL     1      -6.528   3.652 122.440  0.00  0.00    +0.000 A 
ATOM     18  C   UNL     1      -6.479   3.187 123.770  0.00  0.00    +0.000 A 
ATOM     19  C   UNL     1      -7.560   2.444 124.285  0.00  0.00    +0.000 A 
ATOM     20  C   UNL     1      -8.727   2.249 123.544  0.00  0.00    +0.000 A 
ATOM     21  C   UNL     1      -8.756   2.753 122.231  0.00  0.00    +0.000 A 
ATOM     22  C   UNL     1      -7.672   3.436 121.690  0.00  0.00    +0.000 A 
BRANCH  17  24
ATOM     23  C   UNL     1      -5.485   4.498 120.484  0.00  0.00    +0.000 C 
ATOM     24  O   UNL     1      -5.401   4.179 121.867  0.00  0.00    +0.000 OA
ENDBRANCH  17  24
BRANCH  18  25
ATOM     25  O   UNL     1      -5.475   3.398 124.681  0.00  0.00    +0.000 OA
ATOM     26  C   UNL     1      -5.503   2.605 125.864  0.00  0.00    +0.000 C 
ENDBRANCH  18  25
ENDBRANCH  16  20
ENDBRANCH  15  16
ENDBRANCH   1  15
TORSDOF 8
ENDMDL
MODEL 7
REMARK VINA RESULT:      -6.9      2.467      4.717
REMARK  Name = Vernakalant
REMARK  10 active torsions:
REMARK  status: ('A' for Active; 'I' for Inactive)
REMARK    1  A    between atoms: C_1  and  O_2
REMARK    2  A    between atoms: O_2  and  C_3
REMARK    3  A    between atoms: C_4  and  O_5
REMARK    4  A    between atoms: O_5  and  C_6
REMARK    5  A    between atoms: C_8  and  C_9
REMARK    6  A    between atoms: C_9  and  C_10
REMARK    7  A    between atoms: C_10  and  O_11
REMARK    8  A    between atoms: O_11  and  C_12
REMARK    9  A    between atoms: C_17  and  N_18
REMARK   10  A    between atoms: C_21  and  O_22
REMARK                            x       y       z     vdW  Elec       q    Type
REMARK                         _______ _______ _______ _____ _____    ______ ____
ROOT
ATOM      1  O   UNL     1      -4.499   6.526 128.265  0.00  0.00    +0.000 OA
ENDROOT
BRANCH   1   2
ATOM      2  C   UNL     1      -4.242   5.138 127.936  0.00  0.00    +0.000 C 
ATOM      3  C   UNL     1      -2.742   4.890 128.102  0.00  0.00    +0.000 C 
ATOM      4  C   UNL     1      -2.363   3.465 127.714  0.00  0.00    +0.000 C 
ATOM      5  C   UNL     1      -2.737   3.172 126.271  0.00  0.00    +0.000 C 
ATOM      6  C   UNL     1      -4.222   3.363 126.065  0.00  0.00    +0.000 C 
ATOM      7  C   UNL     1      -4.722   4.762 126.489  0.00  0.00    +0.000 C 
BRANCH   7   8
ATOM      8  N   UNL     1      -6.192   4.827 126.359  0.00  0.00    +0.000 NA
ATOM      9  C   UNL     1      -6.921   4.042 127.364  0.00  0.00    +0.000 C 
ATOM     10  C   UNL     1      -7.636   2.961 126.593  0.00  0.00    +0.000 C 
ATOM     11  C   UNL     1      -7.936   3.644 125.274  0.00  0.00    +0.000 C 
ATOM     12  C   UNL     1      -6.704   4.508 125.016  0.00  0.00    +0.000 C 
BRANCH  11  13
ATOM     13  O   UNL     1      -9.096   4.464 125.426  0.00  0.00    +0.000 OA
ATOM     14  H   UNL     1      -9.730   3.953 125.965  0.00  0.00    +0.000 HD
ENDBRANCH  11  13
ENDBRANCH   7   8
ENDBRANCH   1   2
BRANCH   1  15
ATOM     15  C   UNL     1      -3.804   6.894 129.453  0.00  0.00    +0.000 C 
BRANCH  15  16
ATOM     16  C   UNL     1      -4.586   7.769 130.423  0.00  0.00    +0.000 C 
BRANCH  16  20
ATOM     17  C   UNL     1      -7.457   5.559 132.838  0.00  0.00    +0.000 A 
ATOM     18  C   UNL     1      -7.898   6.428 131.818  0.00  0.00    +0.000 A 
ATOM     19  C   UNL     1      -6.949   7.073 131.000  0.00  0.00    +0.000 A 
ATOM     20  C   UNL     1      -5.579   6.958 131.244  0.00  0.00    +0.000 A 
ATOM     21  C   UNL     1      -5.174   6.108 132.289  0.00  0.00    +0.000 A 
ATOM     22  C   UNL     1      -6.098   5.417 133.065  0.00  0.00    +0.000 A 
BRANCH  17  24
ATOM     23  C   UNL     1      -8.133   3.364 133.432  0.00  0.00    +0.000 C 
ATOM     24  O   UNL     1      -8.365   4.765 133.486  0.00  0.00    +0.000 OA
ENDBRANCH  17  24
BRANCH  18  25
ATOM     25  O   UNL     1      -9.195   6.763 131.522  0.00  0.00    +0.000 OA
ATOM     26  C   UNL     1      -9.704   6.318 130.268  0.00  0.00    +0.000 C 
ENDBRANCH  18  25
ENDBRANCH  16  20
ENDBRANCH  15  16
ENDBRANCH   1  15
TORSDOF 8
ENDMDL
MODEL 8
REMARK VINA RESULT:      -6.8      7.824     10.947
REMARK  Name = Vernakalant
REMARK  10 active torsions:
REMARK  status: ('A' for Active; 'I' for Inactive)
REMARK    1  A    between atoms: C_1  and  O_2
REMARK    2  A    between atoms: O_2  and  C_3
REMARK    3  A    between atoms: C_4  and  O_5
REMARK    4  A    between atoms: O_5  and  C_6
REMARK    5  A    between atoms: C_8  and  C_9
REMARK    6  A    between atoms: C_9  and  C_10
REMARK    7  A    between atoms: C_10  and  O_11
REMARK    8  A    between atoms: O_11  and  C_12
REMARK    9  A    between atoms: C_17  and  N_18
REMARK   10  A    between atoms: C_21  and  O_22
REMARK                            x       y       z     vdW  Elec       q    Type
REMARK                         _______ _______ _______ _____ _____    ______ ____
ROOT
ATOM      1  O   UNL     1      -8.142  -1.661 127.295  0.00  0.00    +0.000 OA
ENDROOT
BRANCH   1   2
ATOM      2  C   UNL     1      -8.679  -1.863 125.964  0.00  0.00    +0.000 C 
ATOM      3  C   UNL     1      -8.449  -3.327 125.586  0.00  0.00    +0.000 C 
ATOM      4  C   UNL     1      -8.925  -3.621 124.168  0.00  0.00    +0.000 C 
ATOM      5  C   UNL     1      -8.205  -2.748 123.155  0.00  0.00    +0.000 C 
ATOM      6  C   UNL     1      -8.437  -1.286 123.462  0.00  0.00    +0.000 C 
ATOM      7  C   UNL     1      -8.041  -0.896 124.903  0.00  0.00    +0.000 C 
BRANCH   7   8
ATOM      8  N   UNL     1      -8.400   0.515 125.155  0.00  0.00    +0.000 NA
ATOM      9  C   UNL     1      -9.835   0.741 125.378  0.00  0.00    +0.000 C 
ATOM     10  C   UNL     1     -10.294   1.595 124.224  0.00  0.00    +0.000 C 
ATOM     11  C   UNL     1      -9.064   2.427 123.923  0.00  0.00    +0.000 C 
ATOM     12  C   UNL     1      -7.901   1.463 124.145  0.00  0.00    +0.000 C 
BRANCH  11  13
ATOM     13  O   UNL     1      -8.996   3.512 124.849  0.00  0.00    +0.000 OA
ATOM     14  H   UNL     1      -9.331   3.173 125.701  0.00  0.00    +0.000 HD
ENDBRANCH  11  13
ENDBRANCH   7   8
ENDBRANCH   1   2
BRANCH   1  15
ATOM     15  C   UNL     1      -7.794  -2.910 127.887  0.00  0.00    +0.000 C 
BRANCH  15  16
ATOM     16  C   UNL     1      -8.387  -3.168 129.265  0.00  0.00    +0.000 C 
BRANCH  16  20
ATOM     17  C   UNL     1      -5.256  -3.751 132.234  0.00  0.00    +0.000 A 
ATOM     18  C   UNL     1      -6.399  -2.983 132.540  0.00  0.00    +0.000 A 
ATOM     19  C   UNL     1      -7.433  -2.872 131.590  0.00  0.00    +0.000 A 
ATOM     20  C   UNL     1      -7.307  -3.415 130.310  0.00  0.00    +0.000 A 
ATOM     21  C   UNL     1      -6.141  -4.148 130.026  0.00  0.00    +0.000 A 
ATOM     22  C   UNL     1      -5.139  -4.317 130.976  0.00  0.00    +0.000 A 
BRANCH  17  24
ATOM     23  C   UNL     1      -3.282  -3.128 133.393  0.00  0.00    +0.000 C 
ATOM     24  O   UNL     1      -4.356  -4.044 133.223  0.00  0.00    +0.000 OA
ENDBRANCH  17  24
BRANCH  18  25
ATOM     25  O   UNL     1      -6.632  -2.273 133.691  0.00  0.00    +0.000 OA
ATOM     26  C   UNL     1      -7.514  -2.862 134.641  0.00  0.00    +0.000 C 
ENDBRANCH  18  25
ENDBRANCH  16  20
ENDBRANCH  15  16
ENDBRANCH   1  15
TORSDOF 8
ENDMDL
MODEL 9
REMARK VINA RESULT:      -6.7      4.080      8.213
REMARK  Name = Vernakalant
REMARK  10 active torsions:
REMARK  status: ('A' for Active; 'I' for Inactive)
REMARK    1  A    between atoms: C_1  and  O_2
REMARK    2  A    between atoms: O_2  and  C_3
REMARK    3  A    between atoms: C_4  and  O_5
REMARK    4  A    between atoms: O_5  and  C_6
REMARK    5  A    between atoms: C_8  and  C_9
REMARK    6  A    between atoms: C_9  and  C_10
REMARK    7  A    between atoms: C_10  and  O_11
REMARK    8  A    between atoms: O_11  and  C_12
REMARK    9  A    between atoms: C_17  and  N_18
REMARK   10  A    between atoms: C_21  and  O_22
REMARK                            x       y       z     vdW  Elec       q    Type
REMARK                         _______ _______ _______ _____ _____    ______ ____
ROOT
ATOM      1  O   UNL     1      -8.879   4.601 128.422  0.00  0.00    +0.000 OA
ENDROOT
BRANCH   1   2
ATOM      2  C   UNL     1      -9.031   5.579 129.481  0.00  0.00    +0.000 C 
ATOM      3  C   UNL     1      -8.081   5.189 130.615  0.00  0.00    +0.000 C 
ATOM      4  C   UNL     1      -8.217   6.128 131.808  0.00  0.00    +0.000 C 
ATOM      5  C   UNL     1      -9.636   6.123 132.351  0.00  0.00    +0.000 C 
ATOM      6  C   UNL     1     -10.611   6.544 131.276  0.00  0.00    +0.000 C 
ATOM      7  C   UNL     1     -10.511   5.689 129.994  0.00  0.00    +0.000 C 
BRANCH   7   8
ATOM      8  N   UNL     1     -11.416   6.232 128.960  0.00  0.00    +0.000 NA
ATOM      9  C   UNL     1     -10.824   7.301 128.143  0.00  0.00    +0.000 C 
ATOM     10  C   UNL     1     -11.628   8.539 128.453  0.00  0.00    +0.000 C 
ATOM     11  C   UNL     1     -13.007   7.974 128.726  0.00  0.00    +0.000 C 
ATOM     12  C   UNL     1     -12.731   6.664 129.461  0.00  0.00    +0.000 C 
BRANCH  11  13
ATOM     13  O   UNL     1     -13.661   7.718 127.482  0.00  0.00    +0.000 OA
ATOM     14  H   UNL     1     -13.103   7.080 126.999  0.00  0.00    +0.000 HD
ENDBRANCH  11  13
ENDBRANCH   7   8
ENDBRANCH   1   2
BRANCH   1  15
ATOM     15  C   UNL     1      -7.749   3.769 128.670  0.00  0.00    +0.000 C 
BRANCH  15  16
ATOM     16  C   UNL     1      -8.026   2.272 128.663  0.00  0.00    +0.000 C 
BRANCH  16  20
ATOM     17  C   UNL     1      -7.694   0.480 124.708  0.00  0.00    +0.000 A 
ATOM     18  C   UNL     1      -8.721   0.084 125.590  0.00  0.00    +0.000 A 
ATOM     19  C   UNL     1      -8.854   0.732 126.834  0.00  0.00    +0.000 A 
ATOM     20  C   UNL     1      -7.927   1.684 127.261  0.00  0.00    +0.000 A 
ATOM     21  C   UNL     1      -6.896   2.034 126.371  0.00  0.00    +0.000 A 
ATOM     22  C   UNL     1      -6.789   1.446 125.115  0.00  0.00    +0.000 A 
BRANCH  17  24
ATOM     23  C   UNL     1      -6.703  -0.953 123.098  0.00  0.00    +0.000 C 
ATOM     24  O   UNL     1      -7.693   0.014 123.421  0.00  0.00    +0.000 OA
ENDBRANCH  17  24
BRANCH  18  25
ATOM     25  O   UNL     1      -9.636  -0.919 125.393  0.00  0.00    +0.000 OA
ATOM     26  C   UNL     1      -9.208  -2.246 125.685  0.00  0.00    +0.000 C 
ENDBRANCH  18  25
ENDBRANCH  16  20
ENDBRANCH  15  16
ENDBRANCH   1  15
TORSDOF 8
ENDMDL
