MODEL 1
REMARK VINA RESULT:      -6.6      0.000      0.000
REMARK  Name = Vidarabine
REMARK  5 active torsions:
REMARK  status: ('A' for Active; 'I' for Inactive)
REMARK    1  A    between atoms: N9_10  and  C1*_11
REMARK    2  A    between atoms: C4*_13  and  C5*_14
REMARK    3  A    between atoms: C5*_14  and  O5*_15
REMARK    4  A    between atoms: C3*_16  and  O3*_17
REMARK    5  A    between atoms: C2*_18  and  O2*_19
REMARK                            x       y       z     vdW  Elec       q    Type
REMARK                         _______ _______ _______ _____ _____    ______ ____
ROOT
ATOM      1  N6    A A   1      -5.782   5.891 118.438  0.00  0.00    +0.000 N 
ATOM      2  C6    A A   1      -5.521   5.429 119.709  0.00  0.00    +0.000 A 
ATOM      3  N1    A A   1      -4.410   5.870 120.337  0.00  0.00    +0.000 NA
ATOM      4  C2    A A   1      -4.150   5.407 121.575  0.00  0.00    +0.000 A 
ATOM      5  N3    A A   1      -4.873   4.530 122.298  0.00  0.00    +0.000 NA
ATOM      6  C4    A A   1      -5.969   4.127 121.647  0.00  0.00    +0.000 A 
ATOM      7  C5    A A   1      -6.356   4.514 120.372  0.00  0.00    +0.000 A 
ATOM      8  N7    A A   1      -7.524   3.882 120.005  0.00  0.00    +0.000 NA
ATOM      9  C8    A A   1      -7.841   3.130 121.039  0.00  0.00    +0.000 A 
ATOM     10  N9    A A   1      -6.932   3.243 122.062  0.00  0.00    +0.000 N 
ATOM     11  H61   A A   1      -5.151   6.563 118.033  0.00  0.00    +0.000 HD
ATOM     12  H62   A A   1      -6.620   5.580 117.969  0.00  0.00    +0.000 HD
ENDROOT
BRANCH  10  13
ATOM     13  C1*   A A   1      -7.016   2.516 123.318  0.00  0.00    +0.000 C 
ATOM     14  O4*   A A   1      -7.288   1.127 123.042  0.00  0.00    +0.000 OA
ATOM     15  C4*   A A   1      -8.557   0.783 123.642  0.00  0.00    +0.000 C 
ATOM     16  C3*   A A   1      -9.256   2.087 124.037  0.00  0.00    +0.000 C 
ATOM     17  C2*   A A   1      -8.064   2.988 124.333  0.00  0.00    +0.000 C 
BRANCH  16  18
ATOM     18  O3*   A A   1     -10.160   1.958 125.129  0.00  0.00    +0.000 OA
ATOM     19  H3*   A A   1      -9.697   1.625 125.914  0.00  0.00    +0.000 HD
ENDBRANCH  16  18
BRANCH  17  20
ATOM     20  O2*   A A   1      -8.336   4.381 124.307  0.00  0.00    +0.000 OA
ATOM     21  H2*   A A   1      -8.863   4.577 123.509  0.00  0.00    +0.000 HD
ENDBRANCH  17  20
BRANCH  15  22
ATOM     22  C5*   A A   1      -9.378  -0.077 122.680  0.00  0.00    +0.000 C 
BRANCH  22  23
ATOM     23  O5*   A A   1     -10.670   0.465 122.442  0.00  0.00    +0.000 OA
ATOM     24  H5*   A A   1     -10.932   0.242 121.533  0.00  0.00    +0.000 HD
ENDBRANCH  22  23
ENDBRANCH  15  22
ENDBRANCH  10  13
TORSDOF 5
ENDMDL
MODEL 2
REMARK VINA RESULT:      -6.5      9.050      9.820
REMARK  Name = Vidarabine
REMARK  5 active torsions:
REMARK  status: ('A' for Active; 'I' for Inactive)
REMARK    1  A    between atoms: N9_10  and  C1*_11
REMARK    2  A    between atoms: C4*_13  and  C5*_14
REMARK    3  A    between atoms: C5*_14  and  O5*_15
REMARK    4  A    between atoms: C3*_16  and  O3*_17
REMARK    5  A    between atoms: C2*_18  and  O2*_19
REMARK                            x       y       z     vdW  Elec       q    Type
REMARK                         _______ _______ _______ _____ _____    ______ ____
ROOT
ATOM      1  N6    A A   1     -13.511   7.152 127.503  0.00  0.00    +0.000 N 
ATOM      2  C6    A A   1     -12.290   7.367 128.101  0.00  0.00    +0.000 A 
ATOM      3  N1    A A   1     -11.592   8.471 127.755  0.00  0.00    +0.000 NA
ATOM      4  C2    A A   1     -10.391   8.673 128.332  0.00  0.00    +0.000 A 
ATOM      5  N3    A A   1      -9.767   7.894 129.237  0.00  0.00    +0.000 NA
ATOM      6  C4    A A   1     -10.494   6.820 129.560  0.00  0.00    +0.000 A 
ATOM      7  C5    A A   1     -11.738   6.484 129.044  0.00  0.00    +0.000 A 
ATOM      8  N7    A A   1     -12.183   5.296 129.581  0.00  0.00    +0.000 NA
ATOM      9  C8    A A   1     -11.231   4.922 130.410  0.00  0.00    +0.000 A 
ATOM     10  N9    A A   1     -10.185   5.812 130.436  0.00  0.00    +0.000 N 
ATOM     11  H61   A A   1     -13.855   7.839 126.852  0.00  0.00    +0.000 HD
ATOM     12  H62   A A   1     -14.047   6.339 127.769  0.00  0.00    +0.000 HD
ENDROOT
BRANCH  10  13
ATOM     13  C1*   A A   1      -8.988   5.647 131.245  0.00  0.00    +0.000 C 
ATOM     14  O4*   A A   1      -8.405   4.357 130.969  0.00  0.00    +0.000 OA
ATOM     15  C4*   A A   1      -8.408   3.585 132.191  0.00  0.00    +0.000 C 
ATOM     16  C3*   A A   1      -9.317   4.302 133.194  0.00  0.00    +0.000 C 
ATOM     17  C2*   A A   1      -9.149   5.753 132.766  0.00  0.00    +0.000 C 
BRANCH  16  18
ATOM     18  O3*   A A   1      -8.983   4.065 134.558  0.00  0.00    +0.000 OA
ATOM     19  H3*   A A   1      -8.258   4.648 134.834  0.00  0.00    +0.000 HD
ENDBRANCH  16  18
BRANCH  17  20
ATOM     20  O2*   A A   1     -10.175   6.635 133.199  0.00  0.00    +0.000 OA
ATOM     21  H2*   A A   1     -10.796   6.770 132.458  0.00  0.00    +0.000 HD
ENDBRANCH  17  20
BRANCH  15  22
ATOM     22  C5*   A A   1      -8.841   2.146 131.903  0.00  0.00    +0.000 C 
BRANCH  22  23
ATOM     23  O5*   A A   1     -10.180   1.896 132.304  0.00  0.00    +0.000 OA
ATOM     24  H5*   A A   1     -10.459   2.609 132.902  0.00  0.00    +0.000 HD
ENDBRANCH  22  23
ENDBRANCH  15  22
ENDBRANCH  10  13
TORSDOF 5
ENDMDL
MODEL 3
REMARK VINA RESULT:      -6.2      8.171      9.913
REMARK  Name = Vidarabine
REMARK  5 active torsions:
REMARK  status: ('A' for Active; 'I' for Inactive)
REMARK    1  A    between atoms: N9_10  and  C1*_11
REMARK    2  A    between atoms: C4*_13  and  C5*_14
REMARK    3  A    between atoms: C5*_14  and  O5*_15
REMARK    4  A    between atoms: C3*_16  and  O3*_17
REMARK    5  A    between atoms: C2*_18  and  O2*_19
REMARK                            x       y       z     vdW  Elec       q    Type
REMARK                         _______ _______ _______ _____ _____    ______ ____
ROOT
ATOM      1  N6    A A   1     -12.756   9.399 128.986  0.00  0.00    +0.000 N 
ATOM      2  C6    A A   1     -11.851   8.405 128.690  0.00  0.00    +0.000 A 
ATOM      3  N1    A A   1     -11.332   8.361 127.443  0.00  0.00    +0.000 NA
ATOM      4  C2    A A   1     -10.456   7.379 127.151  0.00  0.00    +0.000 A 
ATOM      5  N3    A A   1     -10.014   6.398 127.961  0.00  0.00    +0.000 NA
ATOM      6  C4    A A   1     -10.542   6.483 129.187  0.00  0.00    +0.000 A 
ATOM      7  C5    A A   1     -11.456   7.432 129.624  0.00  0.00    +0.000 A 
ATOM      8  N7    A A   1     -11.806   7.204 130.936  0.00  0.00    +0.000 NA
ATOM      9  C8    A A   1     -11.115   6.140 131.289  0.00  0.00    +0.000 A 
ATOM     10  N9    A A   1     -10.331   5.665 130.266  0.00  0.00    +0.000 N 
ATOM     11  H61   A A   1     -12.977  10.076 128.274  0.00  0.00    +0.000 HD
ATOM     12  H62   A A   1     -13.136   9.450 129.921  0.00  0.00    +0.000 HD
ENDROOT
BRANCH  10  13
ATOM     13  C1*   A A   1      -9.477   4.493 130.363  0.00  0.00    +0.000 C 
ATOM     14  O4*   A A   1      -9.915   3.679 131.471  0.00  0.00    +0.000 OA
ATOM     15  C4*   A A   1      -8.837   3.596 132.430  0.00  0.00    +0.000 C 
ATOM     16  C3*   A A   1      -7.799   4.658 132.058  0.00  0.00    +0.000 C 
ATOM     17  C2*   A A   1      -7.974   4.732 130.547  0.00  0.00    +0.000 C 
BRANCH  16  18
ATOM     18  O3*   A A   1      -6.470   4.344 132.464  0.00  0.00    +0.000 OA
ATOM     19  H3*   A A   1      -5.830   4.683 131.818  0.00  0.00    +0.000 HD
ENDBRANCH  16  18
BRANCH  17  20
ATOM     20  O2*   A A   1      -7.479   5.915 129.936  0.00  0.00    +0.000 OA
ATOM     21  H2*   A A   1      -7.226   5.704 129.017  0.00  0.00    +0.000 HD
ENDBRANCH  17  20
BRANCH  15  22
ATOM     22  C5*   A A   1      -9.383   3.755 133.850  0.00  0.00    +0.000 C 
BRANCH  22  23
ATOM     23  O5*   A A   1      -8.545   4.566 134.661  0.00  0.00    +0.000 OA
ATOM     24  H5*   A A   1      -8.721   4.352 135.592  0.00  0.00    +0.000 HD
ENDBRANCH  22  23
ENDBRANCH  15  22
ENDBRANCH  10  13
TORSDOF 5
ENDMDL
MODEL 4
REMARK VINA RESULT:      -6.1      8.943     10.084
REMARK  Name = Vidarabine
REMARK  5 active torsions:
REMARK  status: ('A' for Active; 'I' for Inactive)
REMARK    1  A    between atoms: N9_10  and  C1*_11
REMARK    2  A    between atoms: C4*_13  and  C5*_14
REMARK    3  A    between atoms: C5*_14  and  O5*_15
REMARK    4  A    between atoms: C3*_16  and  O3*_17
REMARK    5  A    between atoms: C2*_18  and  O2*_19
REMARK                            x       y       z     vdW  Elec       q    Type
REMARK                         _______ _______ _______ _____ _____    ______ ____
ROOT
ATOM      1  N6    A A   1      -7.007   3.923 131.679  0.00  0.00    +0.000 N 
ATOM      2  C6    A A   1      -7.878   4.893 131.240  0.00  0.00    +0.000 A 
ATOM      3  N1    A A   1      -7.442   6.170 131.181  0.00  0.00    +0.000 NA
ATOM      4  C2    A A   1      -8.301   7.120 130.763  0.00  0.00    +0.000 A 
ATOM      5  N3    A A   1      -9.585   6.965 130.384  0.00  0.00    +0.000 NA
ATOM      6  C4    A A   1      -9.975   5.687 130.446  0.00  0.00    +0.000 A 
ATOM      7  C5    A A   1      -9.203   4.612 130.862  0.00  0.00    +0.000 A 
ATOM      8  N7    A A   1      -9.933   3.444 130.824  0.00  0.00    +0.000 NA
ATOM      9  C8    A A   1     -11.123   3.804 130.390  0.00  0.00    +0.000 A 
ATOM     10  N9    A A   1     -11.201   5.154 130.144  0.00  0.00    +0.000 N 
ATOM     11  H61   A A   1      -6.065   4.194 131.913  0.00  0.00    +0.000 HD
ATOM     12  H62   A A   1      -7.320   2.964 131.710  0.00  0.00    +0.000 HD
ENDROOT
BRANCH  10  13
ATOM     13  C1*   A A   1     -12.397   5.834 129.676  0.00  0.00    +0.000 C 
ATOM     14  O4*   A A   1     -12.201   6.246 128.307  0.00  0.00    +0.000 OA
ATOM     15  C4*   A A   1     -12.288   7.688 128.249  0.00  0.00    +0.000 C 
ATOM     16  C3*   A A   1     -12.218   8.218 129.684  0.00  0.00    +0.000 C 
ATOM     17  C2*   A A   1     -12.853   7.071 130.458  0.00  0.00    +0.000 C 
BRANCH  16  18
ATOM     18  O3*   A A   1     -12.872   9.469 129.877  0.00  0.00    +0.000 OA
ATOM     19  H3*   A A   1     -12.397  10.001 130.534  0.00  0.00    +0.000 HD
ENDBRANCH  16  18
BRANCH  17  20
ATOM     20  O2*   A A   1     -12.559   7.041 131.847  0.00  0.00    +0.000 OA
ATOM     21  H2*   A A   1     -12.160   6.176 132.058  0.00  0.00    +0.000 HD
ENDBRANCH  17  20
BRANCH  15  22
ATOM     22  C5*   A A   1     -11.187   8.245 127.344  0.00  0.00    +0.000 C 
BRANCH  22  23
ATOM     23  O5*   A A   1     -10.262   9.053 128.057  0.00  0.00    +0.000 OA
ATOM     24  H5*   A A   1     -10.541   9.092 128.986  0.00  0.00    +0.000 HD
ENDBRANCH  22  23
ENDBRANCH  15  22
ENDBRANCH  10  13
TORSDOF 5
ENDMDL
MODEL 5
REMARK VINA RESULT:      -6.0      9.392     10.671
REMARK  Name = Vidarabine
REMARK  5 active torsions:
REMARK  status: ('A' for Active; 'I' for Inactive)
REMARK    1  A    between atoms: N9_10  and  C1*_11
REMARK    2  A    between atoms: C4*_13  and  C5*_14
REMARK    3  A    between atoms: C5*_14  and  O5*_15
REMARK    4  A    between atoms: C3*_16  and  O3*_17
REMARK    5  A    between atoms: C2*_18  and  O2*_19
REMARK                            x       y       z     vdW  Elec       q    Type
REMARK                         _______ _______ _______ _____ _____    ______ ____
ROOT
ATOM      1  N6    A A   1      -9.256   0.405 131.915  0.00  0.00    +0.000 N 
ATOM      2  C6    A A   1      -9.040   1.719 132.261  0.00  0.00    +0.000 A 
ATOM      3  N1    A A   1      -8.170   1.986 133.259  0.00  0.00    +0.000 NA
ATOM      4  C2    A A   1      -7.970   3.272 133.606  0.00  0.00    +0.000 A 
ATOM      5  N3    A A   1      -8.543   4.370 133.074  0.00  0.00    +0.000 NA
ATOM      6  C4    A A   1      -9.387   4.065 132.084  0.00  0.00    +0.000 A 
ATOM      7  C5    A A   1      -9.694   2.790 131.628  0.00  0.00    +0.000 A 
ATOM      8  N7    A A   1     -10.623   2.846 130.613  0.00  0.00    +0.000 NA
ATOM      9  C8    A A   1     -10.872   4.130 130.453  0.00  0.00    +0.000 A 
ATOM     10  N9    A A   1     -10.147   4.912 131.319  0.00  0.00    +0.000 N 
ATOM     11  H61   A A   1      -8.737  -0.310 132.397  0.00  0.00    +0.000 HD
ATOM     12  H62   A A   1      -9.892   0.198 131.158  0.00  0.00    +0.000 HD
ENDROOT
BRANCH  10  13
ATOM     13  C1*   A A   1     -10.233   6.361 131.382  0.00  0.00    +0.000 C 
ATOM     14  O4*   A A   1     -11.603   6.764 131.176  0.00  0.00    +0.000 OA
ATOM     15  C4*   A A   1     -11.664   7.578 129.983  0.00  0.00    +0.000 C 
ATOM     16  C3*   A A   1     -10.336   7.416 129.239  0.00  0.00    +0.000 C 
ATOM     17  C2*   A A   1      -9.376   7.159 130.392  0.00  0.00    +0.000 C 
BRANCH  16  18
ATOM     18  O3*   A A   1      -9.977   8.536 128.435  0.00  0.00    +0.000 OA
ATOM     19  H3*   A A   1     -10.403   9.342 128.768  0.00  0.00    +0.000 HD
ENDBRANCH  16  18
BRANCH  17  20
ATOM     20  O2*   A A   1      -8.148   6.541 130.032  0.00  0.00    +0.000 OA
ATOM     21  H2*   A A   1      -8.095   5.678 130.484  0.00  0.00    +0.000 HD
ENDBRANCH  17  20
BRANCH  15  22
ATOM     22  C5*   A A   1     -12.881   7.188 129.142  0.00  0.00    +0.000 C 
BRANCH  22  23
ATOM     23  O5*   A A   1     -12.514   6.548 127.928  0.00  0.00    +0.000 OA
ATOM     24  H5*   A A   1     -13.127   5.811 127.773  0.00  0.00    +0.000 HD
ENDBRANCH  22  23
ENDBRANCH  15  22
ENDBRANCH  10  13
TORSDOF 5
ENDMDL
MODEL 6
REMARK VINA RESULT:      -6.0      2.119      2.843
REMARK  Name = Vidarabine
REMARK  5 active torsions:
REMARK  status: ('A' for Active; 'I' for Inactive)
REMARK    1  A    between atoms: N9_10  and  C1*_11
REMARK    2  A    between atoms: C4*_13  and  C5*_14
REMARK    3  A    between atoms: C5*_14  and  O5*_15
REMARK    4  A    between atoms: C3*_16  and  O3*_17
REMARK    5  A    between atoms: C2*_18  and  O2*_19
REMARK                            x       y       z     vdW  Elec       q    Type
REMARK                         _______ _______ _______ _____ _____    ______ ____
ROOT
ATOM      1  N6    A A   1      -8.456   4.217 118.771  0.00  0.00    +0.000 N 
ATOM      2  C6    A A   1      -7.442   4.292 119.698  0.00  0.00    +0.000 A 
ATOM      3  N1    A A   1      -6.268   4.845 119.323  0.00  0.00    +0.000 NA
ATOM      4  C2    A A   1      -5.273   4.906 120.229  0.00  0.00    +0.000 A 
ATOM      5  N3    A A   1      -5.288   4.472 121.504  0.00  0.00    +0.000 NA
ATOM      6  C4    A A   1      -6.468   3.942 121.839  0.00  0.00    +0.000 A 
ATOM      7  C5    A A   1      -7.574   3.809 121.011  0.00  0.00    +0.000 A 
ATOM      8  N7    A A   1      -8.611   3.194 121.678  0.00  0.00    +0.000 NA
ATOM      9  C8    A A   1      -8.145   2.963 122.888  0.00  0.00    +0.000 A 
ATOM     10  N9    A A   1      -6.850   3.399 123.038  0.00  0.00    +0.000 N 
ATOM     11  H61   A A   1      -8.299   4.603 117.854  0.00  0.00    +0.000 HD
ATOM     12  H62   A A   1      -9.343   3.821 119.048  0.00  0.00    +0.000 HD
ENDROOT
BRANCH  10  13
ATOM     13  C1*   A A   1      -6.075   3.259 124.260  0.00  0.00    +0.000 C 
ATOM     14  O4*   A A   1      -6.483   2.056 124.944  0.00  0.00    +0.000 OA
ATOM     15  C4*   A A   1      -7.018   2.424 126.235  0.00  0.00    +0.000 C 
ATOM     16  C3*   A A   1      -7.246   3.939 126.230  0.00  0.00    +0.000 C 
ATOM     17  C2*   A A   1      -6.154   4.404 125.277  0.00  0.00    +0.000 C 
BRANCH  16  18
ATOM     18  O3*   A A   1      -7.176   4.544 127.518  0.00  0.00    +0.000 OA
ATOM     19  H3*   A A   1      -8.061   4.805 127.818  0.00  0.00    +0.000 HD
ENDBRANCH  16  18
BRANCH  17  20
ATOM     20  O2*   A A   1      -6.350   5.692 124.712  0.00  0.00    +0.000 OA
ATOM     21  H2*   A A   1      -5.545   5.936 124.216  0.00  0.00    +0.000 HD
ENDBRANCH  17  20
BRANCH  15  22
ATOM     22  C5*   A A   1      -8.287   1.622 126.528  0.00  0.00    +0.000 C 
BRANCH  22  23
ATOM     23  O5*   A A   1      -8.955   2.078 127.695  0.00  0.00    +0.000 OA
ATOM     24  H5*   A A   1      -9.584   1.393 127.975  0.00  0.00    +0.000 HD
ENDBRANCH  22  23
ENDBRANCH  15  22
ENDBRANCH  10  13
TORSDOF 5
ENDMDL
MODEL 7
REMARK VINA RESULT:      -6.0      9.577     10.939
REMARK  Name = Vidarabine
REMARK  5 active torsions:
REMARK  status: ('A' for Active; 'I' for Inactive)
REMARK    1  A    between atoms: N9_10  and  C1*_11
REMARK    2  A    between atoms: C4*_13  and  C5*_14
REMARK    3  A    between atoms: C5*_14  and  O5*_15
REMARK    4  A    between atoms: C3*_16  and  O3*_17
REMARK    5  A    between atoms: C2*_18  and  O2*_19
REMARK                            x       y       z     vdW  Elec       q    Type
REMARK                         _______ _______ _______ _____ _____    ______ ____
ROOT
ATOM      1  N6    A A   1     -11.157   8.676 127.919  0.00  0.00    +0.000 N 
ATOM      2  C6    A A   1     -11.461   7.989 129.072  0.00  0.00    +0.000 A 
ATOM      3  N1    A A   1     -12.761   7.847 129.411  0.00  0.00    +0.000 NA
ATOM      4  C2    A A   1     -13.056   7.185 130.547  0.00  0.00    +0.000 A 
ATOM      5  N3    A A   1     -12.199   6.628 131.425  0.00  0.00    +0.000 NA
ATOM      6  C4    A A   1     -10.925   6.781 131.049  0.00  0.00    +0.000 A 
ATOM      7  C5    A A   1     -10.477   7.441 129.913  0.00  0.00    +0.000 A 
ATOM      8  N7    A A   1      -9.101   7.429 129.854  0.00  0.00    +0.000 NA
ATOM      9  C8    A A   1      -8.722   6.771 130.929  0.00  0.00    +0.000 A 
ATOM     10  N9    A A   1      -9.790   6.354 131.687  0.00  0.00    +0.000 N 
ATOM     11  H61   A A   1     -11.914   9.023 127.353  0.00  0.00    +0.000 HD
ATOM     12  H62   A A   1     -10.189   8.772 127.649  0.00  0.00    +0.000 HD
ENDROOT
BRANCH  10  13
ATOM     13  C1*   A A   1      -9.672   5.622 132.937  0.00  0.00    +0.000 C 
ATOM     14  O4*   A A   1      -8.566   6.155 133.695  0.00  0.00    +0.000 OA
ATOM     15  C4*   A A   1      -7.590   5.106 133.877  0.00  0.00    +0.000 C 
ATOM     16  C3*   A A   1      -7.951   3.962 132.925  0.00  0.00    +0.000 C 
ATOM     17  C2*   A A   1      -9.465   4.105 132.846  0.00  0.00    +0.000 C 
BRANCH  16  18
ATOM     18  O3*   A A   1      -7.522   2.677 133.366  0.00  0.00    +0.000 OA
ATOM     19  H3*   A A   1      -6.702   2.752 133.879  0.00  0.00    +0.000 HD
ENDBRANCH  16  18
BRANCH  17  20
ATOM     20  O2*   A A   1     -10.075   3.486 131.723  0.00  0.00    +0.000 OA
ATOM     21  H2*   A A   1      -9.414   2.912 131.292  0.00  0.00    +0.000 HD
ENDBRANCH  17  20
BRANCH  15  22
ATOM     22  C5*   A A   1      -6.179   5.655 133.654  0.00  0.00    +0.000 C 
BRANCH  22  23
ATOM     23  O5*   A A   1      -5.396   4.808 132.826  0.00  0.00    +0.000 OA
ATOM     24  H5*   A A   1      -4.501   4.755 133.200  0.00  0.00    +0.000 HD
ENDBRANCH  22  23
ENDBRANCH  15  22
ENDBRANCH  10  13
TORSDOF 5
ENDMDL
MODEL 8
REMARK VINA RESULT:      -6.0      2.015      3.498
REMARK  Name = Vidarabine
REMARK  5 active torsions:
REMARK  status: ('A' for Active; 'I' for Inactive)
REMARK    1  A    between atoms: N9_10  and  C1*_11
REMARK    2  A    between atoms: C4*_13  and  C5*_14
REMARK    3  A    between atoms: C5*_14  and  O5*_15
REMARK    4  A    between atoms: C3*_16  and  O3*_17
REMARK    5  A    between atoms: C2*_18  and  O2*_19
REMARK                            x       y       z     vdW  Elec       q    Type
REMARK                         _______ _______ _______ _____ _____    ______ ____
ROOT
ATOM      1  N6    A A   1      -5.075   4.439 120.508  0.00  0.00    +0.000 N 
ATOM      2  C6    A A   1      -6.353   4.072 120.864  0.00  0.00    +0.000 A 
ATOM      3  N1    A A   1      -7.337   4.202 119.948  0.00  0.00    +0.000 NA
ATOM      4  C2    A A   1      -8.589   3.855 120.303  0.00  0.00    +0.000 A 
ATOM      5  N3    A A   1      -9.010   3.380 121.492  0.00  0.00    +0.000 NA
ATOM      6  C4    A A   1      -8.006   3.256 122.366  0.00  0.00    +0.000 A 
ATOM      7  C5    A A   1      -6.676   3.580 122.141  0.00  0.00    +0.000 A 
ATOM      8  N7    A A   1      -5.920   3.350 123.269  0.00  0.00    +0.000 NA
ATOM      9  C8    A A   1      -6.775   2.892 124.160  0.00  0.00    +0.000 A 
ATOM     10  N9    A A   1      -8.054   2.814 123.662  0.00  0.00    +0.000 N 
ATOM     11  H61   A A   1      -4.912   4.763 119.569  0.00  0.00    +0.000 HD
ATOM     12  H62   A A   1      -4.330   4.328 121.182  0.00  0.00    +0.000 HD
ENDROOT
BRANCH  10  13
ATOM     13  C1*   A A   1      -9.204   2.361 124.426  0.00  0.00    +0.000 C 
ATOM     14  O4*   A A   1      -8.888   2.412 125.833  0.00  0.00    +0.000 OA
ATOM     15  C4*   A A   1      -8.972   1.072 126.367  0.00  0.00    +0.000 C 
ATOM     16  C3*   A A   1      -9.033   0.100 125.184  0.00  0.00    +0.000 C 
ATOM     17  C2*   A A   1      -9.732   0.952 124.133  0.00  0.00    +0.000 C 
BRANCH  16  18
ATOM     18  O3*   A A   1      -9.704  -1.123 125.467  0.00  0.00    +0.000 OA
ATOM     19  H3*   A A   1     -10.157  -1.070 126.323  0.00  0.00    +0.000 HD
ENDBRANCH  16  18
BRANCH  17  20
ATOM     20  O2*   A A   1      -9.563   0.518 122.791  0.00  0.00    +0.000 OA
ATOM     21  H2*   A A   1      -8.649   0.722 122.515  0.00  0.00    +0.000 HD
ENDBRANCH  17  20
BRANCH  15  22
ATOM     22  C5*   A A   1      -7.796   0.806 127.309  0.00  0.00    +0.000 C 
BRANCH  22  23
ATOM     23  O5*   A A   1      -7.810  -0.516 127.828  0.00  0.00    +0.000 OA
ATOM     24  H5*   A A   1      -8.677  -0.676 128.236  0.00  0.00    +0.000 HD
ENDBRANCH  22  23
ENDBRANCH  15  22
ENDBRANCH  10  13
TORSDOF 5
ENDMDL
MODEL 9
REMARK VINA RESULT:      -6.0      8.364     10.110
REMARK  Name = Vidarabine
REMARK  5 active torsions:
REMARK  status: ('A' for Active; 'I' for Inactive)
REMARK    1  A    between atoms: N9_10  and  C1*_11
REMARK    2  A    between atoms: C4*_13  and  C5*_14
REMARK    3  A    between atoms: C5*_14  and  O5*_15
REMARK    4  A    between atoms: C3*_16  and  O3*_17
REMARK    5  A    between atoms: C2*_18  and  O2*_19
REMARK                            x       y       z     vdW  Elec       q    Type
REMARK                         _______ _______ _______ _____ _____    ______ ____
ROOT
ATOM      1  N6    A A   1      -5.529   4.059 130.539  0.00  0.00    +0.000 N 
ATOM      2  C6    A A   1      -6.797   4.017 131.073  0.00  0.00    +0.000 A 
ATOM      3  N1    A A   1      -6.981   3.359 132.239  0.00  0.00    +0.000 NA
ATOM      4  C2    A A   1      -8.225   3.307 132.753  0.00  0.00    +0.000 A 
ATOM      5  N3    A A   1      -9.353   3.839 132.243  0.00  0.00    +0.000 NA
ATOM      6  C4    A A   1      -9.127   4.489 131.097  0.00  0.00    +0.000 A 
ATOM      7  C5    A A   1      -7.905   4.617 130.452  0.00  0.00    +0.000 A 
ATOM      8  N7    A A   1      -8.045   5.329 129.281  0.00  0.00    +0.000 NA
ATOM      9  C8    A A   1      -9.325   5.630 129.219  0.00  0.00    +0.000 A 
ATOM     10  N9    A A   1     -10.026   5.146 130.297  0.00  0.00    +0.000 N 
ATOM     11  H61   A A   1      -4.778   3.626 131.051  0.00  0.00    +0.000 HD
ATOM     12  H62   A A   1      -5.380   4.564 129.677  0.00  0.00    +0.000 HD
ENDROOT
BRANCH  10  13
ATOM     13  C1*   A A   1     -11.458   5.310 130.485  0.00  0.00    +0.000 C 
ATOM     14  O4*   A A   1     -12.064   5.657 129.223  0.00  0.00    +0.000 OA
ATOM     15  C4*   A A   1     -12.673   6.961 129.352  0.00  0.00    +0.000 C 
ATOM     16  C3*   A A   1     -12.155   7.592 130.648  0.00  0.00    +0.000 C 
ATOM     17  C2*   A A   1     -11.916   6.357 131.507  0.00  0.00    +0.000 C 
BRANCH  16  18
ATOM     18  O3*   A A   1     -13.046   8.534 131.237  0.00  0.00    +0.000 OA
ATOM     19  H3*   A A   1     -13.328   8.230 132.114  0.00  0.00    +0.000 HD
ENDBRANCH  16  18
BRANCH  17  20
ATOM     20  O2*   A A   1     -11.036   6.544 132.606  0.00  0.00    +0.000 OA
ATOM     21  H2*   A A   1     -10.875   5.676 133.022  0.00  0.00    +0.000 HD
ENDBRANCH  17  20
BRANCH  15  22
ATOM     22  C5*   A A   1     -12.380   7.804 128.110  0.00  0.00    +0.000 C 
BRANCH  22  23
ATOM     23  O5*   A A   1     -11.995   9.131 128.438  0.00  0.00    +0.000 OA
ATOM     24  H5*   A A   1     -12.795   9.682 128.471  0.00  0.00    +0.000 HD
ENDBRANCH  22  23
ENDBRANCH  15  22
ENDBRANCH  10  13
TORSDOF 5
ENDMDL
