MODEL 1
REMARK VINA RESULT:      -4.7      0.000      0.000
REMARK  Name = Vigabatrin
REMARK  6 active torsions:
REMARK  status: ('A' for Active; 'I' for Inactive)
REMARK    1  A    between atoms: N_1  and  C_2
REMARK    2  A    between atoms: C_2  and  C_3
REMARK    3  A    between atoms: C_2  and  C_8
REMARK    4  A    between atoms: C_3  and  C_4
REMARK    5  A    between atoms: C_4  and  C_5
REMARK    6  A    between atoms: C_5  and  O_6
REMARK                            x       y       z     vdW  Elec       q    Type
REMARK                         _______ _______ _______ _____ _____    ______ ____
ROOT
ATOM      1  C   UNL     1     -12.416   8.126 129.584  0.00  0.00    +0.000 C 
ENDROOT
BRANCH   1   2
ATOM      2  N   UNL     1     -13.255   7.001 129.189  0.00  0.00    +0.000 NA
ATOM      3  H   UNL     1     -12.796   6.122 129.428  0.00  0.00    +0.000 HD
ATOM      4  H   UNL     1     -13.369   6.989 128.177  0.00  0.00    +0.000 HD
ENDBRANCH   1   2
BRANCH   1   5
ATOM      5  C   UNL     1     -12.984   9.394 129.005  0.00  0.00    +0.000 C 
ATOM      6  C   UNL     1     -13.340  10.456 129.743  0.00  0.00    +0.000 C 
ENDBRANCH   1   5
BRANCH   1   7
ATOM      7  C   UNL     1     -10.970   7.936 129.106  0.00  0.00    +0.000 C 
BRANCH   7   8
ATOM      8  C   UNL     1     -10.763   8.265 127.635  0.00  0.00    +0.000 C 
BRANCH   8   9
ATOM      9  C   UNL     1     -10.808   7.083 126.697  0.00  0.00    +0.000 C 
ATOM     10  O   UNL     1      -9.786   6.487 126.371  0.00  0.00    +0.000 OA
BRANCH   9  11
ATOM     11  O   UNL     1     -12.012   6.696 126.237  0.00  0.00    +0.000 OA
ATOM     12  H   UNL     1     -12.636   7.385 125.946  0.00  0.00    +0.000 HD
ENDBRANCH   9  11
ENDBRANCH   8   9
ENDBRANCH   7   8
ENDBRANCH   1   7
TORSDOF 6
ENDMDL
MODEL 2
REMARK VINA RESULT:      -4.5      1.646      1.816
REMARK  Name = Vigabatrin
REMARK  6 active torsions:
REMARK  status: ('A' for Active; 'I' for Inactive)
REMARK    1  A    between atoms: N_1  and  C_2
REMARK    2  A    between atoms: C_2  and  C_3
REMARK    3  A    between atoms: C_2  and  C_8
REMARK    4  A    between atoms: C_3  and  C_4
REMARK    5  A    between atoms: C_4  and  C_5
REMARK    6  A    between atoms: C_5  and  O_6
REMARK                            x       y       z     vdW  Elec       q    Type
REMARK                         _______ _______ _______ _____ _____    ______ ____
ROOT
ATOM      1  C   UNL     1     -11.084   6.962 129.844  0.00  0.00    +0.000 C 
ENDROOT
BRANCH   1   2
ATOM      2  N   UNL     1     -11.572   5.674 129.366  0.00  0.00    +0.000 NA
ATOM      3  H   UNL     1     -11.154   5.454 128.463  0.00  0.00    +0.000 HD
ATOM      4  H   UNL     1     -12.577   5.718 129.205  0.00  0.00    +0.000 HD
ENDBRANCH   1   2
BRANCH   1   5
ATOM      5  C   UNL     1     -12.254   7.803 130.279  0.00  0.00    +0.000 C 
ATOM      6  C   UNL     1     -12.981   7.556 131.379  0.00  0.00    +0.000 C 
ENDBRANCH   1   5
BRANCH   1   7
ATOM      7  C   UNL     1     -10.293   7.695 128.752  0.00  0.00    +0.000 C 
BRANCH   7   8
ATOM      8  C   UNL     1     -11.169   8.357 127.699  0.00  0.00    +0.000 C 
BRANCH   8   9
ATOM      9  C   UNL     1     -11.265   7.622 126.384  0.00  0.00    +0.000 C 
ATOM     10  O   UNL     1     -10.756   8.072 125.363  0.00  0.00    +0.000 OA
BRANCH   9  11
ATOM     11  O   UNL     1     -11.921   6.447 126.372  0.00  0.00    +0.000 OA
ATOM     12  H   UNL     1     -11.486   5.674 126.773  0.00  0.00    +0.000 HD
ENDBRANCH   9  11
ENDBRANCH   8   9
ENDBRANCH   7   8
ENDBRANCH   1   7
TORSDOF 6
ENDMDL
MODEL 3
REMARK VINA RESULT:      -4.5      1.554      1.834
REMARK  Name = Vigabatrin
REMARK  6 active torsions:
REMARK  status: ('A' for Active; 'I' for Inactive)
REMARK    1  A    between atoms: N_1  and  C_2
REMARK    2  A    between atoms: C_2  and  C_3
REMARK    3  A    between atoms: C_2  and  C_8
REMARK    4  A    between atoms: C_3  and  C_4
REMARK    5  A    between atoms: C_4  and  C_5
REMARK    6  A    between atoms: C_5  and  O_6
REMARK                            x       y       z     vdW  Elec       q    Type
REMARK                         _______ _______ _______ _____ _____    ______ ____
ROOT
ATOM      1  C   UNL     1     -12.599   8.736 128.678  0.00  0.00    +0.000 C 
ENDROOT
BRANCH   1   2
ATOM      2  N   UNL     1     -12.998  10.026 129.229  0.00  0.00    +0.000 NA
ATOM      3  H   UNL     1     -14.011  10.131 129.177  0.00  0.00    +0.000 HD
ATOM      4  H   UNL     1     -12.611  10.781 128.666  0.00  0.00    +0.000 HD
ENDBRANCH   1   2
BRANCH   1   5
ATOM      5  C   UNL     1     -13.078   7.640 129.591  0.00  0.00    +0.000 C 
ATOM      6  C   UNL     1     -12.789   7.581 130.900  0.00  0.00    +0.000 C 
ENDBRANCH   1   5
BRANCH   1   7
ATOM      7  C   UNL     1     -11.076   8.651 128.513  0.00  0.00    +0.000 C 
BRANCH   7   8
ATOM      8  C   UNL     1     -10.616   7.462 127.682  0.00  0.00    +0.000 C 
BRANCH   8   9
ATOM      9  C   UNL     1     -11.199   7.382 126.292  0.00  0.00    +0.000 C 
ATOM     10  O   UNL     1     -10.764   8.071 125.376  0.00  0.00    +0.000 OA
BRANCH   9  11
ATOM     11  O   UNL     1     -12.210   6.518 126.089  0.00  0.00    +0.000 OA
ATOM     12  H   UNL     1     -12.035   5.723 125.554  0.00  0.00    +0.000 HD
ENDBRANCH   9  11
ENDBRANCH   8   9
ENDBRANCH   7   8
ENDBRANCH   1   7
TORSDOF 6
ENDMDL
MODEL 4
REMARK VINA RESULT:      -4.4      2.853      3.461
REMARK  Name = Vigabatrin
REMARK  6 active torsions:
REMARK  status: ('A' for Active; 'I' for Inactive)
REMARK    1  A    between atoms: N_1  and  C_2
REMARK    2  A    between atoms: C_2  and  C_3
REMARK    3  A    between atoms: C_2  and  C_8
REMARK    4  A    between atoms: C_3  and  C_4
REMARK    5  A    between atoms: C_4  and  C_5
REMARK    6  A    between atoms: C_5  and  O_6
REMARK                            x       y       z     vdW  Elec       q    Type
REMARK                         _______ _______ _______ _____ _____    ______ ____
ROOT
ATOM      1  C   UNL     1     -12.905   8.841 128.836  0.00  0.00    +0.000 C 
ENDROOT
BRANCH   1   2
ATOM      2  N   UNL     1     -11.557   8.941 128.289  0.00  0.00    +0.000 NA
ATOM      3  H   UNL     1     -11.186   9.879 128.440  0.00  0.00    +0.000 HD
ATOM      4  H   UNL     1     -11.579   8.809 127.279  0.00  0.00    +0.000 HD
ENDBRANCH   1   2
BRANCH   1   5
ATOM      5  C   UNL     1     -13.073   9.864 129.927  0.00  0.00    +0.000 C 
ATOM      6  C   UNL     1     -13.612  11.077 129.734  0.00  0.00    +0.000 C 
ENDBRANCH   1   5
BRANCH   1   7
ATOM      7  C   UNL     1     -13.177   7.437 129.391  0.00  0.00    +0.000 C 
BRANCH   7   8
ATOM      8  C   UNL     1     -12.874   7.296 130.876  0.00  0.00    +0.000 C 
BRANCH   8   9
ATOM      9  C   UNL     1     -11.533   6.687 131.206  0.00  0.00    +0.000 C 
ATOM     10  O   UNL     1     -10.524   6.985 130.575  0.00  0.00    +0.000 OA
BRANCH   9  11
ATOM     11  O   UNL     1     -11.479   5.812 132.226  0.00  0.00    +0.000 OA
ATOM     12  H   UNL     1     -10.787   5.127 132.208  0.00  0.00    +0.000 HD
ENDBRANCH   9  11
ENDBRANCH   8   9
ENDBRANCH   7   8
ENDBRANCH   1   7
TORSDOF 6
ENDMDL
MODEL 5
REMARK VINA RESULT:      -4.2     12.112     13.344
REMARK  Name = Vigabatrin
REMARK  6 active torsions:
REMARK  status: ('A' for Active; 'I' for Inactive)
REMARK    1  A    between atoms: N_1  and  C_2
REMARK    2  A    between atoms: C_2  and  C_3
REMARK    3  A    between atoms: C_2  and  C_8
REMARK    4  A    between atoms: C_3  and  C_4
REMARK    5  A    between atoms: C_4  and  C_5
REMARK    6  A    between atoms: C_5  and  O_6
REMARK                            x       y       z     vdW  Elec       q    Type
REMARK                         _______ _______ _______ _____ _____    ______ ____
ROOT
ATOM      1  C   UNL     1      -5.800  -2.703 123.910  0.00  0.00    +0.000 C 
ENDROOT
BRANCH   1   2
ATOM      2  N   UNL     1      -6.132  -1.782 122.830  0.00  0.00    +0.000 NA
ATOM      3  H   UNL     1      -6.274  -2.297 121.962  0.00  0.00    +0.000 HD
ATOM      4  H   UNL     1      -5.352  -1.151 122.656  0.00  0.00    +0.000 HD
ENDBRANCH   1   2
BRANCH   1   5
ATOM      5  C   UNL     1      -4.544  -3.452 123.553  0.00  0.00    +0.000 C 
ATOM      6  C   UNL     1      -4.431  -4.787 123.612  0.00  0.00    +0.000 C 
ENDBRANCH   1   5
BRANCH   1   7
ATOM      7  C   UNL     1      -6.943  -3.694 124.167  0.00  0.00    +0.000 C 
BRANCH   7   8
ATOM      8  C   UNL     1      -8.226  -3.035 124.652  0.00  0.00    +0.000 C 
BRANCH   8   9
ATOM      9  C   UNL     1      -9.249  -2.748 123.580  0.00  0.00    +0.000 C 
ATOM     10  O   UNL     1      -9.165  -1.752 122.868  0.00  0.00    +0.000 OA
BRANCH   9  11
ATOM     11  O   UNL     1     -10.254  -3.628 123.423  0.00  0.00    +0.000 OA
ATOM     12  H   UNL     1     -11.153  -3.349 123.674  0.00  0.00    +0.000 HD
ENDBRANCH   9  11
ENDBRANCH   8   9
ENDBRANCH   7   8
ENDBRANCH   1   7
TORSDOF 6
ENDMDL
MODEL 6
REMARK VINA RESULT:      -4.1      3.298      4.125
REMARK  Name = Vigabatrin
REMARK  6 active torsions:
REMARK  status: ('A' for Active; 'I' for Inactive)
REMARK    1  A    between atoms: N_1  and  C_2
REMARK    2  A    between atoms: C_2  and  C_3
REMARK    3  A    between atoms: C_2  and  C_8
REMARK    4  A    between atoms: C_3  and  C_4
REMARK    5  A    between atoms: C_4  and  C_5
REMARK    6  A    between atoms: C_5  and  O_6
REMARK                            x       y       z     vdW  Elec       q    Type
REMARK                         _______ _______ _______ _____ _____    ______ ____
ROOT
ATOM      1  C   UNL     1     -11.465   7.604 128.964  0.00  0.00    +0.000 C 
ENDROOT
BRANCH   1   2
ATOM      2  N   UNL     1     -12.080   6.303 128.728  0.00  0.00    +0.000 NA
ATOM      3  H   UNL     1     -11.690   5.610 129.367  0.00  0.00    +0.000 HD
ATOM      4  H   UNL     1     -11.856   5.975 127.790  0.00  0.00    +0.000 HD
ENDBRANCH   1   2
BRANCH   1   5
ATOM      5  C   UNL     1     -11.212   8.278 127.642  0.00  0.00    +0.000 C 
ATOM      6  C   UNL     1     -11.032   7.614 126.490  0.00  0.00    +0.000 C 
ENDBRANCH   1   5
BRANCH   1   7
ATOM      7  C   UNL     1     -10.148   7.463 129.738  0.00  0.00    +0.000 C 
BRANCH   7   8
ATOM      8  C   UNL     1     -10.043   6.173 130.539  0.00  0.00    +0.000 C 
BRANCH   8   9
ATOM      9  C   UNL     1     -10.662   6.216 131.915  0.00  0.00    +0.000 C 
ATOM     10  O   UNL     1      -9.984   6.437 132.913  0.00  0.00    +0.000 OA
BRANCH   9  11
ATOM     11  O   UNL     1     -11.989   6.014 132.009  0.00  0.00    +0.000 OA
ATOM     12  H   UNL     1     -12.579   6.583 131.484  0.00  0.00    +0.000 HD
ENDBRANCH   9  11
ENDBRANCH   8   9
ENDBRANCH   7   8
ENDBRANCH   1   7
TORSDOF 6
ENDMDL
MODEL 7
REMARK VINA RESULT:      -4.1      1.819      2.560
REMARK  Name = Vigabatrin
REMARK  6 active torsions:
REMARK  status: ('A' for Active; 'I' for Inactive)
REMARK    1  A    between atoms: N_1  and  C_2
REMARK    2  A    between atoms: C_2  and  C_3
REMARK    3  A    between atoms: C_2  and  C_8
REMARK    4  A    between atoms: C_3  and  C_4
REMARK    5  A    between atoms: C_4  and  C_5
REMARK    6  A    between atoms: C_5  and  O_6
REMARK                            x       y       z     vdW  Elec       q    Type
REMARK                         _______ _______ _______ _____ _____    ______ ____
ROOT
ATOM      1  C   UNL     1     -12.971   7.294 130.178  0.00  0.00    +0.000 C 
ENDROOT
BRANCH   1   2
ATOM      2  N   UNL     1     -12.663   8.711 130.022  0.00  0.00    +0.000 NA
ATOM      3  H   UNL     1     -13.509   9.229 129.785  0.00  0.00    +0.000 HD
ATOM      4  H   UNL     1     -12.025   8.846 129.239  0.00  0.00    +0.000 HD
ENDBRANCH   1   2
BRANCH   1   5
ATOM      5  C   UNL     1     -11.878   6.636 130.977  0.00  0.00    +0.000 C 
ATOM      6  C   UNL     1     -10.571   6.797 130.725  0.00  0.00    +0.000 C 
ENDBRANCH   1   5
BRANCH   1   7
ATOM      7  C   UNL     1     -13.109   6.603 128.815  0.00  0.00    +0.000 C 
BRANCH   7   8
ATOM      8  C   UNL     1     -12.876   7.530 127.631  0.00  0.00    +0.000 C 
BRANCH   8   9
ATOM      9  C   UNL     1     -11.457   7.578 127.119  0.00  0.00    +0.000 C 
ATOM     10  O   UNL     1     -10.654   8.405 127.539  0.00  0.00    +0.000 OA
BRANCH   9  11
ATOM     11  O   UNL     1     -11.097   6.674 126.190  0.00  0.00    +0.000 OA
ATOM     12  H   UNL     1     -11.689   6.537 125.429  0.00  0.00    +0.000 HD
ENDBRANCH   9  11
ENDBRANCH   8   9
ENDBRANCH   7   8
ENDBRANCH   1   7
TORSDOF 6
ENDMDL
MODEL 8
REMARK VINA RESULT:      -4.1      2.743      3.614
REMARK  Name = Vigabatrin
REMARK  6 active torsions:
REMARK  status: ('A' for Active; 'I' for Inactive)
REMARK    1  A    between atoms: N_1  and  C_2
REMARK    2  A    between atoms: C_2  and  C_3
REMARK    3  A    between atoms: C_2  and  C_8
REMARK    4  A    between atoms: C_3  and  C_4
REMARK    5  A    between atoms: C_4  and  C_5
REMARK    6  A    between atoms: C_5  and  O_6
REMARK                            x       y       z     vdW  Elec       q    Type
REMARK                         _______ _______ _______ _____ _____    ______ ____
ROOT
ATOM      1  C   UNL     1     -12.206   8.807 129.282  0.00  0.00    +0.000 C 
ENDROOT
BRANCH   1   2
ATOM      2  N   UNL     1     -13.141   9.646 128.542  0.00  0.00    +0.000 NA
ATOM      3  H   UNL     1     -13.734   9.069 127.946  0.00  0.00    +0.000 HD
ATOM      4  H   UNL     1     -12.633  10.265 127.913  0.00  0.00    +0.000 HD
ENDBRANCH   1   2
BRANCH   1   5
ATOM      5  C   UNL     1     -11.017   8.504 128.411  0.00  0.00    +0.000 C 
ATOM      6  C   UNL     1     -11.112   8.031 127.159  0.00  0.00    +0.000 C 
ENDBRANCH   1   5
BRANCH   1   7
ATOM      7  C   UNL     1     -12.871   7.499 129.731  0.00  0.00    +0.000 C 
BRANCH   7   8
ATOM      8  C   UNL     1     -12.214   6.863 130.947  0.00  0.00    +0.000 C 
BRANCH   8   9
ATOM      9  C   UNL     1     -11.478   5.572 130.682  0.00  0.00    +0.000 C 
ATOM     10  O   UNL     1     -11.414   5.093 129.554  0.00  0.00    +0.000 OA
BRANCH   9  11
ATOM     11  O   UNL     1     -10.883   4.967 131.726  0.00  0.00    +0.000 OA
ATOM     12  H   UNL     1     -10.310   4.200 131.547  0.00  0.00    +0.000 HD
ENDBRANCH   9  11
ENDBRANCH   8   9
ENDBRANCH   7   8
ENDBRANCH   1   7
TORSDOF 6
ENDMDL
MODEL 9
REMARK VINA RESULT:      -4.0      3.643      4.212
REMARK  Name = Vigabatrin
REMARK  6 active torsions:
REMARK  status: ('A' for Active; 'I' for Inactive)
REMARK    1  A    between atoms: N_1  and  C_2
REMARK    2  A    between atoms: C_2  and  C_3
REMARK    3  A    between atoms: C_2  and  C_8
REMARK    4  A    between atoms: C_3  and  C_4
REMARK    5  A    between atoms: C_4  and  C_5
REMARK    6  A    between atoms: C_5  and  O_6
REMARK                            x       y       z     vdW  Elec       q    Type
REMARK                         _______ _______ _______ _____ _____    ______ ____
ROOT
ATOM      1  C   UNL     1     -11.295   7.360 129.146  0.00  0.00    +0.000 C 
ENDROOT
BRANCH   1   2
ATOM      2  N   UNL     1      -9.931   7.875 129.137  0.00  0.00    +0.000 NA
ATOM      3  H   UNL     1      -9.416   7.487 128.347  0.00  0.00    +0.000 HD
ATOM      4  H   UNL     1      -9.436   7.567 129.972  0.00  0.00    +0.000 HD
ENDBRANCH   1   2
BRANCH   1   5
ATOM      5  C   UNL     1     -12.208   8.388 129.757  0.00  0.00    +0.000 C 
ATOM      6  C   UNL     1     -12.816   9.356 129.054  0.00  0.00    +0.000 C 
ENDBRANCH   1   5
BRANCH   1   7
ATOM      7  C   UNL     1     -11.387   6.046 129.934  0.00  0.00    +0.000 C 
BRANCH   7   8
ATOM      8  C   UNL     1     -11.511   6.242 131.438  0.00  0.00    +0.000 C 
BRANCH   8   9
ATOM      9  C   UNL     1     -10.244   6.011 132.226  0.00  0.00    +0.000 C 
ATOM     10  O   UNL     1      -9.224   6.653 131.997  0.00  0.00    +0.000 OA
BRANCH   9  11
ATOM     11  O   UNL     1     -10.274   5.081 133.198  0.00  0.00    +0.000 OA
ATOM     12  H   UNL     1     -11.037   4.477 133.233  0.00  0.00    +0.000 HD
ENDBRANCH   9  11
ENDBRANCH   8   9
ENDBRANCH   7   8
ENDBRANCH   1   7
TORSDOF 6
ENDMDL
