MODEL 1
REMARK VINA RESULT:      -8.6      0.000      0.000
REMARK  Name = Vilazodone
REMARK  8 active torsions:
REMARK  status: ('A' for Active; 'I' for Inactive)
REMARK    1  A    between atoms: C_2  and  C_4
REMARK    2  A    between atoms: C_8  and  N_13
REMARK    3  A    between atoms: N_16  and  C_17
REMARK    4  A    between atoms: C_17  and  C_18
REMARK    5  A    between atoms: C_18  and  C_19
REMARK    6  A    between atoms: C_19  and  C_20
REMARK    7  A    between atoms: C_20  and  C_21
REMARK    8  A    between atoms: C_27  and  C_30
REMARK                            x       y       z     vdW  Elec       q    Type
REMARK                         _______ _______ _______ _____ _____    ______ ____
ROOT
ATOM      1  N   UNL     1      -6.688   1.565 126.495  0.00  0.00    +0.000 N 
ATOM      2  C   UNL     1      -6.007   0.309 126.831  0.00  0.00    +0.000 C 
ATOM      3  C   UNL     1      -5.742   0.270 128.368  0.00  0.00    +0.000 C 
ATOM      4  N   UNL     1      -6.960   0.485 129.199  0.00  0.00    +0.000 NA
ATOM      5  C   UNL     1      -7.567   1.779 128.774  0.00  0.00    +0.000 C 
ATOM      6  C   UNL     1      -7.904   1.840 127.267  0.00  0.00    +0.000 C 
ENDROOT
BRANCH   1  11
ATOM      7  C   UNL     1      -5.912   4.276 121.249  0.00  0.00    +0.000 A 
ATOM      8  C   UNL     1      -6.618   3.183 121.724  0.00  0.00    +0.000 A 
ATOM      9  C   UNL     1      -6.353   3.068 123.113  0.00  0.00    +0.000 A 
ATOM     10  C   UNL     1      -6.743   2.188 124.150  0.00  0.00    +0.000 A 
ATOM     11  C   UNL     1      -6.303   2.397 125.467  0.00  0.00    +0.000 A 
ATOM     12  C   UNL     1      -5.464   3.496 125.715  0.00  0.00    +0.000 A 
ATOM     13  C   UNL     1      -5.051   4.388 124.705  0.00  0.00    +0.000 A 
ATOM     14  C   UNL     1      -5.512   4.131 123.417  0.00  0.00    +0.000 A 
ATOM     15  O   UNL     1      -5.216   4.850 122.288  0.00  0.00    +0.000 OA
BRANCH   7  17
ATOM     16  N   UNL     1      -6.878   4.477 119.046  0.00  0.00    +0.000 N 
ATOM     17  C   UNL     1      -5.895   4.858 119.920  0.00  0.00    +0.000 C 
ATOM     18  O   UNL     1      -5.082   5.707 119.559  0.00  0.00    +0.000 OA
ATOM     19  H   UNL     1      -6.893   4.930 118.140  0.00  0.00    +0.000 HD
ATOM     20  H   UNL     1      -7.635   3.860 119.298  0.00  0.00    +0.000 HD
ENDBRANCH   7  17
ENDBRANCH   1  11
BRANCH   4  21
ATOM     21  C   UNL     1      -7.890  -0.640 129.008  0.00  0.00    +0.000 C 
BRANCH  21  22
ATOM     22  C   UNL     1      -7.267  -1.964 129.427  0.00  0.00    +0.000 C 
BRANCH  22  23
ATOM     23  C   UNL     1      -7.083  -2.865 128.221  0.00  0.00    +0.000 C 
BRANCH  23  24
ATOM     24  C   UNL     1      -8.399  -2.981 127.463  0.00  0.00    +0.000 C 
BRANCH  24  25
ATOM     25  C   UNL     1      -8.323  -2.263 126.163  0.00  0.00    +0.000 A 
ATOM     26  C   UNL     1      -9.172  -1.257 125.753  0.00  0.00    +0.000 A 
ATOM     27  N   UNL     1      -8.798  -0.867 124.498  0.00  0.00    +0.000 N 
ATOM     28  C   UNL     1      -7.712  -1.598 124.078  0.00  0.00    +0.000 A 
ATOM     29  C   UNL     1      -7.396  -2.490 125.102  0.00  0.00    +0.000 A 
ATOM     30  C   UNL     1      -6.311  -3.373 124.922  0.00  0.00    +0.000 A 
ATOM     31  C   UNL     1      -5.567  -3.309 123.736  0.00  0.00    +0.000 A 
ATOM     32  C   UNL     1      -5.906  -2.399 122.731  0.00  0.00    +0.000 A 
ATOM     33  C   UNL     1      -6.993  -1.532 122.880  0.00  0.00    +0.000 A 
ATOM     34  H   UNL     1      -9.246  -0.140 123.959  0.00  0.00    +0.000 HD
BRANCH  31  35
ATOM     35  C   UNL     1      -4.439  -4.179 123.555  0.00  0.00    +0.000 C 
ATOM     36  N   UNL     1      -3.528  -4.878 123.417  0.00  0.00    +0.000 NA
ENDBRANCH  31  35
ENDBRANCH  24  25
ENDBRANCH  23  24
ENDBRANCH  22  23
ENDBRANCH  21  22
ENDBRANCH   4  21
TORSDOF 8
ENDMDL
MODEL 2
REMARK VINA RESULT:      -8.6      1.827      4.635
REMARK  Name = Vilazodone
REMARK  8 active torsions:
REMARK  status: ('A' for Active; 'I' for Inactive)
REMARK    1  A    between atoms: C_2  and  C_4
REMARK    2  A    between atoms: C_8  and  N_13
REMARK    3  A    between atoms: N_16  and  C_17
REMARK    4  A    between atoms: C_17  and  C_18
REMARK    5  A    between atoms: C_18  and  C_19
REMARK    6  A    between atoms: C_19  and  C_20
REMARK    7  A    between atoms: C_20  and  C_21
REMARK    8  A    between atoms: C_27  and  C_30
REMARK                            x       y       z     vdW  Elec       q    Type
REMARK                         _______ _______ _______ _____ _____    ______ ____
ROOT
ATOM      1  N   UNL     1      -7.630  -0.013 124.797  0.00  0.00    +0.000 N 
ATOM      2  C   UNL     1      -8.988  -0.480 124.495  0.00  0.00    +0.000 C 
ATOM      3  C   UNL     1      -8.930  -1.984 124.087  0.00  0.00    +0.000 C 
ATOM      4  N   UNL     1      -8.247  -2.857 125.084  0.00  0.00    +0.000 NA
ATOM      5  C   UNL     1      -6.887  -2.292 125.314  0.00  0.00    +0.000 C 
ATOM      6  C   UNL     1      -6.898  -0.819 125.780  0.00  0.00    +0.000 C 
ENDROOT
BRANCH   1  11
ATOM      7  C   UNL     1      -5.562   4.353 121.315  0.00  0.00    +0.000 A 
ATOM      8  C   UNL     1      -6.120   3.099 121.134  0.00  0.00    +0.000 A 
ATOM      9  C   UNL     1      -6.387   2.555 122.417  0.00  0.00    +0.000 A 
ATOM     10  C   UNL     1      -6.927   1.345 122.913  0.00  0.00    +0.000 A 
ATOM     11  C   UNL     1      -7.086   1.148 124.294  0.00  0.00    +0.000 A 
ATOM     12  C   UNL     1      -6.687   2.181 125.159  0.00  0.00    +0.000 A 
ATOM     13  C   UNL     1      -6.140   3.396 124.699  0.00  0.00    +0.000 A 
ATOM     14  C   UNL     1      -6.000   3.537 123.321  0.00  0.00    +0.000 A 
ATOM     15  O   UNL     1      -5.470   4.617 122.662  0.00  0.00    +0.000 OA
BRANCH   7  17
ATOM     16  N   UNL     1      -5.698   5.225 119.068  0.00  0.00    +0.000 N 
ATOM     17  C   UNL     1      -5.174   5.343 120.328  0.00  0.00    +0.000 C 
ATOM     18  O   UNL     1      -4.446   6.303 120.575  0.00  0.00    +0.000 OA
ATOM     19  H   UNL     1      -5.469   5.952 118.401  0.00  0.00    +0.000 HD
ATOM     20  H   UNL     1      -6.376   4.523 118.814  0.00  0.00    +0.000 HD
ENDBRANCH   7  17
ENDBRANCH   1  11
BRANCH   4  21
ATOM     21  C   UNL     1      -9.037  -2.895 126.326  0.00  0.00    +0.000 C 
BRANCH  21  22
ATOM     22  C   UNL     1      -8.401  -3.800 127.372  0.00  0.00    +0.000 C 
BRANCH  22  23
ATOM     23  C   UNL     1      -8.746  -3.316 128.767  0.00  0.00    +0.000 C 
BRANCH  23  24
ATOM     24  C   UNL     1      -7.532  -3.463 129.675  0.00  0.00    +0.000 C 
BRANCH  24  25
ATOM     25  C   UNL     1      -6.481  -2.477 129.312  0.00  0.00    +0.000 A 
ATOM     26  C   UNL     1      -5.168  -2.779 129.016  0.00  0.00    +0.000 A 
ATOM     27  N   UNL     1      -4.509  -1.611 128.756  0.00  0.00    +0.000 N 
ATOM     28  C   UNL     1      -5.369  -0.544 128.872  0.00  0.00    +0.000 A 
ATOM     29  C   UNL     1      -6.615  -1.059 129.229  0.00  0.00    +0.000 A 
ATOM     30  C   UNL     1      -7.689  -0.165 129.420  0.00  0.00    +0.000 A 
ATOM     31  C   UNL     1      -7.481   1.207 129.220  0.00  0.00    +0.000 A 
ATOM     32  C   UNL     1      -6.221   1.689 128.857  0.00  0.00    +0.000 A 
ATOM     33  C   UNL     1      -5.137   0.822 128.685  0.00  0.00    +0.000 A 
ATOM     34  H   UNL     1      -3.533  -1.538 128.505  0.00  0.00    +0.000 HD
BRANCH  31  35
ATOM     35  C   UNL     1      -8.574   2.123 129.379  0.00  0.00    +0.000 C 
ATOM     36  N   UNL     1      -9.460   2.856 129.503  0.00  0.00    +0.000 NA
ENDBRANCH  31  35
ENDBRANCH  24  25
ENDBRANCH  23  24
ENDBRANCH  22  23
ENDBRANCH  21  22
ENDBRANCH   4  21
TORSDOF 8
ENDMDL
MODEL 3
REMARK VINA RESULT:      -8.3      5.011      8.968
REMARK  Name = Vilazodone
REMARK  8 active torsions:
REMARK  status: ('A' for Active; 'I' for Inactive)
REMARK    1  A    between atoms: C_2  and  C_4
REMARK    2  A    between atoms: C_8  and  N_13
REMARK    3  A    between atoms: N_16  and  C_17
REMARK    4  A    between atoms: C_17  and  C_18
REMARK    5  A    between atoms: C_18  and  C_19
REMARK    6  A    between atoms: C_19  and  C_20
REMARK    7  A    between atoms: C_20  and  C_21
REMARK    8  A    between atoms: C_27  and  C_30
REMARK                            x       y       z     vdW  Elec       q    Type
REMARK                         _______ _______ _______ _____ _____    ______ ____
ROOT
ATOM      1  N   UNL     1      -7.737   1.771 129.767  0.00  0.00    +0.000 N 
ATOM      2  C   UNL     1      -8.165   1.314 131.095  0.00  0.00    +0.000 C 
ATOM      3  C   UNL     1      -6.949   1.374 132.070  0.00  0.00    +0.000 C 
ATOM      4  N   UNL     1      -6.282   2.706 132.126  0.00  0.00    +0.000 NA
ATOM      5  C   UNL     1      -5.894   3.069 130.733  0.00  0.00    +0.000 C 
ATOM      6  C   UNL     1      -7.080   3.082 129.742  0.00  0.00    +0.000 C 
ENDROOT
BRANCH   1  11
ATOM      7  C   UNL     1      -8.428  -2.320 125.495  0.00  0.00    +0.000 A 
ATOM      8  C   UNL     1      -7.976  -2.296 126.804  0.00  0.00    +0.000 A 
ATOM      9  C   UNL     1      -8.061  -0.957 127.266  0.00  0.00    +0.000 A 
ATOM     10  C   UNL     1      -7.755  -0.280 128.470  0.00  0.00    +0.000 A 
ATOM     11  C   UNL     1      -8.007   1.096 128.598  0.00  0.00    +0.000 A 
ATOM     12  C   UNL     1      -8.561   1.770 127.497  0.00  0.00    +0.000 A 
ATOM     13  C   UNL     1      -8.872   1.127 126.282  0.00  0.00    +0.000 A 
ATOM     14  C   UNL     1      -8.597  -0.235 126.207  0.00  0.00    +0.000 A 
ATOM     15  O   UNL     1      -8.794  -1.048 125.120  0.00  0.00    +0.000 OA
BRANCH   7  17
ATOM     16  N   UNL     1      -9.755  -3.495 123.855  0.00  0.00    +0.000 N 
ATOM     17  C   UNL     1      -8.606  -3.448 124.599  0.00  0.00    +0.000 C 
ATOM     18  O   UNL     1      -7.762  -4.328 124.437  0.00  0.00    +0.000 OA
ATOM     19  H   UNL     1      -9.845  -4.254 123.191  0.00  0.00    +0.000 HD
ATOM     20  H   UNL     1     -10.449  -2.763 123.861  0.00  0.00    +0.000 HD
ENDBRANCH   7  17
ENDBRANCH   1  11
BRANCH   4  21
ATOM     21  C   UNL     1      -7.206   3.694 132.707  0.00  0.00    +0.000 C 
BRANCH  21  22
ATOM     22  C   UNL     1      -6.548   5.058 132.864  0.00  0.00    +0.000 C 
BRANCH  22  23
ATOM     23  C   UNL     1      -7.592   6.156 132.806  0.00  0.00    +0.000 C 
BRANCH  23  24
ATOM     24  C   UNL     1      -8.108   6.297 131.380  0.00  0.00    +0.000 C 
BRANCH  24  25
ATOM     25  C   UNL     1      -9.593   6.364 131.362  0.00  0.00    +0.000 A 
ATOM     26  C   UNL     1     -10.420   6.108 132.435  0.00  0.00    +0.000 A 
ATOM     27  N   UNL     1     -11.714   6.251 132.022  0.00  0.00    +0.000 N 
ATOM     28  C   UNL     1     -11.752   6.602 130.693  0.00  0.00    +0.000 A 
ATOM     29  C   UNL     1     -10.432   6.674 130.249  0.00  0.00    +0.000 A 
ATOM     30  C   UNL     1     -10.186   7.014 128.903  0.00  0.00    +0.000 A 
ATOM     31  C   UNL     1     -11.270   7.297 128.060  0.00  0.00    +0.000 A 
ATOM     32  C   UNL     1     -12.581   7.222 128.538  0.00  0.00    +0.000 A 
ATOM     33  C   UNL     1     -12.847   6.863 129.863  0.00  0.00    +0.000 A 
ATOM     34  H   UNL     1     -12.527   6.126 132.607  0.00  0.00    +0.000 HD
BRANCH  31  35
ATOM     35  C   UNL     1     -11.031   7.677 126.696  0.00  0.00    +0.000 C 
ATOM     36  N   UNL     1     -10.838   7.974 125.596  0.00  0.00    +0.000 NA
ENDBRANCH  31  35
ENDBRANCH  24  25
ENDBRANCH  23  24
ENDBRANCH  22  23
ENDBRANCH  21  22
ENDBRANCH   4  21
TORSDOF 8
ENDMDL
MODEL 4
REMARK VINA RESULT:      -8.2      7.385      9.906
REMARK  Name = Vilazodone
REMARK  8 active torsions:
REMARK  status: ('A' for Active; 'I' for Inactive)
REMARK    1  A    between atoms: C_2  and  C_4
REMARK    2  A    between atoms: C_8  and  N_13
REMARK    3  A    between atoms: N_16  and  C_17
REMARK    4  A    between atoms: C_17  and  C_18
REMARK    5  A    between atoms: C_18  and  C_19
REMARK    6  A    between atoms: C_19  and  C_20
REMARK    7  A    between atoms: C_20  and  C_21
REMARK    8  A    between atoms: C_27  and  C_30
REMARK                            x       y       z     vdW  Elec       q    Type
REMARK                         _______ _______ _______ _____ _____    ______ ____
ROOT
ATOM      1  N   UNL     1      -7.638   5.696 132.471  0.00  0.00    +0.000 N 
ATOM      2  C   UNL     1      -7.456   4.951 133.722  0.00  0.00    +0.000 C 
ATOM      3  C   UNL     1      -6.543   3.715 133.450  0.00  0.00    +0.000 C 
ATOM      4  N   UNL     1      -5.242   4.053 132.806  0.00  0.00    +0.000 NA
ATOM      5  C   UNL     1      -5.545   4.805 131.555  0.00  0.00    +0.000 C 
ATOM      6  C   UNL     1      -6.398   6.073 131.785  0.00  0.00    +0.000 C 
ENDROOT
BRANCH   1  11
ATOM      7  C   UNL     1     -12.102   8.036 129.298  0.00  0.00    +0.000 A 
ATOM      8  C   UNL     1     -10.726   7.936 129.179  0.00  0.00    +0.000 A 
ATOM      9  C   UNL     1     -10.242   7.247 130.322  0.00  0.00    +0.000 A 
ATOM     10  C   UNL     1      -8.974   6.842 130.800  0.00  0.00    +0.000 A 
ATOM     11  C   UNL     1      -8.860   6.119 131.999  0.00  0.00    +0.000 A 
ATOM     12  C   UNL     1     -10.039   5.823 132.704  0.00  0.00    +0.000 A 
ATOM     13  C   UNL     1     -11.317   6.217 132.260  0.00  0.00    +0.000 A 
ATOM     14  C   UNL     1     -11.371   6.935 131.069  0.00  0.00    +0.000 A 
ATOM     15  O   UNL     1     -12.499   7.436 130.471  0.00  0.00    +0.000 OA
BRANCH   7  17
ATOM     16  N   UNL     1     -13.393   9.913 128.500  0.00  0.00    +0.000 N 
ATOM     17  C   UNL     1     -13.071   8.588 128.370  0.00  0.00    +0.000 C 
ATOM     18  O   UNL     1     -13.575   7.947 127.450  0.00  0.00    +0.000 OA
ATOM     19  H   UNL     1     -14.026  10.305 127.813  0.00  0.00    +0.000 HD
ATOM     20  H   UNL     1     -12.951  10.528 129.167  0.00  0.00    +0.000 HD
ENDBRANCH   7  17
ENDBRANCH   1  11
BRANCH   4  21
ATOM     21  C   UNL     1      -4.427   4.853 133.737  0.00  0.00    +0.000 C 
BRANCH  21  22
ATOM     22  C   UNL     1      -3.124   4.150 134.092  0.00  0.00    +0.000 C 
BRANCH  22  23
ATOM     23  C   UNL     1      -2.307   3.892 132.840  0.00  0.00    +0.000 C 
BRANCH  23  24
ATOM     24  C   UNL     1      -1.375   5.069 132.587  0.00  0.00    +0.000 C 
BRANCH  24  25
ATOM     25  C   UNL     1      -2.064   6.127 131.803  0.00  0.00    +0.000 A 
ATOM     26  C   UNL     1      -2.427   7.369 132.281  0.00  0.00    +0.000 A 
ATOM     27  N   UNL     1      -3.056   8.047 131.275  0.00  0.00    +0.000 N 
ATOM     28  C   UNL     1      -3.108   7.272 130.140  0.00  0.00    +0.000 A 
ATOM     29  C   UNL     1      -2.498   6.055 130.445  0.00  0.00    +0.000 A 
ATOM     30  C   UNL     1      -2.422   5.065 129.445  0.00  0.00    +0.000 A 
ATOM     31  C   UNL     1      -2.934   5.340 128.169  0.00  0.00    +0.000 A 
ATOM     32  C   UNL     1      -3.534   6.572 127.895  0.00  0.00    +0.000 A 
ATOM     33  C   UNL     1      -3.640   7.559 128.879  0.00  0.00    +0.000 A 
ATOM     34  H   UNL     1      -3.421   8.985 131.348  0.00  0.00    +0.000 HD
BRANCH  31  35
ATOM     35  C   UNL     1      -2.833   4.352 127.133  0.00  0.00    +0.000 C 
ATOM     36  N   UNL     1      -2.745   3.559 126.296  0.00  0.00    +0.000 NA
ENDBRANCH  31  35
ENDBRANCH  24  25
ENDBRANCH  23  24
ENDBRANCH  22  23
ENDBRANCH  21  22
ENDBRANCH   4  21
TORSDOF 8
ENDMDL
MODEL 5
REMARK VINA RESULT:      -8.2      4.955      8.498
REMARK  Name = Vilazodone
REMARK  8 active torsions:
REMARK  status: ('A' for Active; 'I' for Inactive)
REMARK    1  A    between atoms: C_2  and  C_4
REMARK    2  A    between atoms: C_8  and  N_13
REMARK    3  A    between atoms: N_16  and  C_17
REMARK    4  A    between atoms: C_17  and  C_18
REMARK    5  A    between atoms: C_18  and  C_19
REMARK    6  A    between atoms: C_19  and  C_20
REMARK    7  A    between atoms: C_20  and  C_21
REMARK    8  A    between atoms: C_27  and  C_30
REMARK                            x       y       z     vdW  Elec       q    Type
REMARK                         _______ _______ _______ _____ _____    ______ ____
ROOT
ATOM      1  N   UNL     1      -6.168   2.997 128.715  0.00  0.00    +0.000 N 
ATOM      2  C   UNL     1      -6.981   2.983 129.937  0.00  0.00    +0.000 C 
ATOM      3  C   UNL     1      -6.037   3.041 131.177  0.00  0.00    +0.000 C 
ATOM      4  N   UNL     1      -5.079   4.183 131.157  0.00  0.00    +0.000 NA
ATOM      5  C   UNL     1      -4.313   4.098 129.881  0.00  0.00    +0.000 C 
ATOM      6  C   UNL     1      -5.206   4.100 128.620  0.00  0.00    +0.000 C 
ENDROOT
BRANCH   1  11
ATOM      7  C   UNL     1      -8.313  -0.334 124.269  0.00  0.00    +0.000 A 
ATOM      8  C   UNL     1      -8.818   0.586 125.172  0.00  0.00    +0.000 A 
ATOM      9  C   UNL     1      -7.746   1.012 126.000  0.00  0.00    +0.000 A 
ATOM     10  C   UNL     1      -7.598   1.903 127.089  0.00  0.00    +0.000 A 
ATOM     11  C   UNL     1      -6.338   2.118 127.669  0.00  0.00    +0.000 A 
ATOM     12  C   UNL     1      -5.240   1.418 127.139  0.00  0.00    +0.000 A 
ATOM     13  C   UNL     1      -5.353   0.519 126.060  0.00  0.00    +0.000 A 
ATOM     14  C   UNL     1      -6.626   0.340 125.527  0.00  0.00    +0.000 A 
ATOM     15  O   UNL     1      -6.967  -0.501 124.498  0.00  0.00    +0.000 OA
BRANCH   7  17
ATOM     16  N   UNL     1      -8.370  -2.121 122.647  0.00  0.00    +0.000 N 
ATOM     17  C   UNL     1      -8.979  -1.013 123.173  0.00  0.00    +0.000 C 
ATOM     18  O   UNL     1     -10.077  -0.678 122.731  0.00  0.00    +0.000 OA
ATOM     19  H   UNL     1      -8.868  -2.622 121.921  0.00  0.00    +0.000 HD
ATOM     20  H   UNL     1      -7.518  -2.513 123.018  0.00  0.00    +0.000 HD
ENDBRANCH   7  17
ENDBRANCH   1  11
BRANCH   4  21
ATOM     21  C   UNL     1      -5.821   5.450 131.262  0.00  0.00    +0.000 C 
BRANCH  21  22
ATOM     22  C   UNL     1      -6.271   5.722 132.690  0.00  0.00    +0.000 C 
BRANCH  22  23
ATOM     23  C   UNL     1      -7.756   6.030 132.725  0.00  0.00    +0.000 C 
BRANCH  23  24
ATOM     24  C   UNL     1      -8.234   6.401 131.328  0.00  0.00    +0.000 C 
BRANCH  24  25
ATOM     25  C   UNL     1      -9.719   6.451 131.276  0.00  0.00    +0.000 A 
ATOM     26  C   UNL     1     -10.567   6.197 132.334  0.00  0.00    +0.000 A 
ATOM     27  N   UNL     1     -11.853   6.320 131.891  0.00  0.00    +0.000 N 
ATOM     28  C   UNL     1     -11.866   6.656 130.557  0.00  0.00    +0.000 A 
ATOM     29  C   UNL     1     -10.537   6.738 130.141  0.00  0.00    +0.000 A 
ATOM     30  C   UNL     1     -10.265   7.066 128.797  0.00  0.00    +0.000 A 
ATOM     31  C   UNL     1     -11.333   7.327 127.928  0.00  0.00    +0.000 A 
ATOM     32  C   UNL     1     -12.653   7.242 128.378  0.00  0.00    +0.000 A 
ATOM     33  C   UNL     1     -12.945   6.895 129.700  0.00  0.00    +0.000 A 
ATOM     34  H   UNL     1     -12.678   6.193 132.459  0.00  0.00    +0.000 HD
BRANCH  31  35
ATOM     35  C   UNL     1     -11.068   7.694 126.565  0.00  0.00    +0.000 C 
ATOM     36  N   UNL     1     -10.863   7.988 125.466  0.00  0.00    +0.000 NA
ENDBRANCH  31  35
ENDBRANCH  24  25
ENDBRANCH  23  24
ENDBRANCH  22  23
ENDBRANCH  21  22
ENDBRANCH   4  21
TORSDOF 8
ENDMDL
MODEL 6
REMARK VINA RESULT:      -8.1      2.843      5.415
REMARK  Name = Vilazodone
REMARK  8 active torsions:
REMARK  status: ('A' for Active; 'I' for Inactive)
REMARK    1  A    between atoms: C_2  and  C_4
REMARK    2  A    between atoms: C_8  and  N_13
REMARK    3  A    between atoms: N_16  and  C_17
REMARK    4  A    between atoms: C_17  and  C_18
REMARK    5  A    between atoms: C_18  and  C_19
REMARK    6  A    between atoms: C_19  and  C_20
REMARK    7  A    between atoms: C_20  and  C_21
REMARK    8  A    between atoms: C_27  and  C_30
REMARK                            x       y       z     vdW  Elec       q    Type
REMARK                         _______ _______ _______ _____ _____    ______ ____
ROOT
ATOM      1  N   UNL     1      -7.388   0.380 124.966  0.00  0.00    +0.000 N 
ATOM      2  C   UNL     1      -8.756  -0.112 124.766  0.00  0.00    +0.000 C 
ATOM      3  C   UNL     1      -8.712  -1.653 124.528  0.00  0.00    +0.000 C 
ATOM      4  N   UNL     1      -7.996  -2.411 125.594  0.00  0.00    +0.000 NA
ATOM      5  C   UNL     1      -6.628  -1.829 125.712  0.00  0.00    +0.000 C 
ATOM      6  C   UNL     1      -6.623  -0.313 126.008  0.00  0.00    +0.000 C 
ENDROOT
BRANCH   1  11
ATOM      7  C   UNL     1      -5.726   4.466 120.965  0.00  0.00    +0.000 A 
ATOM      8  C   UNL     1      -6.420   3.268 120.953  0.00  0.00    +0.000 A 
ATOM      9  C   UNL     1      -6.455   2.775 122.283  0.00  0.00    +0.000 A 
ATOM     10  C   UNL     1      -6.984   1.632 122.927  0.00  0.00    +0.000 A 
ATOM     11  C   UNL     1      -6.862   1.475 124.317  0.00  0.00    +0.000 A 
ATOM     12  C   UNL     1      -6.196   2.480 125.038  0.00  0.00    +0.000 A 
ATOM     13  C   UNL     1      -5.653   3.628 124.428  0.00  0.00    +0.000 A 
ATOM     14  C   UNL     1      -5.797   3.731 123.047  0.00  0.00    +0.000 A 
ATOM     15  O   UNL     1      -5.325   4.743 122.252  0.00  0.00    +0.000 OA
BRANCH   7  17
ATOM     16  N   UNL     1      -6.074   5.152 118.677  0.00  0.00    +0.000 N 
ATOM     17  C   UNL     1      -5.470   5.396 119.881  0.00  0.00    +0.000 C 
ATOM     18  O   UNL     1      -4.786   6.411 120.002  0.00  0.00    +0.000 OA
ATOM     19  H   UNL     1      -5.937   5.836 117.943  0.00  0.00    +0.000 HD
ATOM     20  H   UNL     1      -6.724   4.396 118.526  0.00  0.00    +0.000 HD
ENDBRANCH   7  17
ENDBRANCH   1  11
BRANCH   4  21
ATOM     21  C   UNL     1      -8.742  -2.304 126.859  0.00  0.00    +0.000 C 
BRANCH  21  22
ATOM     22  C   UNL     1      -9.118  -3.673 127.408  0.00  0.00    +0.000 C 
BRANCH  22  23
ATOM     23  C   UNL     1      -8.197  -4.053 128.551  0.00  0.00    +0.000 C 
BRANCH  23  24
ATOM     24  C   UNL     1      -7.659  -2.792 129.216  0.00  0.00    +0.000 C 
BRANCH  24  25
ATOM     25  C   UNL     1      -6.269  -3.002 129.696  0.00  0.00    +0.000 A 
ATOM     26  C   UNL     1      -5.123  -2.706 128.988  0.00  0.00    +0.000 A 
ATOM     27  N   UNL     1      -4.045  -3.060 129.750  0.00  0.00    +0.000 N 
ATOM     28  C   UNL     1      -4.464  -3.580 130.952  0.00  0.00    +0.000 A 
ATOM     29  C   UNL     1      -5.859  -3.563 130.943  0.00  0.00    +0.000 A 
ATOM     30  C   UNL     1      -6.550  -4.054 132.070  0.00  0.00    +0.000 A 
ATOM     31  C   UNL     1      -5.820  -4.517 133.173  0.00  0.00    +0.000 A 
ATOM     32  C   UNL     1      -4.422  -4.515 133.152  0.00  0.00    +0.000 A 
ATOM     33  C   UNL     1      -3.717  -4.054 132.035  0.00  0.00    +0.000 A 
ATOM     34  H   UNL     1      -3.080  -2.948 129.477  0.00  0.00    +0.000 HD
BRANCH  31  35
ATOM     35  C   UNL     1      -6.512  -4.988 134.338  0.00  0.00    +0.000 C 
ATOM     36  N   UNL     1      -7.066  -5.363 135.282  0.00  0.00    +0.000 NA
ENDBRANCH  31  35
ENDBRANCH  24  25
ENDBRANCH  23  24
ENDBRANCH  22  23
ENDBRANCH  21  22
ENDBRANCH   4  21
TORSDOF 8
ENDMDL
MODEL 7
REMARK VINA RESULT:      -8.1      4.891      8.697
REMARK  Name = Vilazodone
REMARK  8 active torsions:
REMARK  status: ('A' for Active; 'I' for Inactive)
REMARK    1  A    between atoms: C_2  and  C_4
REMARK    2  A    between atoms: C_8  and  N_13
REMARK    3  A    between atoms: N_16  and  C_17
REMARK    4  A    between atoms: C_17  and  C_18
REMARK    5  A    between atoms: C_18  and  C_19
REMARK    6  A    between atoms: C_19  and  C_20
REMARK    7  A    between atoms: C_20  and  C_21
REMARK    8  A    between atoms: C_27  and  C_30
REMARK                            x       y       z     vdW  Elec       q    Type
REMARK                         _______ _______ _______ _____ _____    ______ ____
ROOT
ATOM      1  N   UNL     1      -5.164   4.147 127.546  0.00  0.00    +0.000 N 
ATOM      2  C   UNL     1      -5.370   3.746 128.943  0.00  0.00    +0.000 C 
ATOM      3  C   UNL     1      -3.997   3.761 129.684  0.00  0.00    +0.000 C 
ATOM      4  N   UNL     1      -3.264   5.055 129.576  0.00  0.00    +0.000 NA
ATOM      5  C   UNL     1      -3.115   5.363 128.125  0.00  0.00    +0.000 C 
ATOM      6  C   UNL     1      -4.457   5.418 127.362  0.00  0.00    +0.000 C 
ENDROOT
BRANCH   1  11
ATOM      7  C   UNL     1      -7.837   0.242 123.931  0.00  0.00    +0.000 A 
ATOM      8  C   UNL     1      -7.621   0.370 125.293  0.00  0.00    +0.000 A 
ATOM      9  C   UNL     1      -6.880   1.562 125.503  0.00  0.00    +0.000 A 
ATOM     10  C   UNL     1      -6.346   2.239 126.624  0.00  0.00    +0.000 A 
ATOM     11  C   UNL     1      -5.673   3.461 126.466  0.00  0.00    +0.000 A 
ATOM     12  C   UNL     1      -5.544   3.979 125.166  0.00  0.00    +0.000 A 
ATOM     13  C   UNL     1      -6.058   3.328 124.028  0.00  0.00    +0.000 A 
ATOM     14  C   UNL     1      -6.711   2.118 124.241  0.00  0.00    +0.000 A 
ATOM     15  O   UNL     1      -7.262   1.309 123.280  0.00  0.00    +0.000 OA
BRANCH   7  17
ATOM     16  N   UNL     1      -7.931  -1.885 122.793  0.00  0.00    +0.000 N 
ATOM     17  C   UNL     1      -8.595  -0.761 123.206  0.00  0.00    +0.000 C 
ATOM     18  O   UNL     1      -9.803  -0.678 122.990  0.00  0.00    +0.000 OA
ATOM     19  H   UNL     1      -8.478  -2.606 122.339  0.00  0.00    +0.000 HD
ATOM     20  H   UNL     1      -6.964  -2.070 123.015  0.00  0.00    +0.000 HD
ENDBRANCH   7  17
ENDBRANCH   1  11
BRANCH   4  21
ATOM     21  C   UNL     1      -4.018   6.106 130.280  0.00  0.00    +0.000 C 
BRANCH  21  22
ATOM     22  C   UNL     1      -3.876   5.986 131.791  0.00  0.00    +0.000 C 
BRANCH  22  23
ATOM     23  C   UNL     1      -5.221   6.188 132.463  0.00  0.00    +0.000 C 
BRANCH  23  24
ATOM     24  C   UNL     1      -6.287   6.447 131.408  0.00  0.00    +0.000 C 
BRANCH  24  25
ATOM     25  C   UNL     1      -7.647   6.245 131.973  0.00  0.00    +0.000 A 
ATOM     26  C   UNL     1      -7.929   5.681 133.200  0.00  0.00    +0.000 A 
ATOM     27  N   UNL     1      -9.286   5.647 133.353  0.00  0.00    +0.000 N 
ATOM     28  C   UNL     1      -9.902   6.185 132.248  0.00  0.00    +0.000 A 
ATOM     29  C   UNL     1      -8.896   6.563 131.359  0.00  0.00    +0.000 A 
ATOM     30  C   UNL     1      -9.261   7.144 130.127  0.00  0.00    +0.000 A 
ATOM     31  C   UNL     1     -10.618   7.350 129.845  0.00  0.00    +0.000 A 
ATOM     32  C   UNL     1     -11.602   6.965 130.759  0.00  0.00    +0.000 A 
ATOM     33  C   UNL     1     -11.263   6.366 131.976  0.00  0.00    +0.000 A 
ATOM     34  H   UNL     1      -9.770   5.288 134.164  0.00  0.00    +0.000 HD
BRANCH  31  35
ATOM     35  C   UNL     1     -11.001   7.971 128.608  0.00  0.00    +0.000 C 
ATOM     36  N   UNL     1     -11.315   8.477 127.616  0.00  0.00    +0.000 NA
ENDBRANCH  31  35
ENDBRANCH  24  25
ENDBRANCH  23  24
ENDBRANCH  22  23
ENDBRANCH  21  22
ENDBRANCH   4  21
TORSDOF 8
ENDMDL
MODEL 8
REMARK VINA RESULT:      -8.0      3.866      7.191
REMARK  Name = Vilazodone
REMARK  8 active torsions:
REMARK  status: ('A' for Active; 'I' for Inactive)
REMARK    1  A    between atoms: C_2  and  C_4
REMARK    2  A    between atoms: C_8  and  N_13
REMARK    3  A    between atoms: N_16  and  C_17
REMARK    4  A    between atoms: C_17  and  C_18
REMARK    5  A    between atoms: C_18  and  C_19
REMARK    6  A    between atoms: C_19  and  C_20
REMARK    7  A    between atoms: C_20  and  C_21
REMARK    8  A    between atoms: C_27  and  C_30
REMARK                            x       y       z     vdW  Elec       q    Type
REMARK                         _______ _______ _______ _____ _____    ______ ____
ROOT
ATOM      1  N   UNL     1      -7.677  -0.401 128.825  0.00  0.00    +0.000 N 
ATOM      2  C   UNL     1      -7.171  -1.741 129.145  0.00  0.00    +0.000 C 
ATOM      3  C   UNL     1      -7.816  -2.773 128.169  0.00  0.00    +0.000 C 
ATOM      4  N   UNL     1      -7.638  -2.438 126.728  0.00  0.00    +0.000 NA
ATOM      5  C   UNL     1      -8.181  -1.065 126.519  0.00  0.00    +0.000 C 
ATOM      6  C   UNL     1      -7.527   0.003 127.423  0.00  0.00    +0.000 C 
ENDROOT
BRANCH   1  11
ATOM      7  C   UNL     1      -9.552   4.404 131.802  0.00  0.00    +0.000 A 
ATOM      8  C   UNL     1      -9.026   4.137 130.549  0.00  0.00    +0.000 A 
ATOM      9  C   UNL     1      -8.772   2.743 130.476  0.00  0.00    +0.000 A 
ATOM     10  C   UNL     1      -8.245   1.859 129.505  0.00  0.00    +0.000 A 
ATOM     11  C   UNL     1      -8.166   0.480 129.763  0.00  0.00    +0.000 A 
ATOM     12  C   UNL     1      -8.618   0.016 131.010  0.00  0.00    +0.000 A 
ATOM     13  C   UNL     1      -9.142   0.870 132.001  0.00  0.00    +0.000 A 
ATOM     14  C   UNL     1      -9.193   2.227 131.695  0.00  0.00    +0.000 A 
ATOM     15  O   UNL     1      -9.638   3.231 132.516  0.00  0.00    +0.000 OA
BRANCH   7  17
ATOM     16  N   UNL     1     -11.356   5.969 132.152  0.00  0.00    +0.000 N 
ATOM     17  C   UNL     1     -10.038   5.656 132.352  0.00  0.00    +0.000 C 
ATOM     18  O   UNL     1      -9.348   6.418 133.026  0.00  0.00    +0.000 OA
ATOM     19  H   UNL     1     -11.702   6.816 132.588  0.00  0.00    +0.000 HD
ATOM     20  H   UNL     1     -12.009   5.352 131.693  0.00  0.00    +0.000 HD
ENDBRANCH   7  17
ENDBRANCH   1  11
BRANCH   4  21
ATOM     21  C   UNL     1      -6.210  -2.517 126.377  0.00  0.00    +0.000 C 
BRANCH  21  22
ATOM     22  C   UNL     1      -6.005  -3.056 124.968  0.00  0.00    +0.000 C 
BRANCH  22  23
ATOM     23  C   UNL     1      -5.430  -1.976 124.071  0.00  0.00    +0.000 C 
BRANCH  23  24
ATOM     24  C   UNL     1      -6.202  -1.938 122.759  0.00  0.00    +0.000 C 
BRANCH  24  25
ATOM     25  C   UNL     1      -7.484  -1.203 122.924  0.00  0.00    +0.000 A 
ATOM     26  C   UNL     1      -8.741  -1.772 122.912  0.00  0.00    +0.000 A 
ATOM     27  N   UNL     1      -9.663  -0.776 123.070  0.00  0.00    +0.000 N 
ATOM     28  C   UNL     1      -9.032   0.440 123.191  0.00  0.00    +0.000 A 
ATOM     29  C   UNL     1      -7.661   0.203 123.095  0.00  0.00    +0.000 A 
ATOM     30  C   UNL     1      -6.775   1.297 123.182  0.00  0.00    +0.000 A 
ATOM     31  C   UNL     1      -7.295   2.582 123.391  0.00  0.00    +0.000 A 
ATOM     32  C   UNL     1      -8.674   2.784 123.488  0.00  0.00    +0.000 A 
ATOM     33  C   UNL     1      -9.570   1.717 123.381  0.00  0.00    +0.000 A 
ATOM     34  H   UNL     1     -10.663  -0.911 123.103  0.00  0.00    +0.000 HD
BRANCH  31  35
ATOM     35  C   UNL     1      -6.401   3.699 123.515  0.00  0.00    +0.000 C 
ATOM     36  N   UNL     1      -5.681   4.597 123.622  0.00  0.00    +0.000 NA
ENDBRANCH  31  35
ENDBRANCH  24  25
ENDBRANCH  23  24
ENDBRANCH  22  23
ENDBRANCH  21  22
ENDBRANCH   4  21
TORSDOF 8
ENDMDL
MODEL 9
REMARK VINA RESULT:      -8.0      4.218      7.537
REMARK  Name = Vilazodone
REMARK  8 active torsions:
REMARK  status: ('A' for Active; 'I' for Inactive)
REMARK    1  A    between atoms: C_2  and  C_4
REMARK    2  A    between atoms: C_8  and  N_13
REMARK    3  A    between atoms: N_16  and  C_17
REMARK    4  A    between atoms: C_17  and  C_18
REMARK    5  A    between atoms: C_18  and  C_19
REMARK    6  A    between atoms: C_19  and  C_20
REMARK    7  A    between atoms: C_20  and  C_21
REMARK    8  A    between atoms: C_27  and  C_30
REMARK                            x       y       z     vdW  Elec       q    Type
REMARK                         _______ _______ _______ _____ _____    ______ ____
ROOT
ATOM      1  N   UNL     1      -7.416   2.471 126.401  0.00  0.00    +0.000 N 
ATOM      2  C   UNL     1      -7.723   1.181 127.030  0.00  0.00    +0.000 C 
ATOM      3  C   UNL     1      -6.518   0.749 127.920  0.00  0.00    +0.000 C 
ATOM      4  N   UNL     1      -6.105   1.774 128.921  0.00  0.00    +0.000 NA
ATOM      5  C   UNL     1      -5.821   3.035 128.176  0.00  0.00    +0.000 C 
ATOM      6  C   UNL     1      -7.011   3.534 127.327  0.00  0.00    +0.000 C 
ENDROOT
BRANCH   1  11
ATOM      7  C   UNL     1      -6.756   4.127 120.719  0.00  0.00    +0.000 A 
ATOM      8  C   UNL     1      -5.995   4.168 121.875  0.00  0.00    +0.000 A 
ATOM      9  C   UNL     1      -6.769   3.604 122.922  0.00  0.00    +0.000 A 
ATOM     10  C   UNL     1      -6.584   3.366 124.304  0.00  0.00    +0.000 A 
ATOM     11  C   UNL     1      -7.584   2.732 125.059  0.00  0.00    +0.000 A 
ATOM     12  C   UNL     1      -8.767   2.353 124.402  0.00  0.00    +0.000 A 
ATOM     13  C   UNL     1      -8.985   2.581 123.029  0.00  0.00    +0.000 A 
ATOM     14  C   UNL     1      -7.964   3.217 122.329  0.00  0.00    +0.000 A 
ATOM     15  O   UNL     1      -7.976   3.558 121.001  0.00  0.00    +0.000 OA
BRANCH   7  17
ATOM     16  N   UNL     1      -7.276   4.193 118.362  0.00  0.00    +0.000 N 
ATOM     17  C   UNL     1      -6.402   4.516 119.366  0.00  0.00    +0.000 C 
ATOM     18  O   UNL     1      -5.393   5.160 119.084  0.00  0.00    +0.000 OA
ATOM     19  H   UNL     1      -7.051   4.518 117.430  0.00  0.00    +0.000 HD
ATOM     20  H   UNL     1      -8.168   3.752 118.525  0.00  0.00    +0.000 HD
ENDBRANCH   7  17
ENDBRANCH   1  11
BRANCH   4  21
ATOM     21  C   UNL     1      -7.181   1.957 129.909  0.00  0.00    +0.000 C 
BRANCH  21  22
ATOM     22  C   UNL     1      -7.004   3.244 130.703  0.00  0.00    +0.000 C 
BRANCH  22  23
ATOM     23  C   UNL     1      -8.352   3.777 131.149  0.00  0.00    +0.000 C 
BRANCH  23  24
ATOM     24  C   UNL     1      -8.316   5.299 131.176  0.00  0.00    +0.000 C 
BRANCH  24  25
ATOM     25  C   UNL     1      -9.690   5.856 131.290  0.00  0.00    +0.000 A 
ATOM     26  C   UNL     1     -10.458   5.863 132.435  0.00  0.00    +0.000 A 
ATOM     27  N   UNL     1     -11.662   6.437 132.139  0.00  0.00    +0.000 N 
ATOM     28  C   UNL     1     -11.696   6.813 130.816  0.00  0.00    +0.000 A 
ATOM     29  C   UNL     1     -10.471   6.453 130.255  0.00  0.00    +0.000 A 
ATOM     30  C   UNL     1     -10.244   6.725 128.890  0.00  0.00    +0.000 A 
ATOM     31  C   UNL     1     -11.240   7.371 128.147  0.00  0.00    +0.000 A 
ATOM     32  C   UNL     1     -12.455   7.724 128.741  0.00  0.00    +0.000 A 
ATOM     33  C   UNL     1     -12.710   7.442 130.086  0.00  0.00    +0.000 A 
ATOM     34  H   UNL     1     -12.417   6.575 132.795  0.00  0.00    +0.000 HD
BRANCH  31  35
ATOM     35  C   UNL     1     -11.008   7.683 126.765  0.00  0.00    +0.000 C 
ATOM     36  N   UNL     1     -10.822   7.942 125.653  0.00  0.00    +0.000 NA
ENDBRANCH  31  35
ENDBRANCH  24  25
ENDBRANCH  23  24
ENDBRANCH  22  23
ENDBRANCH  21  22
ENDBRANCH   4  21
TORSDOF 8
ENDMDL
