MODEL 1
REMARK VINA RESULT:      -7.4      0.000      0.000
REMARK  Name = Vildagliptin
REMARK  5 active torsions:
REMARK  status: ('A' for Active; 'I' for Inactive)
REMARK    1  A    between atoms: O_1  and  C_2
REMARK    2  A    between atoms: C_9  and  N_12
REMARK    3  A    between atoms: N_12  and  C_13
REMARK    4  A    between atoms: C_13  and  C_14
REMARK    5  A    between atoms: C_20  and  C_21
REMARK                            x       y       z     vdW  Elec       q    Type
REMARK                         _______ _______ _______ _____ _____    ______ ____
ROOT
ATOM      1  C   UNL     1      -8.450   5.230 133.652  0.00  0.00    +0.000 C 
ATOM      2  C   UNL     1      -9.163   3.955 134.133  0.00  0.00    +0.000 C 
ATOM      3  C   UNL     1      -8.884   2.796 133.164  0.00  0.00    +0.000 C 
ATOM      4  C   UNL     1      -7.372   2.557 133.069  0.00  0.00    +0.000 C 
ATOM      5  C   UNL     1      -6.667   3.830 132.569  0.00  0.00    +0.000 C 
ATOM      6  C   UNL     1      -6.941   4.977 133.554  0.00  0.00    +0.000 C 
ATOM      7  C   UNL     1      -7.222   4.209 131.178  0.00  0.00    +0.000 C 
ATOM      8  C   UNL     1      -8.755   4.465 131.259  0.00  0.00    +0.000 C 
ATOM      9  C   UNL     1      -9.421   3.166 131.777  0.00  0.00    +0.000 C 
ATOM     10  C   UNL     1      -8.985   5.610 132.273  0.00  0.00    +0.000 C 
ENDROOT
BRANCH   1  11
ATOM     11  O   UNL     1      -8.712   6.302 134.546  0.00  0.00    +0.000 OA
ATOM     12  H   UNL     1      -7.899   6.826 134.635  0.00  0.00    +0.000 HD
ENDBRANCH   1  11
BRANCH   8  13
ATOM     13  N   UNL     1      -9.265   4.846 129.934  0.00  0.00    +0.000 NA
ATOM     14  H   UNL     1      -9.700   4.043 129.471  0.00  0.00    +0.000 HD
BRANCH  13  15
ATOM     15  C   UNL     1     -10.241   5.954 129.979  0.00  0.00    +0.000 C 
BRANCH  15  16
ATOM     16  C   UNL     1     -10.427   6.621 128.614  0.00  0.00    +0.000 C 
ATOM     17  O   UNL     1      -9.698   6.380 127.652  0.00  0.00    +0.000 OA
ATOM     18  N   UNL     1     -11.614   7.320 128.466  0.00  0.00    +0.000 N 
ATOM     19  C   UNL     1     -12.386   7.158 127.253  0.00  0.00    +0.000 C 
ATOM     20  C   UNL     1     -13.734   7.769 127.595  0.00  0.00    +0.000 C 
ATOM     21  C   UNL     1     -13.356   8.927 128.517  0.00  0.00    +0.000 C 
ATOM     22  C   UNL     1     -12.205   8.336 129.359  0.00  0.00    +0.000 C 
BRANCH  22  23
ATOM     23  C   UNL     1     -12.731   7.771 130.618  0.00  0.00    +0.000 C 
ATOM     24  N   UNL     1     -13.123   7.320 131.609  0.00  0.00    +0.000 NA
ENDBRANCH  22  23
ENDBRANCH  15  16
ENDBRANCH  13  15
ENDBRANCH   8  13
TORSDOF 5
ENDMDL
MODEL 2
REMARK VINA RESULT:      -7.4      8.502     10.042
REMARK  Name = Vildagliptin
REMARK  5 active torsions:
REMARK  status: ('A' for Active; 'I' for Inactive)
REMARK    1  A    between atoms: O_1  and  C_2
REMARK    2  A    between atoms: C_9  and  N_12
REMARK    3  A    between atoms: N_12  and  C_13
REMARK    4  A    between atoms: C_13  and  C_14
REMARK    5  A    between atoms: C_20  and  C_21
REMARK                            x       y       z     vdW  Elec       q    Type
REMARK                         _______ _______ _______ _____ _____    ______ ____
ROOT
ATOM      1  C   UNL     1      -8.666  -2.775 123.874  0.00  0.00    +0.000 C 
ATOM      2  C   UNL     1      -8.084  -2.262 122.546  0.00  0.00    +0.000 C 
ATOM      3  C   UNL     1      -6.675  -1.692 122.771  0.00  0.00    +0.000 C 
ATOM      4  C   UNL     1      -5.769  -2.779 123.365  0.00  0.00    +0.000 C 
ATOM      5  C   UNL     1      -6.347  -3.274 124.702  0.00  0.00    +0.000 C 
ATOM      6  C   UNL     1      -7.749  -3.853 124.462  0.00  0.00    +0.000 C 
ATOM      7  C   UNL     1      -6.448  -2.086 125.686  0.00  0.00    +0.000 C 
ATOM      8  C   UNL     1      -7.373  -0.979 125.102  0.00  0.00    +0.000 C 
ATOM      9  C   UNL     1      -6.762  -0.520 123.754  0.00  0.00    +0.000 C 
ATOM     10  C   UNL     1      -8.763  -1.610 124.858  0.00  0.00    +0.000 C 
ENDROOT
BRANCH   1  11
ATOM     11  O   UNL     1      -9.970  -3.296 123.666  0.00  0.00    +0.000 OA
ATOM     12  H   UNL     1      -9.943  -3.878 122.889  0.00  0.00    +0.000 HD
ENDBRANCH   1  11
BRANCH   8  13
ATOM     13  N   UNL     1      -7.477   0.135 126.057  0.00  0.00    +0.000 NA
ATOM     14  H   UNL     1      -6.554   0.528 126.253  0.00  0.00    +0.000 HD
BRANCH  13  15
ATOM     15  C   UNL     1      -8.368   1.219 125.595  0.00  0.00    +0.000 C 
BRANCH  15  16
ATOM     16  C   UNL     1      -7.592   2.470 125.177  0.00  0.00    +0.000 C 
ATOM     17  O   UNL     1      -6.786   3.031 125.919  0.00  0.00    +0.000 OA
ATOM     18  N   UNL     1      -7.672   2.781 123.829  0.00  0.00    +0.000 N 
ATOM     19  C   UNL     1      -6.469   3.147 123.113  0.00  0.00    +0.000 C 
ATOM     20  C   UNL     1      -6.877   3.065 121.652  0.00  0.00    +0.000 C 
ATOM     21  C   UNL     1      -8.331   3.531 121.679  0.00  0.00    +0.000 C 
ATOM     22  C   UNL     1      -8.872   2.896 122.978  0.00  0.00    +0.000 C 
BRANCH  22  23
ATOM     23  C   UNL     1      -9.507   1.595 122.684  0.00  0.00    +0.000 C 
ATOM     24  N   UNL     1     -10.024   0.586 122.455  0.00  0.00    +0.000 NA
ENDBRANCH  22  23
ENDBRANCH  15  16
ENDBRANCH  13  15
ENDBRANCH   8  13
TORSDOF 5
ENDMDL
MODEL 3
REMARK VINA RESULT:      -7.3      1.498      6.985
REMARK  Name = Vildagliptin
REMARK  5 active torsions:
REMARK  status: ('A' for Active; 'I' for Inactive)
REMARK    1  A    between atoms: O_1  and  C_2
REMARK    2  A    between atoms: C_9  and  N_12
REMARK    3  A    between atoms: N_12  and  C_13
REMARK    4  A    between atoms: C_13  and  C_14
REMARK    5  A    between atoms: C_20  and  C_21
REMARK                            x       y       z     vdW  Elec       q    Type
REMARK                         _______ _______ _______ _____ _____    ______ ____
ROOT
ATOM      1  C   UNL     1     -11.014   7.144 127.406  0.00  0.00    +0.000 C 
ATOM      2  C   UNL     1     -12.410   6.999 126.778  0.00  0.00    +0.000 C 
ATOM      3  C   UNL     1     -13.491   7.408 127.790  0.00  0.00    +0.000 C 
ATOM      4  C   UNL     1     -13.255   8.857 128.238  0.00  0.00    +0.000 C 
ATOM      5  C   UNL     1     -11.864   8.990 128.882  0.00  0.00    +0.000 C 
ATOM      6  C   UNL     1     -10.793   8.592 127.856  0.00  0.00    +0.000 C 
ATOM      7  C   UNL     1     -11.776   8.047 130.104  0.00  0.00    +0.000 C 
ATOM      8  C   UNL     1     -12.002   6.572 129.665  0.00  0.00    +0.000 C 
ATOM      9  C   UNL     1     -13.404   6.486 129.011  0.00  0.00    +0.000 C 
ATOM     10  C   UNL     1     -10.917   6.221 128.621  0.00  0.00    +0.000 C 
ENDROOT
BRANCH   1  11
ATOM     11  O   UNL     1     -10.016   6.760 126.472  0.00  0.00    +0.000 OA
ATOM     12  H   UNL     1      -9.645   7.567 126.079  0.00  0.00    +0.000 HD
ENDBRANCH   1  11
BRANCH   8  13
ATOM     13  N   UNL     1     -11.894   5.684 130.832  0.00  0.00    +0.000 NA
ATOM     14  H   UNL     1     -12.651   4.997 130.835  0.00  0.00    +0.000 HD
BRANCH  13  15
ATOM     15  C   UNL     1     -10.603   4.969 130.905  0.00  0.00    +0.000 C 
BRANCH  15  16
ATOM     16  C   UNL     1      -9.750   5.425 132.090  0.00  0.00    +0.000 C 
ATOM     17  O   UNL     1     -10.049   6.393 132.790  0.00  0.00    +0.000 OA
ATOM     18  N   UNL     1      -8.761   4.534 132.472  0.00  0.00    +0.000 N 
ATOM     19  C   UNL     1      -8.574   4.241 133.877  0.00  0.00    +0.000 C 
ATOM     20  C   UNL     1      -7.687   3.007 133.875  0.00  0.00    +0.000 C 
ATOM     21  C   UNL     1      -6.784   3.240 132.666  0.00  0.00    +0.000 C 
ATOM     22  C   UNL     1      -7.745   3.867 131.634  0.00  0.00    +0.000 C 
BRANCH  22  23
ATOM     23  C   UNL     1      -8.307   2.821 130.757  0.00  0.00    +0.000 C 
ATOM     24  N   UNL     1      -8.730   2.002 130.056  0.00  0.00    +0.000 NA
ENDBRANCH  22  23
ENDBRANCH  15  16
ENDBRANCH  13  15
ENDBRANCH   8  13
TORSDOF 5
ENDMDL
MODEL 4
REMARK VINA RESULT:      -7.3      1.546      2.027
REMARK  Name = Vildagliptin
REMARK  5 active torsions:
REMARK  status: ('A' for Active; 'I' for Inactive)
REMARK    1  A    between atoms: O_1  and  C_2
REMARK    2  A    between atoms: C_9  and  N_12
REMARK    3  A    between atoms: N_12  and  C_13
REMARK    4  A    between atoms: C_13  and  C_14
REMARK    5  A    between atoms: C_20  and  C_21
REMARK                            x       y       z     vdW  Elec       q    Type
REMARK                         _______ _______ _______ _____ _____    ______ ____
ROOT
ATOM      1  C   UNL     1      -7.494   3.152 131.864  0.00  0.00    +0.000 C 
ATOM      2  C   UNL     1      -8.151   2.128 132.804  0.00  0.00    +0.000 C 
ATOM      3  C   UNL     1      -9.222   1.327 132.047  0.00  0.00    +0.000 C 
ATOM      4  C   UNL     1      -8.582   0.617 130.848  0.00  0.00    +0.000 C 
ATOM      5  C   UNL     1      -7.944   1.649 129.902  0.00  0.00    +0.000 C 
ATOM      6  C   UNL     1      -6.865   2.432 130.666  0.00  0.00    +0.000 C 
ATOM      7  C   UNL     1      -9.031   2.629 129.407  0.00  0.00    +0.000 C 
ATOM      8  C   UNL     1      -9.683   3.366 130.612  0.00  0.00    +0.000 C 
ATOM      9  C   UNL     1     -10.301   2.292 131.541  0.00  0.00    +0.000 C 
ATOM     10  C   UNL     1      -8.562   4.123 131.361  0.00  0.00    +0.000 C 
ENDROOT
BRANCH   1  11
ATOM     11  O   UNL     1      -6.508   3.896 132.565  0.00  0.00    +0.000 OA
ATOM     12  H   UNL     1      -5.682   3.385 132.556  0.00  0.00    +0.000 HD
ENDBRANCH   1  11
BRANCH   8  13
ATOM     13  N   UNL     1     -10.699   4.311 130.124  0.00  0.00    +0.000 NA
ATOM     14  H   UNL     1     -11.572   4.201 130.646  0.00  0.00    +0.000 HD
BRANCH  13  15
ATOM     15  C   UNL     1     -10.272   5.723 130.205  0.00  0.00    +0.000 C 
BRANCH  15  16
ATOM     16  C   UNL     1     -10.332   6.428 128.848  0.00  0.00    +0.000 C 
ATOM     17  O   UNL     1      -9.558   6.163 127.928  0.00  0.00    +0.000 OA
ATOM     18  N   UNL     1     -11.463   7.199 128.642  0.00  0.00    +0.000 N 
ATOM     19  C   UNL     1     -12.164   7.107 127.379  0.00  0.00    +0.000 C 
ATOM     20  C   UNL     1     -13.494   7.791 127.652  0.00  0.00    +0.000 C 
ATOM     21  C   UNL     1     -13.109   8.905 128.623  0.00  0.00    +0.000 C 
ATOM     22  C   UNL     1     -12.051   8.229 129.520  0.00  0.00    +0.000 C 
BRANCH  22  23
ATOM     23  C   UNL     1     -12.688   7.671 130.730  0.00  0.00    +0.000 C 
ATOM     24  N   UNL     1     -13.173   7.245 131.692  0.00  0.00    +0.000 NA
ENDBRANCH  22  23
ENDBRANCH  15  16
ENDBRANCH  13  15
ENDBRANCH   8  13
TORSDOF 5
ENDMDL
MODEL 5
REMARK VINA RESULT:      -7.1      8.212     10.961
REMARK  Name = Vildagliptin
REMARK  5 active torsions:
REMARK  status: ('A' for Active; 'I' for Inactive)
REMARK    1  A    between atoms: O_1  and  C_2
REMARK    2  A    between atoms: C_9  and  N_12
REMARK    3  A    between atoms: N_12  and  C_13
REMARK    4  A    between atoms: C_13  and  C_14
REMARK    5  A    between atoms: C_20  and  C_21
REMARK                            x       y       z     vdW  Elec       q    Type
REMARK                         _______ _______ _______ _____ _____    ______ ____
ROOT
ATOM      1  C   UNL     1      -8.582  -2.718 124.047  0.00  0.00    +0.000 C 
ATOM      2  C   UNL     1      -8.219  -2.060 122.705  0.00  0.00    +0.000 C 
ATOM      3  C   UNL     1      -6.811  -1.452 122.778  0.00  0.00    +0.000 C 
ATOM      4  C   UNL     1      -5.795  -2.547 123.127  0.00  0.00    +0.000 C 
ATOM      5  C   UNL     1      -6.153  -3.189 124.478  0.00  0.00    +0.000 C 
ATOM      6  C   UNL     1      -7.557  -3.805 124.388  0.00  0.00    +0.000 C 
ATOM      7  C   UNL     1      -6.143  -2.102 125.577  0.00  0.00    +0.000 C 
ATOM      8  C   UNL     1      -7.177  -0.988 125.244  0.00  0.00    +0.000 C 
ATOM      9  C   UNL     1      -6.787  -0.380 123.874  0.00  0.00    +0.000 C 
ATOM     10  C   UNL     1      -8.568  -1.654 125.144  0.00  0.00    +0.000 C 
ENDROOT
BRANCH   1  11
ATOM     11  O   UNL     1      -9.887  -3.275 123.980  0.00  0.00    +0.000 OA
ATOM     12  H   UNL     1     -10.528  -2.558 124.115  0.00  0.00    +0.000 HD
ENDBRANCH   1  11
BRANCH   8  13
ATOM     13  N   UNL     1      -7.172   0.027 126.309  0.00  0.00    +0.000 NA
ATOM     14  H   UNL     1      -7.621   0.888 125.987  0.00  0.00    +0.000 HD
BRANCH  13  15
ATOM     15  C   UNL     1      -7.838  -0.423 127.549  0.00  0.00    +0.000 C 
BRANCH  15  16
ATOM     16  C   UNL     1      -6.904  -0.380 128.760  0.00  0.00    +0.000 C 
ATOM     17  O   UNL     1      -6.333   0.649 129.122  0.00  0.00    +0.000 OA
ATOM     18  N   UNL     1      -6.939  -1.509 129.562  0.00  0.00    +0.000 N 
ATOM     19  C   UNL     1      -7.000  -1.356 130.999  0.00  0.00    +0.000 C 
ATOM     20  C   UNL     1      -7.375  -2.742 131.496  0.00  0.00    +0.000 C 
ATOM     21  C   UNL     1      -6.654  -3.661 130.512  0.00  0.00    +0.000 C 
ATOM     22  C   UNL     1      -6.823  -2.926 129.166  0.00  0.00    +0.000 C 
BRANCH  22  23
ATOM     23  C   UNL     1      -8.012  -3.433 128.453  0.00  0.00    +0.000 C 
ATOM     24  N   UNL     1      -8.952  -3.840 127.913  0.00  0.00    +0.000 NA
ENDBRANCH  22  23
ENDBRANCH  15  16
ENDBRANCH  13  15
ENDBRANCH   8  13
TORSDOF 5
ENDMDL
MODEL 6
REMARK VINA RESULT:      -7.1      1.859      3.065
REMARK  Name = Vildagliptin
REMARK  5 active torsions:
REMARK  status: ('A' for Active; 'I' for Inactive)
REMARK    1  A    between atoms: O_1  and  C_2
REMARK    2  A    between atoms: C_9  and  N_12
REMARK    3  A    between atoms: N_12  and  C_13
REMARK    4  A    between atoms: C_13  and  C_14
REMARK    5  A    between atoms: C_20  and  C_21
REMARK                            x       y       z     vdW  Elec       q    Type
REMARK                         _______ _______ _______ _____ _____    ______ ____
ROOT
ATOM      1  C   UNL     1      -7.021   3.429 132.159  0.00  0.00    +0.000 C 
ATOM      2  C   UNL     1      -6.396   4.834 132.175  0.00  0.00    +0.000 C 
ATOM      3  C   UNL     1      -7.340   5.824 132.873  0.00  0.00    +0.000 C 
ATOM      4  C   UNL     1      -7.618   5.348 134.305  0.00  0.00    +0.000 C 
ATOM      5  C   UNL     1      -8.259   3.951 134.281  0.00  0.00    +0.000 C 
ATOM      6  C   UNL     1      -7.300   2.967 133.594  0.00  0.00    +0.000 C 
ATOM      7  C   UNL     1      -9.584   4.010 133.488  0.00  0.00    +0.000 C 
ATOM      8  C   UNL     1      -9.318   4.481 132.029  0.00  0.00    +0.000 C 
ATOM      9  C   UNL     1      -8.662   5.883 132.100  0.00  0.00    +0.000 C 
ATOM     10  C   UNL     1      -8.336   3.477 131.383  0.00  0.00    +0.000 C 
ENDROOT
BRANCH   1  11
ATOM     11  O   UNL     1      -6.150   2.515 131.508  0.00  0.00    +0.000 OA
ATOM     12  H   UNL     1      -6.600   1.656 131.454  0.00  0.00    +0.000 HD
ENDBRANCH   1  11
BRANCH   8  13
ATOM     13  N   UNL     1     -10.583   4.512 131.280  0.00  0.00    +0.000 NA
ATOM     14  H   UNL     1     -11.380   4.415 131.914  0.00  0.00    +0.000 HD
BRANCH  13  15
ATOM     15  C   UNL     1     -10.759   5.743 130.480  0.00  0.00    +0.000 C 
BRANCH  15  16
ATOM     16  C   UNL     1     -12.005   6.530 130.891  0.00  0.00    +0.000 C 
ATOM     17  O   UNL     1     -12.427   6.550 132.048  0.00  0.00    +0.000 OA
ATOM     18  N   UNL     1     -12.478   7.412 129.934  0.00  0.00    +0.000 N 
ATOM     19  C   UNL     1     -12.859   8.751 130.329  0.00  0.00    +0.000 C 
ATOM     20  C   UNL     1     -12.974   9.499 129.011  0.00  0.00    +0.000 C 
ATOM     21  C   UNL     1     -13.515   8.432 128.062  0.00  0.00    +0.000 C 
ATOM     22  C   UNL     1     -12.762   7.161 128.507  0.00  0.00    +0.000 C 
BRANCH  22  23
ATOM     23  C   UNL     1     -11.543   6.978 127.693  0.00  0.00    +0.000 C 
ATOM     24  N   UNL     1     -10.592   6.853 127.045  0.00  0.00    +0.000 NA
ENDBRANCH  22  23
ENDBRANCH  15  16
ENDBRANCH  13  15
ENDBRANCH   8  13
TORSDOF 5
ENDMDL
MODEL 7
REMARK VINA RESULT:      -6.9      8.007     10.187
REMARK  Name = Vildagliptin
REMARK  5 active torsions:
REMARK  status: ('A' for Active; 'I' for Inactive)
REMARK    1  A    between atoms: O_1  and  C_2
REMARK    2  A    between atoms: C_9  and  N_12
REMARK    3  A    between atoms: N_12  and  C_13
REMARK    4  A    between atoms: C_13  and  C_14
REMARK    5  A    between atoms: C_20  and  C_21
REMARK                            x       y       z     vdW  Elec       q    Type
REMARK                         _______ _______ _______ _____ _____    ______ ____
ROOT
ATOM      1  C   UNL     1      -8.645  -2.653 123.869  0.00  0.00    +0.000 C 
ATOM      2  C   UNL     1      -8.141  -2.146 122.508  0.00  0.00    +0.000 C 
ATOM      3  C   UNL     1      -6.743  -1.526 122.659  0.00  0.00    +0.000 C 
ATOM      4  C   UNL     1      -5.776  -2.571 123.230  0.00  0.00    +0.000 C 
ATOM      5  C   UNL     1      -6.277  -3.060 124.600  0.00  0.00    +0.000 C 
ATOM      6  C   UNL     1      -7.668  -3.689 124.433  0.00  0.00    +0.000 C 
ATOM      7  C   UNL     1      -6.373  -1.858 125.567  0.00  0.00    +0.000 C 
ATOM      8  C   UNL     1      -7.360  -0.793 125.007  0.00  0.00    +0.000 C 
ATOM      9  C   UNL     1      -6.826  -0.339 123.625  0.00  0.00    +0.000 C 
ATOM     10  C   UNL     1      -8.738  -1.473 124.836  0.00  0.00    +0.000 C 
ENDROOT
BRANCH   1  11
ATOM     11  O   UNL     1      -9.940  -3.220 123.730  0.00  0.00    +0.000 OA
ATOM     12  H   UNL     1     -10.572  -2.497 123.588  0.00  0.00    +0.000 HD
ENDBRANCH   1  11
BRANCH   8  13
ATOM     13  N   UNL     1      -7.458   0.334 125.946  0.00  0.00    +0.000 NA
ATOM     14  H   UNL     1      -7.408   0.003 126.913  0.00  0.00    +0.000 HD
BRANCH  13  15
ATOM     15  C   UNL     1      -6.415   1.360 125.740  0.00  0.00    +0.000 C 
BRANCH  15  16
ATOM     16  C   UNL     1      -5.585   1.607 127.002  0.00  0.00    +0.000 C 
ATOM     17  O   UNL     1      -5.424   0.749 127.869  0.00  0.00    +0.000 OA
ATOM     18  N   UNL     1      -4.829   2.767 126.982  0.00  0.00    +0.000 N 
ATOM     19  C   UNL     1      -3.452   2.724 127.425  0.00  0.00    +0.000 C 
ATOM     20  C   UNL     1      -2.872   4.041 126.937  0.00  0.00    +0.000 C 
ATOM     21  C   UNL     1      -4.049   5.004 127.082  0.00  0.00    +0.000 C 
ATOM     22  C   UNL     1      -5.254   4.141 126.651  0.00  0.00    +0.000 C 
BRANCH  22  23
ATOM     23  C   UNL     1      -5.534   4.336 125.215  0.00  0.00    +0.000 C 
ATOM     24  N   UNL     1      -5.732   4.487 124.084  0.00  0.00    +0.000 NA
ENDBRANCH  22  23
ENDBRANCH  15  16
ENDBRANCH  13  15
ENDBRANCH   8  13
TORSDOF 5
ENDMDL
MODEL 8
REMARK VINA RESULT:      -6.8      7.940      9.683
REMARK  Name = Vildagliptin
REMARK  5 active torsions:
REMARK  status: ('A' for Active; 'I' for Inactive)
REMARK    1  A    between atoms: O_1  and  C_2
REMARK    2  A    between atoms: C_9  and  N_12
REMARK    3  A    between atoms: N_12  and  C_13
REMARK    4  A    between atoms: C_13  and  C_14
REMARK    5  A    between atoms: C_20  and  C_21
REMARK                            x       y       z     vdW  Elec       q    Type
REMARK                         _______ _______ _______ _____ _____    ______ ____
ROOT
ATOM      1  C   UNL     1      -6.550  -2.663 124.142  0.00  0.00    +0.000 C 
ATOM      2  C   UNL     1      -7.355  -3.942 124.427  0.00  0.00    +0.000 C 
ATOM      3  C   UNL     1      -8.847  -3.608 124.571  0.00  0.00    +0.000 C 
ATOM      4  C   UNL     1      -9.350  -2.937 123.287  0.00  0.00    +0.000 C 
ATOM      5  C   UNL     1      -8.554  -1.648 123.018  0.00  0.00    +0.000 C 
ATOM      6  C   UNL     1      -7.067  -1.997 122.862  0.00  0.00    +0.000 C 
ATOM      7  C   UNL     1      -8.729  -0.682 124.212  0.00  0.00    +0.000 C 
ATOM      8  C   UNL     1      -8.212  -1.344 125.522  0.00  0.00    +0.000 C 
ATOM      9  C   UNL     1      -9.030  -2.641 125.746  0.00  0.00    +0.000 C 
ATOM     10  C   UNL     1      -6.721  -1.696 125.313  0.00  0.00    +0.000 C 
ENDROOT
BRANCH   1  11
ATOM     11  O   UNL     1      -5.170  -2.972 124.015  0.00  0.00    +0.000 OA
ATOM     12  H   UNL     1      -4.670  -2.352 124.570  0.00  0.00    +0.000 HD
ENDBRANCH   1  11
BRANCH   8  13
ATOM     13  N   UNL     1      -8.364  -0.407 126.645  0.00  0.00    +0.000 NA
ATOM     14  H   UNL     1      -7.625  -0.551 127.337  0.00  0.00    +0.000 HD
BRANCH  13  15
ATOM     15  C   UNL     1      -8.355   1.011 126.228  0.00  0.00    +0.000 C 
BRANCH  15  16
ATOM     16  C   UNL     1      -7.260   1.817 126.930  0.00  0.00    +0.000 C 
ATOM     17  O   UNL     1      -6.733   1.447 127.980  0.00  0.00    +0.000 OA
ATOM     18  N   UNL     1      -6.731   2.855 126.182  0.00  0.00    +0.000 N 
ATOM     19  C   UNL     1      -5.297   3.041 126.140  0.00  0.00    +0.000 C 
ATOM     20  C   UNL     1      -5.089   4.005 124.984  0.00  0.00    +0.000 C 
ATOM     21  C   UNL     1      -6.318   4.908 125.071  0.00  0.00    +0.000 C 
ATOM     22  C   UNL     1      -7.443   3.923 125.453  0.00  0.00    +0.000 C 
BRANCH  22  23
ATOM     23  C   UNL     1      -8.134   3.442 124.240  0.00  0.00    +0.000 C 
ATOM     24  N   UNL     1      -8.692   3.056 123.302  0.00  0.00    +0.000 NA
ENDBRANCH  22  23
ENDBRANCH  15  16
ENDBRANCH  13  15
ENDBRANCH   8  13
TORSDOF 5
ENDMDL
MODEL 9
REMARK VINA RESULT:      -6.8      7.674      9.684
REMARK  Name = Vildagliptin
REMARK  5 active torsions:
REMARK  status: ('A' for Active; 'I' for Inactive)
REMARK    1  A    between atoms: O_1  and  C_2
REMARK    2  A    between atoms: C_9  and  N_12
REMARK    3  A    between atoms: N_12  and  C_13
REMARK    4  A    between atoms: C_13  and  C_14
REMARK    5  A    between atoms: C_20  and  C_21
REMARK                            x       y       z     vdW  Elec       q    Type
REMARK                         _______ _______ _______ _____ _____    ______ ____
ROOT
ATOM      1  C   UNL     1      -8.701  -2.562 123.827  0.00  0.00    +0.000 C 
ATOM      2  C   UNL     1      -8.072  -2.286 122.450  0.00  0.00    +0.000 C 
ATOM      3  C   UNL     1      -6.689  -1.641 122.620  0.00  0.00    +0.000 C 
ATOM      4  C   UNL     1      -5.785  -2.568 123.443  0.00  0.00    +0.000 C 
ATOM      5  C   UNL     1      -6.410  -2.824 124.825  0.00  0.00    +0.000 C 
ATOM      6  C   UNL     1      -7.786  -3.483 124.642  0.00  0.00    +0.000 C 
ATOM      7  C   UNL     1      -6.584  -1.479 125.564  0.00  0.00    +0.000 C 
ATOM      8  C   UNL     1      -7.508  -0.529 124.748  0.00  0.00    +0.000 C 
ATOM      9  C   UNL     1      -6.848  -0.309 123.363  0.00  0.00    +0.000 C 
ATOM     10  C   UNL     1      -8.870  -1.238 124.571  0.00  0.00    +0.000 C 
ENDROOT
BRANCH   1  11
ATOM     11  O   UNL     1      -9.982  -3.154 123.669  0.00  0.00    +0.000 OA
ATOM     12  H   UNL     1      -9.951  -4.047 124.052  0.00  0.00    +0.000 HD
ENDBRANCH   1  11
BRANCH   8  13
ATOM     13  N   UNL     1      -7.681   0.738 125.473  0.00  0.00    +0.000 NA
ATOM     14  H   UNL     1      -7.025   0.798 126.255  0.00  0.00    +0.000 HD
BRANCH  13  15
ATOM     15  C   UNL     1      -7.510   1.930 124.616  0.00  0.00    +0.000 C 
BRANCH  15  16
ATOM     16  C   UNL     1      -7.915   3.222 125.329  0.00  0.00    +0.000 C 
ATOM     17  O   UNL     1      -8.999   3.775 125.137  0.00  0.00    +0.000 OA
ATOM     18  N   UNL     1      -7.092   3.589 126.381  0.00  0.00    +0.000 N 
ATOM     19  C   UNL     1      -7.685   4.024 127.627  0.00  0.00    +0.000 C 
ATOM     20  C   UNL     1      -6.527   3.993 128.610  0.00  0.00    +0.000 C 
ATOM     21  C   UNL     1      -5.339   4.411 127.747  0.00  0.00    +0.000 C 
ATOM     22  C   UNL     1      -5.621   3.703 126.405  0.00  0.00    +0.000 C 
BRANCH  22  23
ATOM     23  C   UNL     1      -4.933   2.397 126.362  0.00  0.00    +0.000 C 
ATOM     24  N   UNL     1      -4.413   1.364 126.324  0.00  0.00    +0.000 NA
ENDBRANCH  22  23
ENDBRANCH  15  16
ENDBRANCH  13  15
ENDBRANCH   8  13
TORSDOF 5
ENDMDL
