MODEL 1
REMARK VINA RESULT:      -6.3      0.000      0.000
REMARK  Name = Viloxazine
REMARK  6 active torsions:
REMARK  status: ('A' for Active; 'I' for Inactive)
REMARK    1  A    between atoms: C_1  and  C_2
REMARK    2  A    between atoms: C_2  and  O_3
REMARK    3  A    between atoms: O_3  and  C_4
REMARK    4  A    between atoms: C_9  and  O_10
REMARK    5  A    between atoms: O_10  and  C_11
REMARK    6  A    between atoms: C_11  and  C_12
REMARK                            x       y       z     vdW  Elec       q    Type
REMARK                         _______ _______ _______ _____ _____    ______ ____
ROOT
ATOM      1  C   UNL     1      -6.934  -2.487 124.224  0.00  0.00    +0.000 A 
ATOM      2  C   UNL     1      -7.834  -3.561 124.266  0.00  0.00    +0.000 A 
ATOM      3  C   UNL     1      -9.146  -3.465 123.764  0.00  0.00    +0.000 A 
ATOM      4  C   UNL     1      -9.607  -2.253 123.243  0.00  0.00    +0.000 A 
ATOM      5  C   UNL     1      -8.755  -1.178 123.196  0.00  0.00    +0.000 A 
ATOM      6  C   UNL     1      -7.420  -1.269 123.635  0.00  0.00    +0.000 A 
ENDROOT
BRANCH   1   7
ATOM      7  O   UNL     1      -5.624  -2.860 124.536  0.00  0.00    +0.000 OA
BRANCH   7   9
ATOM      8  C   UNL     1      -4.235  -4.693 123.530  0.00  0.00    +0.000 C 
ATOM      9  C   UNL     1      -4.686  -3.242 123.517  0.00  0.00    +0.000 C 
ENDBRANCH   7   9
ENDBRANCH   1   7
BRANCH   6  10
ATOM     10  O   UNL     1      -6.784  -0.076 123.332  0.00  0.00    +0.000 OA
BRANCH  10  11
ATOM     11  C   UNL     1      -7.657   0.972 123.587  0.00  0.00    +0.000 C 
BRANCH  11  12
ATOM     12  C   UNL     1      -7.502   2.334 122.982  0.00  0.00    +0.000 C 
ATOM     13  C   UNL     1      -8.805   2.700 122.246  0.00  0.00    +0.000 C 
ATOM     14  N   UNL     1      -8.659   3.931 121.464  0.00  0.00    +0.000 NA
ATOM     15  C   UNL     1      -7.449   3.767 120.634  0.00  0.00    +0.000 C 
ATOM     16  C   UNL     1      -6.191   3.536 121.480  0.00  0.00    +0.000 C 
ATOM     17  O   UNL     1      -6.317   2.324 122.204  0.00  0.00    +0.000 OA
ATOM     18  H   UNL     1      -8.513   4.707 122.110  0.00  0.00    +0.000 HD
ENDBRANCH  11  12
ENDBRANCH  10  11
ENDBRANCH   6  10
TORSDOF 5
ENDMDL
MODEL 2
REMARK VINA RESULT:      -6.2     10.498     12.993
REMARK  Name = Viloxazine
REMARK  6 active torsions:
REMARK  status: ('A' for Active; 'I' for Inactive)
REMARK    1  A    between atoms: C_1  and  C_2
REMARK    2  A    between atoms: C_2  and  O_3
REMARK    3  A    between atoms: O_3  and  C_4
REMARK    4  A    between atoms: C_9  and  O_10
REMARK    5  A    between atoms: O_10  and  C_11
REMARK    6  A    between atoms: C_11  and  C_12
REMARK                            x       y       z     vdW  Elec       q    Type
REMARK                         _______ _______ _______ _____ _____    ______ ____
ROOT
ATOM      1  C   UNL     1     -12.990   9.047 129.647  0.00  0.00    +0.000 A 
ATOM      2  C   UNL     1     -13.512   9.065 128.346  0.00  0.00    +0.000 A 
ATOM      3  C   UNL     1     -13.689   7.891 127.589  0.00  0.00    +0.000 A 
ATOM      4  C   UNL     1     -13.296   6.657 128.113  0.00  0.00    +0.000 A 
ATOM      5  C   UNL     1     -12.771   6.604 129.381  0.00  0.00    +0.000 A 
ATOM      6  C   UNL     1     -12.643   7.757 130.179  0.00  0.00    +0.000 A 
ENDROOT
BRANCH   1   7
ATOM      7  O   UNL     1     -13.130  10.270 130.308  0.00  0.00    +0.000 OA
BRANCH   7   9
ATOM      8  C   UNL     1     -13.816  12.678 130.497  0.00  0.00    +0.000 C 
ATOM      9  C   UNL     1     -13.770  11.395 129.683  0.00  0.00    +0.000 C 
ENDBRANCH   7   9
ENDBRANCH   1   7
BRANCH   6  10
ATOM     10  O   UNL     1     -12.220   7.365 131.439  0.00  0.00    +0.000 OA
BRANCH  10  11
ATOM     11  C   UNL     1     -11.352   6.291 131.303  0.00  0.00    +0.000 C 
BRANCH  11  12
ATOM     12  C   UNL     1      -9.900   6.360 131.663  0.00  0.00    +0.000 C 
ATOM     13  C   UNL     1      -9.142   7.082 130.532  0.00  0.00    +0.000 C 
ATOM     14  N   UNL     1      -7.691   7.013 130.721  0.00  0.00    +0.000 NA
ATOM     15  C   UNL     1      -7.357   5.592 130.945  0.00  0.00    +0.000 C 
ATOM     16  C   UNL     1      -8.069   5.015 132.174  0.00  0.00    +0.000 C 
ATOM     17  O   UNL     1      -9.472   5.045 131.972  0.00  0.00    +0.000 OA
ATOM     18  H   UNL     1      -7.449   7.544 131.558  0.00  0.00    +0.000 HD
ENDBRANCH  11  12
ENDBRANCH  10  11
ENDBRANCH   6  10
TORSDOF 5
ENDMDL
MODEL 3
REMARK VINA RESULT:      -6.1      9.595     11.823
REMARK  Name = Viloxazine
REMARK  6 active torsions:
REMARK  status: ('A' for Active; 'I' for Inactive)
REMARK    1  A    between atoms: C_1  and  C_2
REMARK    2  A    between atoms: C_2  and  O_3
REMARK    3  A    between atoms: O_3  and  C_4
REMARK    4  A    between atoms: C_9  and  O_10
REMARK    5  A    between atoms: O_10  and  C_11
REMARK    6  A    between atoms: C_11  and  C_12
REMARK                            x       y       z     vdW  Elec       q    Type
REMARK                         _______ _______ _______ _____ _____    ______ ____
ROOT
ATOM      1  C   UNL     1     -13.051   7.558 128.580  0.00  0.00    +0.000 A 
ATOM      2  C   UNL     1     -13.367   8.876 128.220  0.00  0.00    +0.000 A 
ATOM      3  C   UNL     1     -13.386   9.929 129.155  0.00  0.00    +0.000 A 
ATOM      4  C   UNL     1     -13.129   9.668 130.504  0.00  0.00    +0.000 A 
ATOM      5  C   UNL     1     -12.825   8.387 130.893  0.00  0.00    +0.000 A 
ATOM      6  C   UNL     1     -12.741   7.331 129.965  0.00  0.00    +0.000 A 
ENDROOT
BRANCH   1   7
ATOM      7  O   UNL     1     -12.844   6.726 127.477  0.00  0.00    +0.000 OA
BRANCH   7   9
ATOM      8  C   UNL     1     -10.528   7.275 126.678  0.00  0.00    +0.000 C 
ATOM      9  C   UNL     1     -12.010   7.127 126.377  0.00  0.00    +0.000 C 
ENDBRANCH   7   9
ENDBRANCH   1   7
BRANCH   6  10
ATOM     10  O   UNL     1     -12.284   6.206 130.633  0.00  0.00    +0.000 OA
BRANCH  10  11
ATOM     11  C   UNL     1     -11.134   6.540 131.334  0.00  0.00    +0.000 C 
BRANCH  11  12
ATOM     12  C   UNL     1      -9.780   6.617 130.698  0.00  0.00    +0.000 C 
ATOM     13  C   UNL     1      -9.589   5.389 129.788  0.00  0.00    +0.000 C 
ATOM     14  N   UNL     1      -8.215   5.293 129.287  0.00  0.00    +0.000 NA
ATOM     15  C   UNL     1      -7.325   5.397 130.461  0.00  0.00    +0.000 C 
ATOM     16  C   UNL     1      -7.513   6.718 131.216  0.00  0.00    +0.000 C 
ATOM     17  O   UNL     1      -8.830   6.791 131.735  0.00  0.00    +0.000 OA
ATOM     18  H   UNL     1      -8.041   6.087 128.670  0.00  0.00    +0.000 HD
ENDBRANCH  11  12
ENDBRANCH  10  11
ENDBRANCH   6  10
TORSDOF 5
ENDMDL
MODEL 4
REMARK VINA RESULT:      -6.0      1.719      2.828
REMARK  Name = Viloxazine
REMARK  6 active torsions:
REMARK  status: ('A' for Active; 'I' for Inactive)
REMARK    1  A    between atoms: C_1  and  C_2
REMARK    2  A    between atoms: C_2  and  O_3
REMARK    3  A    between atoms: O_3  and  C_4
REMARK    4  A    between atoms: C_9  and  O_10
REMARK    5  A    between atoms: O_10  and  C_11
REMARK    6  A    between atoms: C_11  and  C_12
REMARK                            x       y       z     vdW  Elec       q    Type
REMARK                         _______ _______ _______ _____ _____    ______ ____
ROOT
ATOM      1  C   UNL     1      -8.013  -3.050 124.143  0.00  0.00    +0.000 A 
ATOM      2  C   UNL     1      -6.912  -3.872 124.425  0.00  0.00    +0.000 A 
ATOM      3  C   UNL     1      -5.625  -3.608 123.918  0.00  0.00    +0.000 A 
ATOM      4  C   UNL     1      -5.421  -2.521 123.065  0.00  0.00    +0.000 A 
ATOM      5  C   UNL     1      -6.479  -1.701 122.759  0.00  0.00    +0.000 A 
ATOM      6  C   UNL     1      -7.761  -1.910 123.304  0.00  0.00    +0.000 A 
ENDROOT
BRANCH   1   7
ATOM      7  O   UNL     1      -9.126  -3.338 124.936  0.00  0.00    +0.000 OA
BRANCH   7   9
ATOM      8  C   UNL     1      -8.949  -3.807 127.396  0.00  0.00    +0.000 C 
ATOM      9  C   UNL     1      -9.251  -2.828 126.274  0.00  0.00    +0.000 C 
ENDBRANCH   7   9
ENDBRANCH   1   7
BRANCH   6  10
ATOM     10  O   UNL     1      -8.568  -0.850 122.925  0.00  0.00    +0.000 OA
BRANCH  10  11
ATOM     11  C   UNL     1      -8.600   0.077 123.957  0.00  0.00    +0.000 C 
BRANCH  11  12
ATOM     12  C   UNL     1      -8.260   1.524 123.771  0.00  0.00    +0.000 C 
ATOM     13  C   UNL     1      -9.096   2.083 122.602  0.00  0.00    +0.000 C 
ATOM     14  N   UNL     1      -8.675   3.437 122.233  0.00  0.00    +0.000 NA
ATOM     15  C   UNL     1      -7.211   3.391 122.043  0.00  0.00    +0.000 C 
ATOM     16  C   UNL     1      -6.474   2.945 123.312  0.00  0.00    +0.000 C 
ATOM     17  O   UNL     1      -6.852   1.620 123.644  0.00  0.00    +0.000 OA
ATOM     18  H   UNL     1      -8.886   4.063 123.010  0.00  0.00    +0.000 HD
ENDBRANCH  11  12
ENDBRANCH  10  11
ENDBRANCH   6  10
TORSDOF 5
ENDMDL
MODEL 5
REMARK VINA RESULT:      -5.9      2.465      3.693
REMARK  Name = Viloxazine
REMARK  6 active torsions:
REMARK  status: ('A' for Active; 'I' for Inactive)
REMARK    1  A    between atoms: C_1  and  C_2
REMARK    2  A    between atoms: C_2  and  O_3
REMARK    3  A    between atoms: O_3  and  C_4
REMARK    4  A    between atoms: C_9  and  O_10
REMARK    5  A    between atoms: O_10  and  C_11
REMARK    6  A    between atoms: C_11  and  C_12
REMARK                            x       y       z     vdW  Elec       q    Type
REMARK                         _______ _______ _______ _____ _____    ______ ____
ROOT
ATOM      1  C   UNL     1      -7.820  -3.321 124.423  0.00  0.00    +0.000 A 
ATOM      2  C   UNL     1      -6.469  -3.689 124.367  0.00  0.00    +0.000 A 
ATOM      3  C   UNL     1      -5.552  -3.061 123.501  0.00  0.00    +0.000 A 
ATOM      4  C   UNL     1      -5.990  -2.064 122.625  0.00  0.00    +0.000 A 
ATOM      5  C   UNL     1      -7.311  -1.687 122.647  0.00  0.00    +0.000 A 
ATOM      6  C   UNL     1      -8.231  -2.258 123.546  0.00  0.00    +0.000 A 
ENDROOT
BRANCH   1   7
ATOM      7  O   UNL     1      -8.494  -3.884 125.510  0.00  0.00    +0.000 OA
BRANCH   7   9
ATOM      8  C   UNL     1      -8.876  -3.928 127.991  0.00  0.00    +0.000 C 
ATOM      9  C   UNL     1      -8.761  -3.129 126.704  0.00  0.00    +0.000 C 
ENDBRANCH   7   9
ENDBRANCH   1   7
BRANCH   6  10
ATOM     10  O   UNL     1      -9.432  -1.578 123.423  0.00  0.00    +0.000 OA
BRANCH  10  11
ATOM     11  C   UNL     1      -9.165  -0.225 123.272  0.00  0.00    +0.000 C 
BRANCH  11  12
ATOM     12  C   UNL     1      -9.355   0.776 124.371  0.00  0.00    +0.000 C 
ATOM     13  C   UNL     1      -9.147   2.190 123.795  0.00  0.00    +0.000 C 
ATOM     14  N   UNL     1      -9.121   3.207 124.849  0.00  0.00    +0.000 NA
ATOM     15  C   UNL     1      -8.146   2.749 125.859  0.00  0.00    +0.000 C 
ATOM     16  C   UNL     1      -8.524   1.389 126.457  0.00  0.00    +0.000 C 
ATOM     17  O   UNL     1      -8.508   0.398 125.443  0.00  0.00    +0.000 OA
ATOM     18  H   UNL     1     -10.045   3.248 125.279  0.00  0.00    +0.000 HD
ENDBRANCH  11  12
ENDBRANCH  10  11
ENDBRANCH   6  10
TORSDOF 5
ENDMDL
MODEL 6
REMARK VINA RESULT:      -5.9      2.075      2.547
REMARK  Name = Viloxazine
REMARK  6 active torsions:
REMARK  status: ('A' for Active; 'I' for Inactive)
REMARK    1  A    between atoms: C_1  and  C_2
REMARK    2  A    between atoms: C_2  and  O_3
REMARK    3  A    between atoms: O_3  and  C_4
REMARK    4  A    between atoms: C_9  and  O_10
REMARK    5  A    between atoms: O_10  and  C_11
REMARK    6  A    between atoms: C_11  and  C_12
REMARK                            x       y       z     vdW  Elec       q    Type
REMARK                         _______ _______ _______ _____ _____    ______ ____
ROOT
ATOM      1  C   UNL     1      -8.607  -1.759 125.667  0.00  0.00    +0.000 A 
ATOM      2  C   UNL     1      -9.212  -2.964 125.284  0.00  0.00    +0.000 A 
ATOM      3  C   UNL     1      -9.346  -3.345 123.934  0.00  0.00    +0.000 A 
ATOM      4  C   UNL     1      -8.908  -2.487 122.921  0.00  0.00    +0.000 A 
ATOM      5  C   UNL     1      -8.319  -1.294 123.262  0.00  0.00    +0.000 A 
ATOM      6  C   UNL     1      -8.120  -0.922 124.605  0.00  0.00    +0.000 A 
ENDROOT
BRANCH   1   7
ATOM      7  O   UNL     1      -8.351  -1.690 127.039  0.00  0.00    +0.000 OA
BRANCH   7   9
ATOM      8  C   UNL     1      -8.485  -3.387 128.885  0.00  0.00    +0.000 C 
ATOM      9  C   UNL     1      -7.703  -2.765 127.740  0.00  0.00    +0.000 C 
ENDBRANCH   7   9
ENDBRANCH   1   7
BRANCH   6  10
ATOM     10  O   UNL     1      -7.385   0.252 124.623  0.00  0.00    +0.000 OA
BRANCH  10  11
ATOM     11  C   UNL     1      -8.259   1.327 124.543  0.00  0.00    +0.000 C 
BRANCH  11  12
ATOM     12  C   UNL     1      -7.961   2.570 123.762  0.00  0.00    +0.000 C 
ATOM     13  C   UNL     1      -8.897   2.625 122.540  0.00  0.00    +0.000 C 
ATOM     14  N   UNL     1      -8.531   3.709 121.624  0.00  0.00    +0.000 NA
ATOM     15  C   UNL     1      -7.087   3.566 121.351  0.00  0.00    +0.000 C 
ATOM     16  C   UNL     1      -6.242   3.656 122.627  0.00  0.00    +0.000 C 
ATOM     17  O   UNL     1      -6.569   2.583 123.495  0.00  0.00    +0.000 OA
ATOM     18  H   UNL     1      -8.690   4.598 122.098  0.00  0.00    +0.000 HD
ENDBRANCH  11  12
ENDBRANCH  10  11
ENDBRANCH   6  10
TORSDOF 5
ENDMDL
MODEL 7
REMARK VINA RESULT:      -5.7      8.735     10.900
REMARK  Name = Viloxazine
REMARK  6 active torsions:
REMARK  status: ('A' for Active; 'I' for Inactive)
REMARK    1  A    between atoms: C_1  and  C_2
REMARK    2  A    between atoms: C_2  and  O_3
REMARK    3  A    between atoms: O_3  and  C_4
REMARK    4  A    between atoms: C_9  and  O_10
REMARK    5  A    between atoms: O_10  and  C_11
REMARK    6  A    between atoms: C_11  and  C_12
REMARK                            x       y       z     vdW  Elec       q    Type
REMARK                         _______ _______ _______ _____ _____    ______ ____
ROOT
ATOM      1  C   UNL     1     -10.178   7.418 129.405  0.00  0.00    +0.000 A 
ATOM      2  C   UNL     1     -10.550   8.335 128.412  0.00  0.00    +0.000 A 
ATOM      3  C   UNL     1     -11.861   8.403 127.901  0.00  0.00    +0.000 A 
ATOM      4  C   UNL     1     -12.832   7.504 128.350  0.00  0.00    +0.000 A 
ATOM      5  C   UNL     1     -12.499   6.585 129.315  0.00  0.00    +0.000 A 
ATOM      6  C   UNL     1     -11.212   6.540 129.883  0.00  0.00    +0.000 A 
ENDROOT
BRANCH   1   7
ATOM      7  O   UNL     1      -8.917   7.680 129.946  0.00  0.00    +0.000 OA
BRANCH   7   9
ATOM      8  C   UNL     1      -6.815   6.963 131.117  0.00  0.00    +0.000 C 
ATOM      9  C   UNL     1      -8.312   6.800 130.907  0.00  0.00    +0.000 C 
ENDBRANCH   7   9
ENDBRANCH   1   7
BRANCH   6  10
ATOM     10  O   UNL     1     -11.227   5.613 130.913  0.00  0.00    +0.000 OA
BRANCH  10  11
ATOM     11  C   UNL     1     -11.265   4.339 130.365  0.00  0.00    +0.000 C 
BRANCH  11  12
ATOM     12  C   UNL     1     -10.106   3.391 130.413  0.00  0.00    +0.000 C 
ATOM     13  C   UNL     1      -9.462   3.465 131.811  0.00  0.00    +0.000 C 
ATOM     14  N   UNL     1      -8.206   2.715 131.871  0.00  0.00    +0.000 NA
ATOM     15  C   UNL     1      -7.382   3.173 130.734  0.00  0.00    +0.000 C 
ATOM     16  C   UNL     1      -8.069   2.931 129.384  0.00  0.00    +0.000 C 
ATOM     17  O   UNL     1      -9.264   3.690 129.312  0.00  0.00    +0.000 OA
ATOM     18  H   UNL     1      -8.415   1.724 131.747  0.00  0.00    +0.000 HD
ENDBRANCH  11  12
ENDBRANCH  10  11
ENDBRANCH   6  10
TORSDOF 5
ENDMDL
MODEL 8
REMARK VINA RESULT:      -5.7     10.402     12.603
REMARK  Name = Viloxazine
REMARK  6 active torsions:
REMARK  status: ('A' for Active; 'I' for Inactive)
REMARK    1  A    between atoms: C_1  and  C_2
REMARK    2  A    between atoms: C_2  and  O_3
REMARK    3  A    between atoms: O_3  and  C_4
REMARK    4  A    between atoms: C_9  and  O_10
REMARK    5  A    between atoms: O_10  and  C_11
REMARK    6  A    between atoms: C_11  and  C_12
REMARK                            x       y       z     vdW  Elec       q    Type
REMARK                         _______ _______ _______ _____ _____    ______ ____
ROOT
ATOM      1  C   UNL     1     -12.428   8.884 128.758  0.00  0.00    +0.000 A 
ATOM      2  C   UNL     1     -13.653   8.486 128.206  0.00  0.00    +0.000 A 
ATOM      3  C   UNL     1     -13.741   7.520 127.184  0.00  0.00    +0.000 A 
ATOM      4  C   UNL     1     -12.576   6.958 126.654  0.00  0.00    +0.000 A 
ATOM      5  C   UNL     1     -11.358   7.333 127.166  0.00  0.00    +0.000 A 
ATOM      6  C   UNL     1     -11.251   8.250 128.228  0.00  0.00    +0.000 A 
ENDROOT
BRANCH   1   7
ATOM      7  O   UNL     1     -12.575   9.653 129.916  0.00  0.00    +0.000 OA
BRANCH   7   9
ATOM      8  C   UNL     1     -13.694  11.896 129.763  0.00  0.00    +0.000 C 
ATOM      9  C   UNL     1     -13.760  10.430 130.158  0.00  0.00    +0.000 C 
ENDBRANCH   7   9
ENDBRANCH   1   7
BRANCH   6  10
ATOM     10  O   UNL     1      -9.920   8.315 128.609  0.00  0.00    +0.000 OA
BRANCH  10  11
ATOM     11  C   UNL     1      -9.577   7.125 129.235  0.00  0.00    +0.000 C 
BRANCH  11  12
ATOM     12  C   UNL     1      -9.361   7.008 130.713  0.00  0.00    +0.000 C 
ATOM     13  C   UNL     1      -7.950   6.442 130.964  0.00  0.00    +0.000 C 
ATOM     14  N   UNL     1      -7.741   6.115 132.377  0.00  0.00    +0.000 NA
ATOM     15  C   UNL     1      -8.881   5.273 132.793  0.00  0.00    +0.000 C 
ATOM     16  C   UNL     1     -10.225   5.989 132.618  0.00  0.00    +0.000 C 
ATOM     17  O   UNL     1     -10.445   6.268 131.246  0.00  0.00    +0.000 OA
ATOM     18  H   UNL     1      -7.758   6.982 132.914  0.00  0.00    +0.000 HD
ENDBRANCH  11  12
ENDBRANCH  10  11
ENDBRANCH   6  10
TORSDOF 5
ENDMDL
MODEL 9
REMARK VINA RESULT:      -5.6      7.349      9.603
REMARK  Name = Viloxazine
REMARK  6 active torsions:
REMARK  status: ('A' for Active; 'I' for Inactive)
REMARK    1  A    between atoms: C_1  and  C_2
REMARK    2  A    between atoms: C_2  and  O_3
REMARK    3  A    between atoms: O_3  and  C_4
REMARK    4  A    between atoms: C_9  and  O_10
REMARK    5  A    between atoms: O_10  and  C_11
REMARK    6  A    between atoms: C_11  and  C_12
REMARK                            x       y       z     vdW  Elec       q    Type
REMARK                         _______ _______ _______ _____ _____    ______ ____
ROOT
ATOM      1  C   UNL     1     -10.889   5.634 130.043  0.00  0.00    +0.000 A 
ATOM      2  C   UNL     1     -11.111   5.907 131.400  0.00  0.00    +0.000 A 
ATOM      3  C   UNL     1     -10.066   6.237 132.284  0.00  0.00    +0.000 A 
ATOM      4  C   UNL     1      -8.745   6.255 131.826  0.00  0.00    +0.000 A 
ATOM      5  C   UNL     1      -8.491   5.982 130.505  0.00  0.00    +0.000 A 
ATOM      6  C   UNL     1      -9.526   5.711 129.591  0.00  0.00    +0.000 A 
ENDROOT
BRANCH   1   7
ATOM      7  O   UNL     1     -12.069   5.578 129.297  0.00  0.00    +0.000 OA
BRANCH   7   9
ATOM      8  C   UNL     1     -12.283   7.941 128.475  0.00  0.00    +0.000 C 
ATOM      9  C   UNL     1     -12.916   6.729 129.140  0.00  0.00    +0.000 C 
ENDBRANCH   7   9
ENDBRANCH   1   7
BRANCH   6  10
ATOM     10  O   UNL     1      -8.971   5.618 128.325  0.00  0.00    +0.000 OA
BRANCH  10  11
ATOM     11  C   UNL     1      -8.210   4.460 128.256  0.00  0.00    +0.000 C 
BRANCH  11  12
ATOM     12  C   UNL     1      -7.819   3.812 126.963  0.00  0.00    +0.000 C 
ATOM     13  C   UNL     1      -8.095   4.798 125.811  0.00  0.00    +0.000 C 
ATOM     14  N   UNL     1      -7.923   4.164 124.501  0.00  0.00    +0.000 NA
ATOM     15  C   UNL     1      -8.722   2.921 124.521  0.00  0.00    +0.000 C 
ATOM     16  C   UNL     1      -8.273   1.960 125.627  0.00  0.00    +0.000 C 
ATOM     17  O   UNL     1      -8.478   2.559 126.895  0.00  0.00    +0.000 OA
ATOM     18  H   UNL     1      -6.939   3.920 124.388  0.00  0.00    +0.000 HD
ENDBRANCH  11  12
ENDBRANCH  10  11
ENDBRANCH   6  10
TORSDOF 5
ENDMDL
