MODEL 1
REMARK VINA RESULT:      -8.1      0.000      0.000
REMARK  Name = Viomycin
REMARK  15 active torsions:
REMARK  status: ('A' for Active; 'I' for Inactive)
REMARK    1  A    between atoms: C_2  and  C_10
REMARK    2  A    between atoms: C_4  and  O_5
REMARK    3  A    between atoms: CA_19  and  C_20
REMARK    4  A    between atoms: C_20  and  O_21
REMARK    5  A    between atoms: CA_25  and  CB_26
REMARK    6  A    between atoms: CB_26  and  O_27
REMARK    7  A    between atoms: CA_31  and  N_36
REMARK    8  A    between atoms: C_37  and  C_39
REMARK    9  A    between atoms: C_39  and  C_40
REMARK   10  A    between atoms: C_40  and  N_41
REMARK   11  A    between atoms: C_40  and  C_42
REMARK   12  A    between atoms: C_42  and  C_43
REMARK   13  A    between atoms: C_43  and  C_44
REMARK   14  A    between atoms: C_44  and  N_45
REMARK   15  A    between atoms: C_46  and  N_47
REMARK                            x       y       z     vdW  Elec       q    Type
REMARK                         _______ _______ _______ _____ _____    ______ ____
ROOT
ATOM      1  C   UNL     1      -9.342   4.075 131.340  0.00  0.00    +0.000 C 
ATOM      2  N   UNL     1      -8.361   3.937 132.498  0.00  0.00    +0.000 N 
ATOM      3  C   UNL     1      -7.551   4.944 133.031  0.00  0.00    +0.000 C 
ATOM      4  O   UNL     1      -7.717   6.151 132.852  0.00  0.00    +0.000 OA
ATOM      5  C   UNL     1      -6.243   4.570 133.700  0.00  0.00    +0.000 C 
ATOM      6  N   UNL     1      -5.127   5.447 133.584  0.00  0.00    +0.000 N 
ATOM      7  C   UNL     1      -3.930   4.991 132.952  0.00  0.00    +0.000 C 
ATOM      8  O   UNL     1      -3.179   4.174 133.479  0.00  0.00    +0.000 OA
ATOM      9  CA  UNL     1      -3.658   5.487 131.473  0.00  0.00    +0.000 C 
ATOM     10  N   UNL     1      -2.593   4.894 130.604  0.00  0.00    +0.000 N 
ATOM     11  C   UNL     1      -2.650   5.091 129.198  0.00  0.00    +0.000 C 
ATOM     12  O   UNL     1      -2.520   6.236 128.748  0.00  0.00    +0.000 OA
ATOM     13  CA  UNL     1      -3.226   3.883 128.275  0.00  0.00    +0.000 C 
ATOM     14  N   UNL     1      -4.661   3.958 127.834  0.00  0.00    +0.000 N 
ATOM     15  C   UNL     1      -5.413   2.886 127.369  0.00  0.00    +0.000 C 
ATOM     16  O   UNL     1      -4.887   1.781 127.243  0.00  0.00    +0.000 OA
ATOM     17  CA  UNL     1      -6.923   3.125 127.008  0.00  0.00    +0.000 C 
ATOM     18  C   UNL     1      -7.921   2.332 128.082  0.00  0.00    +0.000 C 
ATOM     19  N   UNL     1      -8.549   2.999 129.223  0.00  0.00    +0.000 N 
ATOM     20  C   UNL     1      -9.191   2.723 130.405  0.00  0.00    +0.000 C 
ATOM     21  O   UNL     1      -9.471   1.620 130.775  0.00  0.00    +0.000 OA
ATOM     22  C   UNL     1      -6.311   3.548 134.549  0.00  0.00    +0.000 C 
ATOM     23  H   UNL     1      -8.309   2.987 132.850  0.00  0.00    +0.000 HD
ATOM     24  H   UNL     1      -5.438   6.385 133.327  0.00  0.00    +0.000 HD
ATOM     25  H   UNL     1      -2.243   4.010 130.949  0.00  0.00    +0.000 HD
ATOM     26  H   UNL     1      -5.102   4.869 127.945  0.00  0.00    +0.000 HD
ATOM     27  H   UNL     1      -9.102   3.721 128.822  0.00  0.00    +0.000 HD
ENDROOT
BRANCH   1  28
ATOM     28  C   UNL     1      -9.283   5.531 130.667  0.00  0.00    +0.000 C 
ATOM     29  C   UNL     1      -9.889   5.583 129.271  0.00  0.00    +0.000 C 
ATOM     30  C   UNL     1     -11.360   5.601 129.294  0.00  0.00    +0.000 C 
ATOM     31  N   UNL     1     -11.832   6.423 130.340  0.00  0.00    +0.000 N 
ATOM     32  C   UNL     1     -11.201   6.796 131.461  0.00  0.00    +0.000 C 
ATOM     33  N   UNL     1     -11.856   6.710 132.567  0.00  0.00    +0.000 NA
ATOM     34  N   UNL     1      -9.879   6.567 131.489  0.00  0.00    +0.000 N 
ATOM     35  H   UNL     1     -12.551   7.029 129.967  0.00  0.00    +0.000 HD
ATOM     36  H   UNL     1     -12.826   6.424 132.387  0.00  0.00    +0.000 HD
ATOM     37  H   UNL     1      -9.331   7.415 131.583  0.00  0.00    +0.000 HD
BRANCH  30  38
ATOM     38  O   UNL     1     -12.104   6.145 128.250  0.00  0.00    +0.000 OA
ATOM     39  H   UNL     1     -11.749   5.746 127.449  0.00  0.00    +0.000 HD
ENDBRANCH  30  38
ENDBRANCH   1  28
BRANCH  22  40
ATOM     40  N   UNL     1      -5.353   3.325 135.491  0.00  0.00    +0.000 N 
ATOM     41  C   UNL     1      -4.480   2.290 135.560  0.00  0.00    +0.000 C 
ATOM     42  N   UNL     1      -4.491   1.398 134.542  0.00  0.00    +0.000 N 
ATOM     43  O   UNL     1      -3.719   2.157 136.509  0.00  0.00    +0.000 OA
ATOM     44  H   UNL     1      -5.313   3.959 136.288  0.00  0.00    +0.000 HD
ATOM     45  H   UNL     1      -5.066   1.464 133.722  0.00  0.00    +0.000 HD
ATOM     46  H   UNL     1      -3.803   0.663 134.568  0.00  0.00    +0.000 HD
ENDBRANCH  22  40
BRANCH  17  47
ATOM     47  N   UNL     1      -7.235   2.747 125.637  0.00  0.00    +0.000 N 
ATOM     48  C   UNL     1      -8.061   3.581 124.963  0.00  0.00    +0.000 C 
ATOM     49  O   UNL     1      -8.531   4.590 125.478  0.00  0.00    +0.000 OA
ATOM     50  H   UNL     1      -6.948   1.849 125.253  0.00  0.00    +0.000 HD
BRANCH  48  51
ATOM     51  C   UNL     1      -8.313   3.246 123.547  0.00  0.00    +0.000 C 
BRANCH  51  52
ATOM     52  C   UNL     1      -6.928   2.992 122.954  0.00  0.00    +0.000 C 
BRANCH  52  53
ATOM     53  N   UNL     1      -6.632   1.553 122.826  0.00  0.00    +0.000 NA
ATOM     54  H   UNL     1      -6.790   1.226 121.878  0.00  0.00    +0.000 HD
ATOM     55  H   UNL     1      -7.278   1.038 123.437  0.00  0.00    +0.000 HD
ENDBRANCH  52  53
BRANCH  52  56
ATOM     56  C   UNL     1      -6.832   3.656 121.603  0.00  0.00    +0.000 C 
BRANCH  56  57
ATOM     57  C   UNL     1      -5.382   3.707 121.142  0.00  0.00    +0.000 C 
BRANCH  57  58
ATOM     58  C   UNL     1      -4.643   4.785 121.903  0.00  0.00    +0.000 C 
BRANCH  58  59
ATOM     59  N   UNL     1      -4.359   5.897 121.012  0.00  0.00    +0.000 NA
ATOM     60  H   UNL     1      -3.358   6.093 121.025  0.00  0.00    +0.000 HD
ATOM     61  H   UNL     1      -4.832   6.730 121.347  0.00  0.00    +0.000 HD
ENDBRANCH  58  59
ENDBRANCH  57  58
ENDBRANCH  56  57
ENDBRANCH  52  56
ENDBRANCH  51  52
ENDBRANCH  48  51
ENDBRANCH  17  47
BRANCH   9  62
ATOM     62  C   UNL     1      -4.940   5.145 130.794  0.00  0.00    +0.000 C 
BRANCH  62  63
ATOM     63  O   UNL     1      -5.666   6.315 130.516  0.00  0.00    +0.000 OA
ATOM     64  H   UNL     1      -6.551   6.091 130.174  0.00  0.00    +0.000 HD
ENDBRANCH  62  63
ENDBRANCH   9  62
BRANCH  13  65
ATOM     65  CB  UNL     1      -2.387   3.844 126.987  0.00  0.00    +0.000 C 
BRANCH  65  66
ATOM     66  O   UNL     1      -1.929   2.534 126.644  0.00  0.00    +0.000 OA
ATOM     67  H   UNL     1      -1.018   2.609 126.280  0.00  0.00    +0.000 HD
ENDBRANCH  65  66
ENDBRANCH  13  65
TORSDOF 15
ENDMDL
MODEL 2
REMARK VINA RESULT:      -8.0      3.006      9.120
REMARK  Name = Viomycin
REMARK  15 active torsions:
REMARK  status: ('A' for Active; 'I' for Inactive)
REMARK    1  A    between atoms: C_2  and  C_10
REMARK    2  A    between atoms: C_4  and  O_5
REMARK    3  A    between atoms: CA_19  and  C_20
REMARK    4  A    between atoms: C_20  and  O_21
REMARK    5  A    between atoms: CA_25  and  CB_26
REMARK    6  A    between atoms: CB_26  and  O_27
REMARK    7  A    between atoms: CA_31  and  N_36
REMARK    8  A    between atoms: C_37  and  C_39
REMARK    9  A    between atoms: C_39  and  C_40
REMARK   10  A    between atoms: C_40  and  N_41
REMARK   11  A    between atoms: C_40  and  C_42
REMARK   12  A    between atoms: C_42  and  C_43
REMARK   13  A    between atoms: C_43  and  C_44
REMARK   14  A    between atoms: C_44  and  N_45
REMARK   15  A    between atoms: C_46  and  N_47
REMARK                            x       y       z     vdW  Elec       q    Type
REMARK                         _______ _______ _______ _____ _____    ______ ____
ROOT
ATOM      1  C   UNL     1      -8.116   1.013 130.074  0.00  0.00    +0.000 C 
ATOM      2  N   UNL     1      -8.178   1.202 128.563  0.00  0.00    +0.000 N 
ATOM      3  C   UNL     1      -7.166   0.908 127.643  0.00  0.00    +0.000 C 
ATOM      4  O   UNL     1      -6.196   0.184 127.870  0.00  0.00    +0.000 OA
ATOM      5  C   UNL     1      -7.099   1.681 126.341  0.00  0.00    +0.000 C 
ATOM      6  N   UNL     1      -5.827   1.972 125.771  0.00  0.00    +0.000 N 
ATOM      7  C   UNL     1      -5.426   3.331 125.589  0.00  0.00    +0.000 C 
ATOM      8  O   UNL     1      -5.929   4.056 124.734  0.00  0.00    +0.000 OA
ATOM      9  CA  UNL     1      -4.382   3.922 126.624  0.00  0.00    +0.000 C 
ATOM     10  N   UNL     1      -4.073   5.384 126.713  0.00  0.00    +0.000 N 
ATOM     11  C   UNL     1      -3.450   5.895 127.884  0.00  0.00    +0.000 C 
ATOM     12  O   UNL     1      -2.300   5.532 128.158  0.00  0.00    +0.000 OA
ATOM     13  CA  UNL     1      -4.382   6.644 128.985  0.00  0.00    +0.000 C 
ATOM     14  N   UNL     1      -4.831   5.852 130.181  0.00  0.00    +0.000 N 
ATOM     15  C   UNL     1      -5.892   6.189 131.013  0.00  0.00    +0.000 C 
ATOM     16  O   UNL     1      -6.506   7.238 130.822  0.00  0.00    +0.000 OA
ATOM     17  CA  UNL     1      -6.270   5.215 132.185  0.00  0.00    +0.000 C 
ATOM     18  C   UNL     1      -7.751   4.503 131.909  0.00  0.00    +0.000 C 
ATOM     19  N   UNL     1      -7.894   3.161 131.342  0.00  0.00    +0.000 N 
ATOM     20  C   UNL     1      -8.826   2.336 130.763  0.00  0.00    +0.000 C 
ATOM     21  O   UNL     1      -9.984   2.613 130.641  0.00  0.00    +0.000 OA
ATOM     22  C   UNL     1      -8.259   1.826 125.706  0.00  0.00    +0.000 C 
ATOM     23  H   UNL     1      -9.051   1.620 128.260  0.00  0.00    +0.000 HD
ATOM     24  H   UNL     1      -5.116   1.344 126.148  0.00  0.00    +0.000 HD
ATOM     25  H   UNL     1      -4.751   5.966 126.240  0.00  0.00    +0.000 HD
ATOM     26  H   UNL     1      -4.331   4.979 130.337  0.00  0.00    +0.000 HD
ATOM     27  H   UNL     1      -7.421   2.565 131.981  0.00  0.00    +0.000 HD
ENDROOT
BRANCH   1  28
ATOM     28  C   UNL     1      -6.668   0.528 130.566  0.00  0.00    +0.000 C 
ATOM     29  C   UNL     1      -6.345   0.927 132.000  0.00  0.00    +0.000 C 
ATOM     30  C   UNL     1      -7.020   0.073 132.990  0.00  0.00    +0.000 C 
ATOM     31  N   UNL     1      -7.009  -1.277 132.573  0.00  0.00    +0.000 N 
ATOM     32  C   UNL     1      -6.874  -1.769 131.335  0.00  0.00    +0.000 C 
ATOM     33  N   UNL     1      -7.690  -2.698 130.973  0.00  0.00    +0.000 NA
ATOM     34  N   UNL     1      -6.456  -0.897 130.403  0.00  0.00    +0.000 N 
ATOM     35  H   UNL     1      -6.712  -1.846 133.354  0.00  0.00    +0.000 HD
ATOM     36  H   UNL     1      -8.290  -2.971 131.760  0.00  0.00    +0.000 HD
ATOM     37  H   UNL     1      -5.570  -1.159 129.984  0.00  0.00    +0.000 HD
BRANCH  30  38
ATOM     38  O   UNL     1      -6.514  -0.103 134.275  0.00  0.00    +0.000 OA
ATOM     39  H   UNL     1      -5.848   0.584 134.383  0.00  0.00    +0.000 HD
ENDBRANCH  30  38
ENDBRANCH   1  28
BRANCH  22  40
ATOM     40  N   UNL     1      -8.324   2.150 124.385  0.00  0.00    +0.000 N 
ATOM     41  C   UNL     1      -9.382   2.016 123.547  0.00  0.00    +0.000 C 
ATOM     42  N   UNL     1     -10.547   1.583 124.082  0.00  0.00    +0.000 N 
ATOM     43  O   UNL     1      -9.287   2.264 122.353  0.00  0.00    +0.000 OA
ATOM     44  H   UNL     1      -7.469   2.466 123.930  0.00  0.00    +0.000 HD
ATOM     45  H   UNL     1     -10.701   1.391 125.055  0.00  0.00    +0.000 HD
ATOM     46  H   UNL     1     -11.346   1.538 123.469  0.00  0.00    +0.000 HD
ENDBRANCH  22  40
BRANCH  17  47
ATOM     47  N   UNL     1      -6.247   5.871 133.485  0.00  0.00    +0.000 N 
ATOM     48  C   UNL     1      -5.875   5.102 134.534  0.00  0.00    +0.000 C 
ATOM     49  O   UNL     1      -5.585   3.917 134.403  0.00  0.00    +0.000 OA
ATOM     50  H   UNL     1      -6.606   6.815 133.612  0.00  0.00    +0.000 HD
BRANCH  48  51
ATOM     51  C   UNL     1      -5.770   5.784 135.840  0.00  0.00    +0.000 C 
BRANCH  51  52
ATOM     52  C   UNL     1      -7.166   6.349 136.097  0.00  0.00    +0.000 C 
BRANCH  52  53
ATOM     53  N   UNL     1      -8.230   5.432 135.648  0.00  0.00    +0.000 NA
ATOM     54  H   UNL     1      -9.064   5.940 135.373  0.00  0.00    +0.000 HD
ATOM     55  H   UNL     1      -8.487   4.829 136.439  0.00  0.00    +0.000 HD
ENDBRANCH  52  53
BRANCH  52  56
ATOM     56  C   UNL     1      -7.327   6.636 137.570  0.00  0.00    +0.000 C 
BRANCH  56  57
ATOM     57  C   UNL     1      -8.725   7.165 137.854  0.00  0.00    +0.000 C 
BRANCH  57  58
ATOM     58  C   UNL     1      -8.853   8.577 137.326  0.00  0.00    +0.000 C 
BRANCH  58  59
ATOM     59  N   UNL     1     -10.069   8.690 136.540  0.00  0.00    +0.000 NA
ATOM     60  H   UNL     1      -9.922   8.262 135.626  0.00  0.00    +0.000 HD
ATOM     61  H   UNL     1     -10.280   9.671 136.381  0.00  0.00    +0.000 HD
ENDBRANCH  58  59
ENDBRANCH  57  58
ENDBRANCH  56  57
ENDBRANCH  52  56
ENDBRANCH  51  52
ENDBRANCH  48  51
ENDBRANCH  17  47
BRANCH   9  62
ATOM     62  C   UNL     1      -5.019   3.586 127.928  0.00  0.00    +0.000 C 
BRANCH  62  63
ATOM     63  O   UNL     1      -6.299   4.160 128.002  0.00  0.00    +0.000 OA
ATOM     64  H   UNL     1      -6.371   4.725 128.794  0.00  0.00    +0.000 HD
ENDBRANCH  62  63
ENDBRANCH   9  62
BRANCH  13  65
ATOM     65  CB  UNL     1      -3.579   7.832 129.540  0.00  0.00    +0.000 C 
BRANCH  65  66
ATOM     66  O   UNL     1      -4.325   9.051 129.590  0.00  0.00    +0.000 OA
ATOM     67  H   UNL     1      -4.133   9.497 130.446  0.00  0.00    +0.000 HD
ENDBRANCH  65  66
ENDBRANCH  13  65
TORSDOF 15
ENDMDL
MODEL 3
REMARK VINA RESULT:      -7.9      4.382      9.348
REMARK  Name = Viomycin
REMARK  15 active torsions:
REMARK  status: ('A' for Active; 'I' for Inactive)
REMARK    1  A    between atoms: C_2  and  C_10
REMARK    2  A    between atoms: C_4  and  O_5
REMARK    3  A    between atoms: CA_19  and  C_20
REMARK    4  A    between atoms: C_20  and  O_21
REMARK    5  A    between atoms: CA_25  and  CB_26
REMARK    6  A    between atoms: CB_26  and  O_27
REMARK    7  A    between atoms: CA_31  and  N_36
REMARK    8  A    between atoms: C_37  and  C_39
REMARK    9  A    between atoms: C_39  and  C_40
REMARK   10  A    between atoms: C_40  and  N_41
REMARK   11  A    between atoms: C_40  and  C_42
REMARK   12  A    between atoms: C_42  and  C_43
REMARK   13  A    between atoms: C_43  and  C_44
REMARK   14  A    between atoms: C_44  and  N_45
REMARK   15  A    between atoms: C_46  and  N_47
REMARK                            x       y       z     vdW  Elec       q    Type
REMARK                         _______ _______ _______ _____ _____    ______ ____
ROOT
ATOM      1  C   UNL     1      -6.385   4.042 128.395  0.00  0.00    +0.000 C 
ATOM      2  N   UNL     1      -6.381   4.126 126.872  0.00  0.00    +0.000 N 
ATOM      3  C   UNL     1      -7.500   4.128 126.034  0.00  0.00    +0.000 C 
ATOM      4  O   UNL     1      -8.654   4.362 126.398  0.00  0.00    +0.000 OA
ATOM      5  C   UNL     1      -7.369   3.601 124.619  0.00  0.00    +0.000 C 
ATOM      6  N   UNL     1      -8.470   2.917 124.028  0.00  0.00    +0.000 N 
ATOM      7  C   UNL     1      -8.323   1.555 123.620  0.00  0.00    +0.000 C 
ATOM      8  O   UNL     1      -7.651   1.230 122.645  0.00  0.00    +0.000 OA
ATOM      9  CA  UNL     1      -8.963   0.447 124.554  0.00  0.00    +0.000 C 
ATOM     10  N   UNL     1      -8.669  -1.012 124.395  0.00  0.00    +0.000 N 
ATOM     11  C   UNL     1      -8.943  -1.900 125.470  0.00  0.00    +0.000 C 
ATOM     12  O   UNL     1     -10.117  -2.071 125.821  0.00  0.00    +0.000 OA
ATOM     13  CA  UNL     1      -7.705  -2.373 126.410  0.00  0.00    +0.000 C 
ATOM     14  N   UNL     1      -7.502  -1.660 127.717  0.00  0.00    +0.000 N 
ATOM     15  C   UNL     1      -6.327  -1.669 128.461  0.00  0.00    +0.000 C 
ATOM     16  O   UNL     1      -5.371  -2.344 128.082  0.00  0.00    +0.000 OA
ATOM     17  CA  UNL     1      -6.263  -0.815 129.778  0.00  0.00    +0.000 C 
ATOM     18  C   UNL     1      -5.205   0.462 129.604  0.00  0.00    +0.000 C 
ATOM     19  N   UNL     1      -5.645   1.818 129.276  0.00  0.00    +0.000 N 
ATOM     20  C   UNL     1      -5.161   3.024 128.832  0.00  0.00    +0.000 C 
ATOM     21  O   UNL     1      -4.001   3.253 128.646  0.00  0.00    +0.000 OA
ATOM     22  C   UNL     1      -6.302   4.028 123.950  0.00  0.00    +0.000 C 
ATOM     23  H   UNL     1      -5.443   4.142 126.488  0.00  0.00    +0.000 HD
ATOM     24  H   UNL     1      -9.336   3.144 124.520  0.00  0.00    +0.000 HD
ATOM     25  H   UNL     1      -7.859  -1.196 123.818  0.00  0.00    +0.000 HD
ATOM     26  H   UNL     1      -8.288  -1.094 128.030  0.00  0.00    +0.000 HD
ATOM     27  H   UNL     1      -6.258   2.072 130.016  0.00  0.00    +0.000 HD
ENDROOT
BRANCH   1  28
ATOM     28  C   UNL     1      -7.861   3.829 128.986  0.00  0.00    +0.000 C 
ATOM     29  C   UNL     1      -7.895   2.985 130.253  0.00  0.00    +0.000 C 
ATOM     30  C   UNL     1      -7.474   3.738 131.446  0.00  0.00    +0.000 C 
ATOM     31  N   UNL     1      -7.992   5.051 131.413  0.00  0.00    +0.000 N 
ATOM     32  C   UNL     1      -8.401   5.764 130.355  0.00  0.00    +0.000 C 
ATOM     33  N   UNL     1      -7.996   6.984 130.270  0.00  0.00    +0.000 NA
ATOM     34  N   UNL     1      -8.571   5.072 129.217  0.00  0.00    +0.000 N 
ATOM     35  H   UNL     1      -8.397   5.254 132.317  0.00  0.00    +0.000 HD
ATOM     36  H   UNL     1      -7.460   7.242 131.106  0.00  0.00    +0.000 HD
ATOM     37  H   UNL     1      -9.526   5.096 128.877  0.00  0.00    +0.000 HD
BRANCH  30  38
ATOM     38  O   UNL     1      -7.892   3.381 132.725  0.00  0.00    +0.000 OA
ATOM     39  H   UNL     1      -7.397   3.949 133.323  0.00  0.00    +0.000 HD
ENDBRANCH  30  38
ENDBRANCH   1  28
BRANCH  22  40
ATOM     40  N   UNL     1      -6.227   3.962 122.592  0.00  0.00    +0.000 N 
ATOM     41  C   UNL     1      -5.229   4.412 121.792  0.00  0.00    +0.000 C 
ATOM     42  N   UNL     1      -4.130   4.922 122.395  0.00  0.00    +0.000 N 
ATOM     43  O   UNL     1      -5.319   4.371 120.572  0.00  0.00    +0.000 OA
ATOM     44  H   UNL     1      -7.035   3.601 122.088  0.00  0.00    +0.000 HD
ATOM     45  H   UNL     1      -3.980   4.958 123.387  0.00  0.00    +0.000 HD
ATOM     46  H   UNL     1      -3.367   5.203 121.800  0.00  0.00    +0.000 HD
ENDBRANCH  22  40
BRANCH  17  47
ATOM     47  N   UNL     1      -5.919  -1.615 130.945  0.00  0.00    +0.000 N 
ATOM     48  C   UNL     1      -6.792  -2.597 131.272  0.00  0.00    +0.000 C 
ATOM     49  O   UNL     1      -7.820  -2.794 130.632  0.00  0.00    +0.000 OA
ATOM     50  H   UNL     1      -5.135  -1.371 131.546  0.00  0.00    +0.000 HD
BRANCH  48  51
ATOM     51  C   UNL     1      -6.406  -3.463 132.404  0.00  0.00    +0.000 C 
BRANCH  51  52
ATOM     52  C   UNL     1      -5.617  -4.607 131.767  0.00  0.00    +0.000 C 
BRANCH  52  53
ATOM     53  N   UNL     1      -5.434  -4.417 130.316  0.00  0.00    +0.000 NA
ATOM     54  H   UNL     1      -5.780  -3.512 130.015  0.00  0.00    +0.000 HD
ATOM     55  H   UNL     1      -5.988  -5.132 129.829  0.00  0.00    +0.000 HD
ENDBRANCH  52  53
BRANCH  52  56
ATOM     56  C   UNL     1      -4.272  -4.723 132.441  0.00  0.00    +0.000 C 
BRANCH  56  57
ATOM     57  C   UNL     1      -4.364  -5.651 133.644  0.00  0.00    +0.000 C 
BRANCH  57  58
ATOM     58  C   UNL     1      -2.981  -6.128 134.027  0.00  0.00    +0.000 C 
BRANCH  58  59
ATOM     59  N   UNL     1      -1.999  -5.139 133.618  0.00  0.00    +0.000 NA
ATOM     60  H   UNL     1      -2.438  -4.219 133.586  0.00  0.00    +0.000 HD
ATOM     61  H   UNL     1      -1.676  -5.349 132.678  0.00  0.00    +0.000 HD
ENDBRANCH  58  59
ENDBRANCH  57  58
ENDBRANCH  56  57
ENDBRANCH  52  56
ENDBRANCH  51  52
ENDBRANCH  48  51
ENDBRANCH  17  47
BRANCH   9  62
ATOM     62  C   UNL     1      -8.402   0.807 125.886  0.00  0.00    +0.000 C 
BRANCH  62  63
ATOM     63  O   UNL     1      -9.392   1.407 126.682  0.00  0.00    +0.000 OA
ATOM     64  H   UNL     1      -9.093   2.280 126.996  0.00  0.00    +0.000 HD
ENDBRANCH  62  63
ENDBRANCH   9  62
BRANCH  13  65
ATOM     65  CB  UNL     1      -7.931  -3.852 126.764  0.00  0.00    +0.000 C 
BRANCH  65  66
ATOM     66  O   UNL     1      -8.826  -4.046 127.861  0.00  0.00    +0.000 OA
ATOM     67  H   UNL     1      -9.367  -3.230 127.968  0.00  0.00    +0.000 HD
ENDBRANCH  65  66
ENDBRANCH  13  65
TORSDOF 15
ENDMDL
MODEL 4
REMARK VINA RESULT:      -7.8      3.297      6.056
REMARK  Name = Viomycin
REMARK  15 active torsions:
REMARK  status: ('A' for Active; 'I' for Inactive)
REMARK    1  A    between atoms: C_2  and  C_10
REMARK    2  A    between atoms: C_4  and  O_5
REMARK    3  A    between atoms: CA_19  and  C_20
REMARK    4  A    between atoms: C_20  and  O_21
REMARK    5  A    between atoms: CA_25  and  CB_26
REMARK    6  A    between atoms: CB_26  and  O_27
REMARK    7  A    between atoms: CA_31  and  N_36
REMARK    8  A    between atoms: C_37  and  C_39
REMARK    9  A    between atoms: C_39  and  C_40
REMARK   10  A    between atoms: C_40  and  N_41
REMARK   11  A    between atoms: C_40  and  C_42
REMARK   12  A    between atoms: C_42  and  C_43
REMARK   13  A    between atoms: C_43  and  C_44
REMARK   14  A    between atoms: C_44  and  N_45
REMARK   15  A    between atoms: C_46  and  N_47
REMARK                            x       y       z     vdW  Elec       q    Type
REMARK                         _______ _______ _______ _____ _____    ______ ____
ROOT
ATOM      1  C   UNL     1      -5.735  -0.037 131.183  0.00  0.00    +0.000 C 
ATOM      2  N   UNL     1      -5.357   0.922 132.306  0.00  0.00    +0.000 N 
ATOM      3  C   UNL     1      -6.156   1.292 133.392  0.00  0.00    +0.000 C 
ATOM      4  O   UNL     1      -7.159   0.685 133.769  0.00  0.00    +0.000 OA
ATOM      5  C   UNL     1      -5.941   2.643 134.045  0.00  0.00    +0.000 C 
ATOM      6  N   UNL     1      -7.063   3.348 134.568  0.00  0.00    +0.000 N 
ATOM      7  C   UNL     1      -7.404   4.630 134.039  0.00  0.00    +0.000 C 
ATOM      8  O   UNL     1      -6.727   5.632 134.255  0.00  0.00    +0.000 OA
ATOM      9  CA  UNL     1      -8.636   4.699 133.045  0.00  0.00    +0.000 C 
ATOM     10  N   UNL     1      -8.944   5.911 132.223  0.00  0.00    +0.000 N 
ATOM     11  C   UNL     1      -9.793   5.787 131.090  0.00  0.00    +0.000 C 
ATOM     12  O   UNL     1     -10.979   5.478 131.261  0.00  0.00    +0.000 OA
ATOM     13  CA  UNL     1      -9.107   5.710 129.619  0.00  0.00    +0.000 C 
ATOM     14  N   UNL     1      -8.926   4.352 128.999  0.00  0.00    +0.000 N 
ATOM     15  C   UNL     1      -8.059   4.059 127.952  0.00  0.00    +0.000 C 
ATOM     16  O   UNL     1      -7.409   4.963 127.428  0.00  0.00    +0.000 OA
ATOM     17  CA  UNL     1      -7.944   2.571 127.463  0.00  0.00    +0.000 C 
ATOM     18  C   UNL     1      -6.445   1.942 127.828  0.00  0.00    +0.000 C 
ATOM     19  N   UNL     1      -6.199   1.107 129.004  0.00  0.00    +0.000 N 
ATOM     20  C   UNL     1      -5.174   0.613 129.773  0.00  0.00    +0.000 C 
ATOM     21  O   UNL     1      -4.014   0.768 129.523  0.00  0.00    +0.000 OA
ATOM     22  C   UNL     1      -4.673   2.962 134.287  0.00  0.00    +0.000 C 
ATOM     23  H   UNL     1      -4.436   1.326 132.176  0.00  0.00    +0.000 HD
ATOM     24  H   UNL     1      -7.843   2.708 134.725  0.00  0.00    +0.000 HD
ATOM     25  H   UNL     1      -8.176   6.567 132.174  0.00  0.00    +0.000 HD
ATOM     26  H   UNL     1      -9.455   3.601 129.435  0.00  0.00    +0.000 HD
ATOM     27  H   UNL     1      -6.801   0.324 128.889  0.00  0.00    +0.000 HD
ENDROOT
BRANCH   1  28
ATOM     28  C   UNL     1      -7.259  -0.529 131.294  0.00  0.00    +0.000 C 
ATOM     29  C   UNL     1      -7.886  -0.881 129.951  0.00  0.00    +0.000 C 
ATOM     30  C   UNL     1      -7.449  -2.194 129.451  0.00  0.00    +0.000 C 
ATOM     31  N   UNL     1      -7.376  -3.130 130.506  0.00  0.00    +0.000 N 
ATOM     32  C   UNL     1      -7.240  -2.902 131.819  0.00  0.00    +0.000 C 
ATOM     33  N   UNL     1      -6.370  -3.607 132.457  0.00  0.00    +0.000 NA
ATOM     34  N   UNL     1      -7.439  -1.635 132.214  0.00  0.00    +0.000 N 
ATOM     35  H   UNL     1      -7.840  -3.978 130.209  0.00  0.00    +0.000 HD
ATOM     36  H   UNL     1      -5.958  -4.312 131.835  0.00  0.00    +0.000 HD
ATOM     37  H   UNL     1      -8.214  -1.538 132.862  0.00  0.00    +0.000 HD
BRANCH  30  38
ATOM     38  O   UNL     1      -8.225  -2.938 128.566  0.00  0.00    +0.000 OA
ATOM     39  H   UNL     1      -9.109  -2.947 128.947  0.00  0.00    +0.000 HD
ENDBRANCH  30  38
ENDBRANCH   1  28
BRANCH  22  40
ATOM     40  N   UNL     1      -4.330   3.932 135.179  0.00  0.00    +0.000 N 
ATOM     41  C   UNL     1      -3.733   3.777 136.387  0.00  0.00    +0.000 C 
ATOM     42  N   UNL     1      -3.354   2.526 136.737  0.00  0.00    +0.000 N 
ATOM     43  O   UNL     1      -3.554   4.726 137.139  0.00  0.00    +0.000 OA
ATOM     44  H   UNL     1      -4.607   4.890 134.971  0.00  0.00    +0.000 HD
ATOM     45  H   UNL     1      -3.444   1.711 136.158  0.00  0.00    +0.000 HD
ATOM     46  H   UNL     1      -2.861   2.422 137.610  0.00  0.00    +0.000 HD
ENDBRANCH  22  40
BRANCH  17  47
ATOM     47  N   UNL     1      -8.233   2.427 126.043  0.00  0.00    +0.000 N 
ATOM     48  C   UNL     1      -8.957   1.339 125.690  0.00  0.00    +0.000 C 
ATOM     49  O   UNL     1      -9.338   0.514 126.514  0.00  0.00    +0.000 OA
ATOM     50  H   UNL     1      -7.812   3.040 125.349  0.00  0.00    +0.000 HD
BRANCH  48  51
ATOM     51  C   UNL     1      -9.323   1.233 124.263  0.00  0.00    +0.000 C 
BRANCH  51  52
ATOM     52  C   UNL     1      -8.319   0.242 123.676  0.00  0.00    +0.000 C 
BRANCH  52  53
ATOM     53  N   UNL     1      -7.296  -0.162 124.659  0.00  0.00    +0.000 NA
ATOM     54  H   UNL     1      -6.799  -0.993 124.355  0.00  0.00    +0.000 HD
ATOM     55  H   UNL     1      -7.774  -0.398 125.538  0.00  0.00    +0.000 HD
ENDBRANCH  52  53
BRANCH  52  56
ATOM     56  C   UNL     1      -9.053  -0.975 123.171  0.00  0.00    +0.000 C 
BRANCH  56  57
ATOM     57  C   UNL     1      -8.347  -2.243 123.629  0.00  0.00    +0.000 C 
BRANCH  57  58
ATOM     58  C   UNL     1      -9.293  -3.079 124.463  0.00  0.00    +0.000 C 
BRANCH  58  59
ATOM     59  N   UNL     1      -9.543  -2.409 125.727  0.00  0.00    +0.000 NA
ATOM     60  H   UNL     1     -10.344  -2.841 126.187  0.00  0.00    +0.000 HD
ATOM     61  H   UNL     1      -9.784  -1.438 125.554  0.00  0.00    +0.000 HD
ENDBRANCH  58  59
ENDBRANCH  57  58
ENDBRANCH  56  57
ENDBRANCH  52  56
ENDBRANCH  51  52
ENDBRANCH  48  51
ENDBRANCH  17  47
BRANCH   9  62
ATOM     62  C   UNL     1      -8.290   3.641 132.055  0.00  0.00    +0.000 C 
BRANCH  62  63
ATOM     63  O   UNL     1      -9.092   2.506 132.261  0.00  0.00    +0.000 OA
ATOM     64  H   UNL     1     -10.031   2.761 132.322  0.00  0.00    +0.000 HD
ENDBRANCH  62  63
ENDBRANCH   9  62
BRANCH  13  65
ATOM     65  CB  UNL     1      -9.997   6.504 128.649  0.00  0.00    +0.000 C 
BRANCH  65  66
ATOM     66  O   UNL     1     -11.357   6.064 128.633  0.00  0.00    +0.000 OA
ATOM     67  H   UNL     1     -11.705   6.099 129.553  0.00  0.00    +0.000 HD
ENDBRANCH  65  66
ENDBRANCH  13  65
TORSDOF 15
ENDMDL
MODEL 5
REMARK VINA RESULT:      -7.7      4.076      8.978
REMARK  Name = Viomycin
REMARK  15 active torsions:
REMARK  status: ('A' for Active; 'I' for Inactive)
REMARK    1  A    between atoms: C_2  and  C_10
REMARK    2  A    between atoms: C_4  and  O_5
REMARK    3  A    between atoms: CA_19  and  C_20
REMARK    4  A    between atoms: C_20  and  O_21
REMARK    5  A    between atoms: CA_25  and  CB_26
REMARK    6  A    between atoms: CB_26  and  O_27
REMARK    7  A    between atoms: CA_31  and  N_36
REMARK    8  A    between atoms: C_37  and  C_39
REMARK    9  A    between atoms: C_39  and  C_40
REMARK   10  A    between atoms: C_40  and  N_41
REMARK   11  A    between atoms: C_40  and  C_42
REMARK   12  A    between atoms: C_42  and  C_43
REMARK   13  A    between atoms: C_43  and  C_44
REMARK   14  A    between atoms: C_44  and  N_45
REMARK   15  A    between atoms: C_46  and  N_47
REMARK                            x       y       z     vdW  Elec       q    Type
REMARK                         _______ _______ _______ _____ _____    ______ ____
ROOT
ATOM      1  C   UNL     1      -7.550  -0.623 130.906  0.00  0.00    +0.000 C 
ATOM      2  N   UNL     1      -8.391   0.627 130.667  0.00  0.00    +0.000 N 
ATOM      3  C   UNL     1      -8.343   1.463 129.548  0.00  0.00    +0.000 C 
ATOM      4  O   UNL     1      -7.840   1.164 128.464  0.00  0.00    +0.000 OA
ATOM      5  C   UNL     1      -8.727   2.922 129.695  0.00  0.00    +0.000 C 
ATOM      6  N   UNL     1      -8.049   3.901 128.914  0.00  0.00    +0.000 N 
ATOM      7  C   UNL     1      -7.303   4.933 129.562  0.00  0.00    +0.000 C 
ATOM      8  O   UNL     1      -7.844   5.853 130.169  0.00  0.00    +0.000 OA
ATOM      9  CA  UNL     1      -5.726   4.784 129.579  0.00  0.00    +0.000 C 
ATOM     10  N   UNL     1      -4.843   5.639 130.434  0.00  0.00    +0.000 N 
ATOM     11  C   UNL     1      -3.515   5.215 130.707  0.00  0.00    +0.000 C 
ATOM     12  O   UNL     1      -2.707   5.138 129.773  0.00  0.00    +0.000 OA
ATOM     13  CA  UNL     1      -3.209   4.522 132.144  0.00  0.00    +0.000 C 
ATOM     14  N   UNL     1      -3.161   3.020 132.204  0.00  0.00    +0.000 N 
ATOM     15  C   UNL     1      -3.276   2.260 133.363  0.00  0.00    +0.000 C 
ATOM     16  O   UNL     1      -3.373   2.823 134.453  0.00  0.00    +0.000 OA
ATOM     17  CA  UNL     1      -3.269   0.695 133.241  0.00  0.00    +0.000 C 
ATOM     18  C   UNL     1      -4.762   0.064 133.631  0.00  0.00    +0.000 C 
ATOM     19  N   UNL     1      -5.755  -0.307 132.622  0.00  0.00    +0.000 N 
ATOM     20  C   UNL     1      -7.088  -0.607 132.491  0.00  0.00    +0.000 C 
ATOM     21  O   UNL     1      -7.849  -0.698 133.410  0.00  0.00    +0.000 OA
ATOM     22  C   UNL     1      -9.843   3.150 130.382  0.00  0.00    +0.000 C 
ATOM     23  H   UNL     1      -8.999   0.839 131.450  0.00  0.00    +0.000 HD
ATOM     24  H   UNL     1      -7.599   3.464 128.108  0.00  0.00    +0.000 HD
ATOM     25  H   UNL     1      -5.345   6.133 131.159  0.00  0.00    +0.000 HD
ATOM     26  H   UNL     1      -3.090   2.552 131.304  0.00  0.00    +0.000 HD
ATOM     27  H   UNL     1      -5.305  -0.997 132.066  0.00  0.00    +0.000 HD
ENDROOT
BRANCH   1  28
ATOM     28  C   UNL     1      -6.459  -0.849 129.750  0.00  0.00    +0.000 C 
ATOM     29  C   UNL     1      -5.218  -1.595 130.220  0.00  0.00    +0.000 C 
ATOM     30  C   UNL     1      -5.445  -3.042 130.354  0.00  0.00    +0.000 C 
ATOM     31  N   UNL     1      -6.243  -3.521 129.292  0.00  0.00    +0.000 N 
ATOM     32  C   UNL     1      -7.091  -2.841 128.509  0.00  0.00    +0.000 C 
ATOM     33  N   UNL     1      -8.252  -3.359 128.301  0.00  0.00    +0.000 NA
ATOM     34  N   UNL     1      -6.998  -1.503 128.574  0.00  0.00    +0.000 N 
ATOM     35  H   UNL     1      -5.809  -4.356 128.922  0.00  0.00    +0.000 HD
ATOM     36  H   UNL     1      -8.310  -4.289 128.732  0.00  0.00    +0.000 HD
ATOM     37  H   UNL     1      -6.745  -1.080 127.687  0.00  0.00    +0.000 HD
BRANCH  30  38
ATOM     38  O   UNL     1      -4.404  -3.961 130.263  0.00  0.00    +0.000 OA
ATOM     39  H   UNL     1      -4.204  -4.028 129.323  0.00  0.00    +0.000 HD
ENDBRANCH  30  38
ENDBRANCH   1  28
BRANCH  22  40
ATOM     40  N   UNL     1     -10.519   4.329 130.293  0.00  0.00    +0.000 N 
ATOM     41  C   UNL     1     -10.698   5.260 131.263  0.00  0.00    +0.000 C 
ATOM     42  N   UNL     1     -10.076   5.052 132.446  0.00  0.00    +0.000 N 
ATOM     43  O   UNL     1     -11.403   6.244 131.083  0.00  0.00    +0.000 OA
ATOM     44  H   UNL     1     -11.020   4.525 129.428  0.00  0.00    +0.000 HD
ATOM     45  H   UNL     1      -9.461   4.285 132.650  0.00  0.00    +0.000 HD
ATOM     46  H   UNL     1     -10.164   5.773 133.145  0.00  0.00    +0.000 HD
ENDBRANCH  22  40
BRANCH  17  47
ATOM     47  N   UNL     1      -2.222   0.078 134.044  0.00  0.00    +0.000 N 
ATOM     48  C   UNL     1      -1.787  -1.133 133.627  0.00  0.00    +0.000 C 
ATOM     49  O   UNL     1      -2.255  -1.688 132.637  0.00  0.00    +0.000 OA
ATOM     50  H   UNL     1      -1.925   0.479 134.931  0.00  0.00    +0.000 HD
BRANCH  48  51
ATOM     51  C   UNL     1      -0.669  -1.724 134.389  0.00  0.00    +0.000 C 
BRANCH  51  52
ATOM     52  C   UNL     1      -1.338  -2.615 135.434  0.00  0.00    +0.000 C 
BRANCH  52  53
ATOM     53  N   UNL     1      -2.797  -2.409 135.490  0.00  0.00    +0.000 NA
ATOM     54  H   UNL     1      -3.184  -2.250 134.566  0.00  0.00    +0.000 HD
ATOM     55  H   UNL     1      -2.979  -1.564 136.046  0.00  0.00    +0.000 HD
ENDBRANCH  52  53
BRANCH  52  56
ATOM     56  C   UNL     1      -1.037  -4.061 135.127  0.00  0.00    +0.000 C 
BRANCH  56  57
ATOM     57  C   UNL     1      -2.316  -4.885 135.161  0.00  0.00    +0.000 C 
BRANCH  57  58
ATOM     58  C   UNL     1      -2.567  -5.493 133.798  0.00  0.00    +0.000 C 
BRANCH  58  59
ATOM     59  N   UNL     1      -3.059  -4.468 132.895  0.00  0.00    +0.000 NA
ATOM     60  H   UNL     1      -2.859  -4.741 131.933  0.00  0.00    +0.000 HD
ATOM     61  H   UNL     1      -2.566  -3.597 133.068  0.00  0.00    +0.000 HD
ENDBRANCH  58  59
ENDBRANCH  57  58
ENDBRANCH  56  57
ENDBRANCH  52  56
ENDBRANCH  51  52
ENDBRANCH  48  51
ENDBRANCH  17  47
BRANCH   9  62
ATOM     62  C   UNL     1      -5.554   3.404 130.113  0.00  0.00    +0.000 C 
BRANCH  62  63
ATOM     63  O   UNL     1      -5.180   2.530 129.079  0.00  0.00    +0.000 OA
ATOM     64  H   UNL     1      -4.758   3.025 128.352  0.00  0.00    +0.000 HD
ENDBRANCH  62  63
ENDBRANCH   9  62
BRANCH  13  65
ATOM     65  CB  UNL     1      -1.828   5.009 132.610  0.00  0.00    +0.000 C 
BRANCH  65  66
ATOM     66  O   UNL     1      -1.790   5.385 133.989  0.00  0.00    +0.000 OA
ATOM     67  H   UNL     1      -1.033   4.924 134.416  0.00  0.00    +0.000 HD
ENDBRANCH  65  66
ENDBRANCH  13  65
TORSDOF 15
ENDMDL
MODEL 6
REMARK VINA RESULT:      -7.7      3.218      9.142
REMARK  Name = Viomycin
REMARK  15 active torsions:
REMARK  status: ('A' for Active; 'I' for Inactive)
REMARK    1  A    between atoms: C_2  and  C_10
REMARK    2  A    between atoms: C_4  and  O_5
REMARK    3  A    between atoms: CA_19  and  C_20
REMARK    4  A    between atoms: C_20  and  O_21
REMARK    5  A    between atoms: CA_25  and  CB_26
REMARK    6  A    between atoms: CB_26  and  O_27
REMARK    7  A    between atoms: CA_31  and  N_36
REMARK    8  A    between atoms: C_37  and  C_39
REMARK    9  A    between atoms: C_39  and  C_40
REMARK   10  A    between atoms: C_40  and  N_41
REMARK   11  A    between atoms: C_40  and  C_42
REMARK   12  A    between atoms: C_42  and  C_43
REMARK   13  A    between atoms: C_43  and  C_44
REMARK   14  A    between atoms: C_44  and  N_45
REMARK   15  A    between atoms: C_46  and  N_47
REMARK                            x       y       z     vdW  Elec       q    Type
REMARK                         _______ _______ _______ _____ _____    ______ ____
ROOT
ATOM      1  C   UNL     1      -7.791   0.225 130.895  0.00  0.00    +0.000 C 
ATOM      2  N   UNL     1      -7.917   0.136 129.379  0.00  0.00    +0.000 N 
ATOM      3  C   UNL     1      -6.935  -0.297 128.483  0.00  0.00    +0.000 C 
ATOM      4  O   UNL     1      -5.937  -0.949 128.793  0.00  0.00    +0.000 OA
ATOM      5  C   UNL     1      -6.942   0.228 127.062  0.00  0.00    +0.000 C 
ATOM      6  N   UNL     1      -5.702   0.438 126.393  0.00  0.00    +0.000 N 
ATOM      7  C   UNL     1      -5.347   1.750 125.953  0.00  0.00    +0.000 C 
ATOM      8  O   UNL     1      -5.903   2.298 125.004  0.00  0.00    +0.000 OA
ATOM      9  CA  UNL     1      -4.280   2.540 126.818  0.00  0.00    +0.000 C 
ATOM     10  N   UNL     1      -4.009   4.000 126.629  0.00  0.00    +0.000 N 
ATOM     11  C   UNL     1      -3.355   4.726 127.661  0.00  0.00    +0.000 C 
ATOM     12  O   UNL     1      -2.185   4.442 127.945  0.00  0.00    +0.000 OA
ATOM     13  CA  UNL     1      -4.263   5.642 128.649  0.00  0.00    +0.000 C 
ATOM     14  N   UNL     1      -4.642   5.070 129.987  0.00  0.00    +0.000 N 
ATOM     15  C   UNL     1      -5.678   5.530 130.791  0.00  0.00    +0.000 C 
ATOM     16  O   UNL     1      -6.329   6.515 130.442  0.00  0.00    +0.000 OA
ATOM     17  CA  UNL     1      -5.982   4.776 132.134  0.00  0.00    +0.000 C 
ATOM     18  C   UNL     1      -7.452   3.995 132.056  0.00  0.00    +0.000 C 
ATOM     19  N   UNL     1      -7.579   2.571 131.746  0.00  0.00    +0.000 N 
ATOM     20  C   UNL     1      -8.510   1.635 131.366  0.00  0.00    +0.000 C 
ATOM     21  O   UNL     1      -9.679   1.862 131.247  0.00  0.00    +0.000 OA
ATOM     22  C   UNL     1      -8.129   0.233 126.463  0.00  0.00    +0.000 C 
ATOM     23  H   UNL     1      -8.814   0.474 129.045  0.00  0.00    +0.000 HD
ATOM     24  H   UNL     1      -4.959  -0.097 126.845  0.00  0.00    +0.000 HD
ATOM     25  H   UNL     1      -4.722   4.473 126.090  0.00  0.00    +0.000 HD
ATOM     26  H   UNL     1      -4.112   4.250 130.275  0.00  0.00    +0.000 HD
ATOM     27  H   UNL     1      -7.065   2.109 132.460  0.00  0.00    +0.000 HD
ENDROOT
BRANCH   1  28
ATOM     28  C   UNL     1      -6.311  -0.134 131.402  0.00  0.00    +0.000 C 
ATOM     29  C   UNL     1      -5.927   0.558 132.703  0.00  0.00    +0.000 C 
ATOM     30  C   UNL     1      -6.537  -0.079 133.882  0.00  0.00    +0.000 C 
ATOM     31  N   UNL     1      -6.519  -1.485 133.754  0.00  0.00    +0.000 N 
ATOM     32  C   UNL     1      -6.433  -2.222 132.639  0.00  0.00    +0.000 C 
ATOM     33  N   UNL     1      -7.247  -3.214 132.521  0.00  0.00    +0.000 NA
ATOM     34  N   UNL     1      -6.078  -1.560 131.527  0.00  0.00    +0.000 N 
ATOM     35  H   UNL     1      -6.174  -1.877 134.620  0.00  0.00    +0.000 HD
ATOM     36  H   UNL     1      -7.804  -3.324 133.376  0.00  0.00    +0.000 HD
ATOM     37  H   UNL     1      -5.208  -1.894 131.127  0.00  0.00    +0.000 HD
BRANCH  30  38
ATOM     38  O   UNL     1      -5.966   0.022 135.148  0.00  0.00    +0.000 OA
ATOM     39  H   UNL     1      -6.124  -0.830 135.568  0.00  0.00    +0.000 HD
ENDBRANCH  30  38
ENDBRANCH   1  28
BRANCH  22  40
ATOM     40  N   UNL     1      -8.256   0.311 125.109  0.00  0.00    +0.000 N 
ATOM     41  C   UNL     1      -8.557  -0.688 124.243  0.00  0.00    +0.000 C 
ATOM     42  N   UNL     1      -8.846  -1.900 124.769  0.00  0.00    +0.000 N 
ATOM     43  O   UNL     1      -8.556  -0.507 123.033  0.00  0.00    +0.000 OA
ATOM     44  H   UNL     1      -8.033   1.199 124.662  0.00  0.00    +0.000 HD
ATOM     45  H   UNL     1      -8.894  -2.109 125.750  0.00  0.00    +0.000 HD
ATOM     46  H   UNL     1      -9.125  -2.625 124.127  0.00  0.00    +0.000 HD
ENDBRANCH  22  40
BRANCH  17  47
ATOM     47  N   UNL     1      -5.926   5.656 133.293  0.00  0.00    +0.000 N 
ATOM     48  C   UNL     1      -5.690   5.059 134.484  0.00  0.00    +0.000 C 
ATOM     49  O   UNL     1      -5.544   3.846 134.587  0.00  0.00    +0.000 OA
ATOM     50  H   UNL     1      -6.171   6.642 133.225  0.00  0.00    +0.000 HD
BRANCH  48  51
ATOM     51  C   UNL     1      -5.550   5.957 135.648  0.00  0.00    +0.000 C 
BRANCH  51  52
ATOM     52  C   UNL     1      -6.966   6.459 135.926  0.00  0.00    +0.000 C 
BRANCH  52  53
ATOM     53  N   UNL     1      -7.989   5.443 135.612  0.00  0.00    +0.000 NA
ATOM     54  H   UNL     1      -8.568   5.731 134.830  0.00  0.00    +0.000 HD
ATOM     55  H   UNL     1      -8.604   5.347 136.428  0.00  0.00    +0.000 HD
ENDBRANCH  52  53
BRANCH  52  56
ATOM     56  C   UNL     1      -7.079   6.866 137.374  0.00  0.00    +0.000 C 
BRANCH  56  57
ATOM     57  C   UNL     1      -8.535   7.110 137.742  0.00  0.00    +0.000 C 
BRANCH  57  58
ATOM     58  C   UNL     1      -8.894   8.555 137.469  0.00  0.00    +0.000 C 
BRANCH  58  59
ATOM     59  N   UNL     1      -9.971   8.609 136.497  0.00  0.00    +0.000 NA
ATOM     60  H   UNL     1      -9.843   7.868 135.808  0.00  0.00    +0.000 HD
ATOM     61  H   UNL     1      -9.933   9.493 135.997  0.00  0.00    +0.000 HD
ENDBRANCH  58  59
ENDBRANCH  57  58
ENDBRANCH  56  57
ENDBRANCH  52  56
ENDBRANCH  51  52
ENDBRANCH  48  51
ENDBRANCH  17  47
BRANCH   9  62
ATOM     62  C   UNL     1      -4.855   2.431 128.187  0.00  0.00    +0.000 C 
BRANCH  62  63
ATOM     63  O   UNL     1      -4.124   1.500 128.945  0.00  0.00    +0.000 OA
ATOM     64  H   UNL     1      -4.192   0.612 128.547  0.00  0.00    +0.000 HD
ENDBRANCH  62  63
ENDBRANCH   9  62
BRANCH  13  65
ATOM     65  CB  UNL     1      -3.473   6.928 128.946  0.00  0.00    +0.000 C 
BRANCH  65  66
ATOM     66  O   UNL     1      -4.285   8.104 128.969  0.00  0.00    +0.000 OA
ATOM     67  H   UNL     1      -3.798   8.826 128.511  0.00  0.00    +0.000 HD
ENDBRANCH  65  66
ENDBRANCH  13  65
TORSDOF 15
ENDMDL
MODEL 7
REMARK VINA RESULT:      -7.6      3.897      5.916
REMARK  Name = Viomycin
REMARK  15 active torsions:
REMARK  status: ('A' for Active; 'I' for Inactive)
REMARK    1  A    between atoms: C_2  and  C_10
REMARK    2  A    between atoms: C_4  and  O_5
REMARK    3  A    between atoms: CA_19  and  C_20
REMARK    4  A    between atoms: C_20  and  O_21
REMARK    5  A    between atoms: CA_25  and  CB_26
REMARK    6  A    between atoms: CB_26  and  O_27
REMARK    7  A    between atoms: CA_31  and  N_36
REMARK    8  A    between atoms: C_37  and  C_39
REMARK    9  A    between atoms: C_39  and  C_40
REMARK   10  A    between atoms: C_40  and  N_41
REMARK   11  A    between atoms: C_40  and  C_42
REMARK   12  A    between atoms: C_42  and  C_43
REMARK   13  A    between atoms: C_43  and  C_44
REMARK   14  A    between atoms: C_44  and  N_45
REMARK   15  A    between atoms: C_46  and  N_47
REMARK                            x       y       z     vdW  Elec       q    Type
REMARK                         _______ _______ _______ _____ _____    ______ ____
ROOT
ATOM      1  C   UNL     1      -7.018   3.504 128.636  0.00  0.00    +0.000 C 
ATOM      2  N   UNL     1      -6.745   3.974 130.060  0.00  0.00    +0.000 N 
ATOM      3  C   UNL     1      -5.492   4.182 130.645  0.00  0.00    +0.000 C 
ATOM      4  O   UNL     1      -4.436   4.307 130.023  0.00  0.00    +0.000 OA
ATOM      5  C   UNL     1      -5.339   4.035 132.145  0.00  0.00    +0.000 C 
ATOM      6  N   UNL     1      -4.121   3.517 132.672  0.00  0.00    +0.000 N 
ATOM      7  C   UNL     1      -4.135   2.306 133.430  0.00  0.00    +0.000 C 
ATOM      8  O   UNL     1      -4.602   2.246 134.564  0.00  0.00    +0.000 OA
ATOM      9  CA  UNL     1      -3.632   0.992 132.702  0.00  0.00    +0.000 C 
ATOM     10  N   UNL     1      -3.831  -0.376 133.278  0.00  0.00    +0.000 N 
ATOM     11  C   UNL     1      -3.723  -1.511 132.429  0.00  0.00    +0.000 C 
ATOM     12  O   UNL     1      -2.628  -1.775 131.918  0.00  0.00    +0.000 OA
ATOM     13  CA  UNL     1      -5.092  -2.201 131.890  0.00  0.00    +0.000 C 
ATOM     14  N   UNL     1      -5.562  -1.843 130.507  0.00  0.00    +0.000 N 
ATOM     15  C   UNL     1      -6.851  -2.034 130.024  0.00  0.00    +0.000 C 
ATOM     16  O   UNL     1      -7.693  -2.582 130.735  0.00  0.00    +0.000 OA
ATOM     17  CA  UNL     1      -7.192  -1.544 128.572  0.00  0.00    +0.000 C 
ATOM     18  C   UNL     1      -8.251  -0.258 128.613  0.00  0.00    +0.000 C 
ATOM     19  N   UNL     1      -7.815   1.134 128.500  0.00  0.00    +0.000 N 
ATOM     20  C   UNL     1      -8.259   2.416 128.708  0.00  0.00    +0.000 C 
ATOM     21  O   UNL     1      -9.373   2.694 129.045  0.00  0.00    +0.000 OA
ATOM     22  C   UNL     1      -6.282   4.627 132.874  0.00  0.00    +0.000 C 
ATOM     23  H   UNL     1      -7.597   4.095 130.598  0.00  0.00    +0.000 HD
ATOM     24  H   UNL     1      -3.371   3.605 131.985  0.00  0.00    +0.000 HD
ATOM     25  H   UNL     1      -4.513  -0.401 134.024  0.00  0.00    +0.000 HD
ATOM     26  H   UNL     1      -4.871  -1.381 129.920  0.00  0.00    +0.000 HD
ATOM     27  H   UNL     1      -7.359   1.186 127.618  0.00  0.00    +0.000 HD
ENDROOT
BRANCH   1  28
ATOM     28  C   UNL     1      -5.668   3.136 127.850  0.00  0.00    +0.000 C 
ATOM     29  C   UNL     1      -5.812   1.943 126.915  0.00  0.00    +0.000 C 
ATOM     30  C   UNL     1      -6.504   2.287 125.662  0.00  0.00    +0.000 C 
ATOM     31  N   UNL     1      -6.087   3.553 125.195  0.00  0.00    +0.000 N 
ATOM     32  C   UNL     1      -5.538   4.561 125.885  0.00  0.00    +0.000 C 
ATOM     33  N   UNL     1      -6.008   5.744 125.681  0.00  0.00    +0.000 NA
ATOM     34  N   UNL     1      -5.107   4.256 127.119  0.00  0.00    +0.000 N 
ATOM     35  H   UNL     1      -5.874   3.472 124.209  0.00  0.00    +0.000 HD
ATOM     36  H   UNL     1      -6.709   5.725 124.932  0.00  0.00    +0.000 HD
ATOM     37  H   UNL     1      -4.109   4.394 127.237  0.00  0.00    +0.000 HD
BRANCH  30  38
ATOM     38  O   UNL     1      -6.309   1.559 124.492  0.00  0.00    +0.000 OA
ATOM     39  H   UNL     1      -6.758   0.720 124.636  0.00  0.00    +0.000 HD
ENDBRANCH  30  38
ENDBRANCH   1  28
BRANCH  22  40
ATOM     40  N   UNL     1      -6.103   4.910 134.194  0.00  0.00    +0.000 N 
ATOM     41  C   UNL     1      -7.044   4.954 135.169  0.00  0.00    +0.000 C 
ATOM     42  N   UNL     1      -8.306   4.601 134.832  0.00  0.00    +0.000 N 
ATOM     43  O   UNL     1      -6.769   5.308 136.308  0.00  0.00    +0.000 OA
ATOM     44  H   UNL     1      -5.174   5.198 134.497  0.00  0.00    +0.000 HD
ATOM     45  H   UNL     1      -8.593   4.273 133.927  0.00  0.00    +0.000 HD
ATOM     46  H   UNL     1      -8.991   4.580 135.571  0.00  0.00    +0.000 HD
ENDBRANCH  22  40
BRANCH  17  47
ATOM     47  N   UNL     1      -7.711  -2.614 127.730  0.00  0.00    +0.000 N 
ATOM     48  C   UNL     1      -7.477  -2.495 126.403  0.00  0.00    +0.000 C 
ATOM     49  O   UNL     1      -6.874  -1.536 125.931  0.00  0.00    +0.000 OA
ATOM     50  H   UNL     1      -8.316  -3.341 128.106  0.00  0.00    +0.000 HD
BRANCH  48  51
ATOM     51  C   UNL     1      -7.928  -3.617 125.557  0.00  0.00    +0.000 C 
BRANCH  51  52
ATOM     52  C   UNL     1      -9.321  -3.209 125.078  0.00  0.00    +0.000 C 
BRANCH  52  53
ATOM     53  N   UNL     1      -9.703  -1.868 125.556  0.00  0.00    +0.000 NA
ATOM     54  H   UNL     1      -9.047  -1.521 126.249  0.00  0.00    +0.000 HD
ATOM     55  H   UNL     1     -10.619  -1.941 126.016  0.00  0.00    +0.000 HD
ENDBRANCH  52  53
BRANCH  52  56
ATOM     56  C   UNL     1      -9.364  -3.246 123.571  0.00  0.00    +0.000 C 
BRANCH  56  57
ATOM     57  C   UNL     1      -9.002  -1.883 122.999  0.00  0.00    +0.000 C 
BRANCH  57  58
ATOM     58  C   UNL     1      -7.606  -1.929 122.418  0.00  0.00    +0.000 C 
BRANCH  58  59
ATOM     59  N   UNL     1      -6.781  -0.921 123.062  0.00  0.00    +0.000 NA
ATOM     60  H   UNL     1      -6.811  -0.060 122.516  0.00  0.00    +0.000 HD
ATOM     61  H   UNL     1      -5.815  -1.232 123.078  0.00  0.00    +0.000 HD
ENDBRANCH  58  59
ENDBRANCH  57  58
ENDBRANCH  56  57
ENDBRANCH  52  56
ENDBRANCH  51  52
ENDBRANCH  48  51
ENDBRANCH  17  47
BRANCH   9  62
ATOM     62  C   UNL     1      -4.443   1.003 131.453  0.00  0.00    +0.000 C 
BRANCH  62  63
ATOM     63  O   UNL     1      -5.813   1.007 131.767  0.00  0.00    +0.000 OA
ATOM     64  H   UNL     1      -5.939   1.011 132.734  0.00  0.00    +0.000 HD
ENDBRANCH  62  63
ENDBRANCH   9  62
BRANCH  13  65
ATOM     65  CB  UNL     1      -4.875  -3.723 131.884  0.00  0.00    +0.000 C 
BRANCH  65  66
ATOM     66  O   UNL     1      -5.969  -4.458 132.437  0.00  0.00    +0.000 OA
ATOM     67  H   UNL     1      -6.351  -5.025 131.730  0.00  0.00    +0.000 HD
ENDBRANCH  65  66
ENDBRANCH  13  65
TORSDOF 15
ENDMDL
MODEL 8
REMARK VINA RESULT:      -7.5      3.331      8.653
REMARK  Name = Viomycin
REMARK  15 active torsions:
REMARK  status: ('A' for Active; 'I' for Inactive)
REMARK    1  A    between atoms: C_2  and  C_10
REMARK    2  A    between atoms: C_4  and  O_5
REMARK    3  A    between atoms: CA_19  and  C_20
REMARK    4  A    between atoms: C_20  and  O_21
REMARK    5  A    between atoms: CA_25  and  CB_26
REMARK    6  A    between atoms: CB_26  and  O_27
REMARK    7  A    between atoms: CA_31  and  N_36
REMARK    8  A    between atoms: C_37  and  C_39
REMARK    9  A    between atoms: C_39  and  C_40
REMARK   10  A    between atoms: C_40  and  N_41
REMARK   11  A    between atoms: C_40  and  C_42
REMARK   12  A    between atoms: C_42  and  C_43
REMARK   13  A    between atoms: C_43  and  C_44
REMARK   14  A    between atoms: C_44  and  N_45
REMARK   15  A    between atoms: C_46  and  N_47
REMARK                            x       y       z     vdW  Elec       q    Type
REMARK                         _______ _______ _______ _____ _____    ______ ____
ROOT
ATOM      1  C   UNL     1      -7.590   0.052 130.883  0.00  0.00    +0.000 C 
ATOM      2  N   UNL     1      -7.876  -0.056 129.389  0.00  0.00    +0.000 N 
ATOM      3  C   UNL     1      -7.005  -0.532 128.405  0.00  0.00    +0.000 C 
ATOM      4  O   UNL     1      -5.998  -1.209 128.621  0.00  0.00    +0.000 OA
ATOM      5  C   UNL     1      -7.144  -0.028 126.983  0.00  0.00    +0.000 C 
ATOM      6  N   UNL     1      -5.975   0.134 126.185  0.00  0.00    +0.000 N 
ATOM      7  C   UNL     1      -5.631   1.429 125.687  0.00  0.00    +0.000 C 
ATOM      8  O   UNL     1      -6.267   1.979 124.792  0.00  0.00    +0.000 OA
ATOM      9  CA  UNL     1      -4.458   2.199 126.423  0.00  0.00    +0.000 C 
ATOM     10  N   UNL     1      -4.167   3.647 126.181  0.00  0.00    +0.000 N 
ATOM     11  C   UNL     1      -3.389   4.369 127.126  0.00  0.00    +0.000 C 
ATOM     12  O   UNL     1      -2.205   4.054 127.292  0.00  0.00    +0.000 OA
ATOM     13  CA  UNL     1      -4.163   5.327 128.187  0.00  0.00    +0.000 C 
ATOM     14  N   UNL     1      -4.417   4.786 129.566  0.00  0.00    +0.000 N 
ATOM     15  C   UNL     1      -5.351   5.289 130.465  0.00  0.00    +0.000 C 
ATOM     16  O   UNL     1      -6.006   6.287 130.167  0.00  0.00    +0.000 OA
ATOM     17  CA  UNL     1      -5.535   4.564 131.846  0.00  0.00    +0.000 C 
ATOM     18  C   UNL     1      -7.026   3.827 131.934  0.00  0.00    +0.000 C 
ATOM     19  N   UNL     1      -7.225   2.402 131.665  0.00  0.00    +0.000 N 
ATOM     20  C   UNL     1      -8.216   1.489 131.400  0.00  0.00    +0.000 C 
ATOM     21  O   UNL     1      -9.384   1.749 131.399  0.00  0.00    +0.000 OA
ATOM     22  C   UNL     1      -8.387   0.003 126.510  0.00  0.00    +0.000 C 
ATOM     23  H   UNL     1      -8.792   0.304 129.144  0.00  0.00    +0.000 HD
ATOM     24  H   UNL     1      -5.205  -0.416 126.568  0.00  0.00    +0.000 HD
ATOM     25  H   UNL     1      -4.918   4.133 125.710  0.00  0.00    +0.000 HD
ATOM     26  H   UNL     1      -3.883   3.955 129.813  0.00  0.00    +0.000 HD
ATOM     27  H   UNL     1      -6.652   1.936 132.330  0.00  0.00    +0.000 HD
ENDROOT
BRANCH   1  28
ATOM     28  C   UNL     1      -6.076  -0.344 131.240  0.00  0.00    +0.000 C 
ATOM     29  C   UNL     1      -5.540   0.356 132.482  0.00  0.00    +0.000 C 
ATOM     30  C   UNL     1      -6.041  -0.244 133.729  0.00  0.00    +0.000 C 
ATOM     31  N   UNL     1      -6.077  -1.652 133.625  0.00  0.00    +0.000 N 
ATOM     32  C   UNL     1      -6.128  -2.408 132.522  0.00  0.00    +0.000 C 
ATOM     33  N   UNL     1      -6.978  -3.377 132.506  0.00  0.00    +0.000 NA
ATOM     34  N   UNL     1      -5.872  -1.774 131.367  0.00  0.00    +0.000 N 
ATOM     35  H   UNL     1      -5.654  -2.041 134.458  0.00  0.00    +0.000 HD
ATOM     36  H   UNL     1      -7.445  -3.457 133.417  0.00  0.00    +0.000 HD
ATOM     37  H   UNL     1      -5.059  -2.140 130.884  0.00  0.00    +0.000 HD
BRANCH  30  38
ATOM     38  O   UNL     1      -5.339  -0.141 134.927  0.00  0.00    +0.000 OA
ATOM     39  H   UNL     1      -5.318  -1.033 135.288  0.00  0.00    +0.000 HD
ENDBRANCH  30  38
ENDBRANCH   1  28
BRANCH  22  40
ATOM     40  N   UNL     1      -8.651   0.065 125.175  0.00  0.00    +0.000 N 
ATOM     41  C   UNL     1      -8.862  -0.967 124.321  0.00  0.00    +0.000 C 
ATOM     42  N   UNL     1      -8.895  -2.213 124.847  0.00  0.00    +0.000 N 
ATOM     43  O   UNL     1      -9.005  -0.783 123.119  0.00  0.00    +0.000 OA
ATOM     44  H   UNL     1      -8.622   0.980 124.727  0.00  0.00    +0.000 HD
ATOM     45  H   UNL     1      -8.815  -2.430 125.824  0.00  0.00    +0.000 HD
ATOM     46  H   UNL     1      -9.108  -2.971 124.219  0.00  0.00    +0.000 HD
ENDBRANCH  22  40
BRANCH  17  47
ATOM     47  N   UNL     1      -5.334   5.460 132.976  0.00  0.00    +0.000 N 
ATOM     48  C   UNL     1      -4.881   4.888 134.116  0.00  0.00    +0.000 C 
ATOM     49  O   UNL     1      -4.663   3.684 134.199  0.00  0.00    +0.000 OA
ATOM     50  H   UNL     1      -5.632   6.433 132.945  0.00  0.00    +0.000 HD
BRANCH  48  51
ATOM     51  C   UNL     1      -4.597   5.805 135.239  0.00  0.00    +0.000 C 
BRANCH  51  52
ATOM     52  C   UNL     1      -3.124   6.176 135.075  0.00  0.00    +0.000 C 
BRANCH  52  53
ATOM     53  N   UNL     1      -2.465   5.389 134.016  0.00  0.00    +0.000 NA
ATOM     54  H   UNL     1      -2.975   5.446 133.141  0.00  0.00    +0.000 HD
ATOM     55  H   UNL     1      -2.466   4.403 134.305  0.00  0.00    +0.000 HD
ENDBRANCH  52  53
BRANCH  52  56
ATOM     56  C   UNL     1      -3.010   7.648 134.763  0.00  0.00    +0.000 C 
BRANCH  56  57
ATOM     57  C   UNL     1      -1.951   7.881 133.695  0.00  0.00    +0.000 C 
BRANCH  57  58
ATOM     58  C   UNL     1      -2.565   8.607 132.518  0.00  0.00    +0.000 C 
BRANCH  58  59
ATOM     59  N   UNL     1      -3.437   7.699 131.793  0.00  0.00    +0.000 NA
ATOM     60  H   UNL     1      -4.370   8.106 131.728  0.00  0.00    +0.000 HD
ATOM     61  H   UNL     1      -3.524   6.828 132.307  0.00  0.00    +0.000 HD
ENDBRANCH  58  59
ENDBRANCH  57  58
ENDBRANCH  56  57
ENDBRANCH  52  56
ENDBRANCH  51  52
ENDBRANCH  48  51
ENDBRANCH  17  47
BRANCH   9  62
ATOM     62  C   UNL     1      -4.890   2.128 127.846  0.00  0.00    +0.000 C 
BRANCH  62  63
ATOM     63  O   UNL     1      -4.093   1.208 128.547  0.00  0.00    +0.000 OA
ATOM     64  H   UNL     1      -4.408   1.116 129.465  0.00  0.00    +0.000 HD
ENDBRANCH  62  63
ENDBRANCH   9  62
BRANCH  13  65
ATOM     65  CB  UNL     1      -3.311   6.592 128.377  0.00  0.00    +0.000 C 
BRANCH  65  66
ATOM     66  O   UNL     1      -4.082   7.763 128.653  0.00  0.00    +0.000 OA
ATOM     67  H   UNL     1      -3.850   8.083 129.554  0.00  0.00    +0.000 HD
ENDBRANCH  65  66
ENDBRANCH  13  65
TORSDOF 15
ENDMDL
MODEL 9
REMARK VINA RESULT:      -7.4      4.008      6.027
REMARK  Name = Viomycin
REMARK  15 active torsions:
REMARK  status: ('A' for Active; 'I' for Inactive)
REMARK    1  A    between atoms: C_2  and  C_10
REMARK    2  A    between atoms: C_4  and  O_5
REMARK    3  A    between atoms: CA_19  and  C_20
REMARK    4  A    between atoms: C_20  and  O_21
REMARK    5  A    between atoms: CA_25  and  CB_26
REMARK    6  A    between atoms: CB_26  and  O_27
REMARK    7  A    between atoms: CA_31  and  N_36
REMARK    8  A    between atoms: C_37  and  C_39
REMARK    9  A    between atoms: C_39  and  C_40
REMARK   10  A    between atoms: C_40  and  N_41
REMARK   11  A    between atoms: C_40  and  C_42
REMARK   12  A    between atoms: C_42  and  C_43
REMARK   13  A    between atoms: C_43  and  C_44
REMARK   14  A    between atoms: C_44  and  N_45
REMARK   15  A    between atoms: C_46  and  N_47
REMARK                            x       y       z     vdW  Elec       q    Type
REMARK                         _______ _______ _______ _____ _____    ______ ____
ROOT
ATOM      1  C   UNL     1      -5.983   4.197 130.024  0.00  0.00    +0.000 C 
ATOM      2  N   UNL     1      -5.826   4.212 131.540  0.00  0.00    +0.000 N 
ATOM      3  C   UNL     1      -4.642   4.022 132.259  0.00  0.00    +0.000 C 
ATOM      4  O   UNL     1      -3.508   4.111 131.786  0.00  0.00    +0.000 OA
ATOM      5  C   UNL     1      -4.709   3.455 133.663  0.00  0.00    +0.000 C 
ATOM      6  N   UNL     1      -3.664   2.600 134.117  0.00  0.00    +0.000 N 
ATOM      7  C   UNL     1      -3.963   1.256 134.496  0.00  0.00    +0.000 C 
ATOM      8  O   UNL     1      -4.576   0.983 135.525  0.00  0.00    +0.000 OA
ATOM      9  CA  UNL     1      -3.580   0.113 133.468  0.00  0.00    +0.000 C 
ATOM     10  N   UNL     1      -4.061  -1.298 133.612  0.00  0.00    +0.000 N 
ATOM     11  C   UNL     1      -4.022  -2.166 132.488  0.00  0.00    +0.000 C 
ATOM     12  O   UNL     1      -2.924  -2.482 132.013  0.00  0.00    +0.000 OA
ATOM     13  CA  UNL     1      -5.400  -2.422 131.666  0.00  0.00    +0.000 C 
ATOM     14  N   UNL     1      -5.626  -1.629 130.408  0.00  0.00    +0.000 N 
ATOM     15  C   UNL     1      -6.856  -1.442 129.788  0.00  0.00    +0.000 C 
ATOM     16  O   UNL     1      -7.857  -1.995 130.243  0.00  0.00    +0.000 OA
ATOM     17  CA  UNL     1      -6.926  -0.530 128.512  0.00  0.00    +0.000 C 
ATOM     18  C   UNL     1      -7.770   0.871 128.832  0.00  0.00    +0.000 C 
ATOM     19  N   UNL     1      -7.112   2.138 129.155  0.00  0.00    +0.000 N 
ATOM     20  C   UNL     1      -7.375   3.378 129.683  0.00  0.00    +0.000 C 
ATOM     21  O   UNL     1      -8.467   3.757 129.994  0.00  0.00    +0.000 OA
ATOM     22  C   UNL     1      -5.634   3.996 134.451  0.00  0.00    +0.000 C 
ATOM     23  H   UNL     1      -6.711   4.341 132.019  0.00  0.00    +0.000 HD
ATOM     24  H   UNL     1      -2.827   2.728 133.547  0.00  0.00    +0.000 HD
ATOM     25  H   UNL     1      -4.829  -1.394 134.263  0.00  0.00    +0.000 HD
ATOM     26  H   UNL     1      -4.802  -1.163 130.035  0.00  0.00    +0.000 HD
ATOM     27  H   UNL     1      -6.544   2.338 128.365  0.00  0.00    +0.000 HD
ENDROOT
BRANCH   1  28
ATOM     28  C   UNL     1      -4.616   3.808 129.278  0.00  0.00    +0.000 C 
ATOM     29  C   UNL     1      -4.827   3.134 127.929  0.00  0.00    +0.000 C 
ATOM     30  C   UNL     1      -5.190   4.089 126.870  0.00  0.00    +0.000 C 
ATOM     31  N   UNL     1      -4.442   5.280 126.996  0.00  0.00    +0.000 N 
ATOM     32  C   UNL     1      -3.835   5.776 128.082  0.00  0.00    +0.000 C 
ATOM     33  N   UNL     1      -4.005   7.028 128.337  0.00  0.00    +0.000 NA
ATOM     34  N   UNL     1      -3.711   4.931 129.118  0.00  0.00    +0.000 N 
ATOM     35  H   UNL     1      -4.073   5.520 126.086  0.00  0.00    +0.000 HD
ATOM     36  H   UNL     1      -4.544   7.475 127.587  0.00  0.00    +0.000 HD
ATOM     37  H   UNL     1      -2.745   4.748 129.368  0.00  0.00    +0.000 HD
BRANCH  30  38
ATOM     38  O   UNL     1      -4.937   3.826 125.526  0.00  0.00    +0.000 OA
ATOM     39  H   UNL     1      -5.490   4.443 125.037  0.00  0.00    +0.000 HD
ENDBRANCH  30  38
ENDBRANCH   1  28
BRANCH  22  40
ATOM     40  N   UNL     1      -5.586   3.880 135.807  0.00  0.00    +0.000 N 
ATOM     41  C   UNL     1      -5.674   4.870 136.730  0.00  0.00    +0.000 C 
ATOM     42  N   UNL     1      -5.915   6.122 136.276  0.00  0.00    +0.000 N 
ATOM     43  O   UNL     1      -5.529   4.646 137.924  0.00  0.00    +0.000 OA
ATOM     44  H   UNL     1      -5.390   2.960 136.199  0.00  0.00    +0.000 HD
ATOM     45  H   UNL     1      -6.073   6.369 135.316  0.00  0.00    +0.000 HD
ATOM     46  H   UNL     1      -6.036   6.846 136.968  0.00  0.00    +0.000 HD
ENDBRANCH  22  40
BRANCH  17  47
ATOM     47  N   UNL     1      -7.492  -1.222 127.363  0.00  0.00    +0.000 N 
ATOM     48  C   UNL     1      -6.611  -1.873 126.567  0.00  0.00    +0.000 C 
ATOM     49  O   UNL     1      -5.405  -1.872 126.792  0.00  0.00    +0.000 OA
ATOM     50  H   UNL     1      -8.472  -1.119 127.108  0.00  0.00    +0.000 HD
BRANCH  48  51
ATOM     51  C   UNL     1      -7.189  -2.645 125.449  0.00  0.00    +0.000 C 
BRANCH  51  52
ATOM     52  C   UNL     1      -6.879  -1.816 124.203  0.00  0.00    +0.000 C 
BRANCH  52  53
ATOM     53  N   UNL     1      -6.411  -0.459 124.539  0.00  0.00    +0.000 NA
ATOM     54  H   UNL     1      -7.164   0.218 124.476  0.00  0.00    +0.000 HD
ATOM     55  H   UNL     1      -5.699  -0.187 123.851  0.00  0.00    +0.000 HD
ENDBRANCH  52  53
BRANCH  52  56
ATOM     56  C   UNL     1      -5.836  -2.526 123.376  0.00  0.00    +0.000 C 
BRANCH  56  57
ATOM     57  C   UNL     1      -5.530  -3.893 123.972  0.00  0.00    +0.000 C 
BRANCH  57  58
ATOM     58  C   UNL     1      -4.117  -4.300 123.616  0.00  0.00    +0.000 C 
BRANCH  58  59
ATOM     59  N   UNL     1      -4.134  -5.616 123.003  0.00  0.00    +0.000 NA
ATOM     60  H   UNL     1      -3.727  -6.294 123.647  0.00  0.00    +0.000 HD
ATOM     61  H   UNL     1      -3.555  -5.610 122.169  0.00  0.00    +0.000 HD
ENDBRANCH  58  59
ENDBRANCH  57  58
ENDBRANCH  56  57
ENDBRANCH  52  56
ENDBRANCH  51  52
ENDBRANCH  48  51
ENDBRANCH  17  47
BRANCH   9  62
ATOM     62  C   UNL     1      -4.211   0.606 132.212  0.00  0.00    +0.000 C 
BRANCH  62  63
ATOM     63  O   UNL     1      -5.579   0.848 132.423  0.00  0.00    +0.000 OA
ATOM     64  H   UNL     1      -5.968   1.295 131.648  0.00  0.00    +0.000 HD
ENDBRANCH  62  63
ENDBRANCH   9  62
BRANCH  13  65
ATOM     65  CB  UNL     1      -5.422  -3.900 131.245  0.00  0.00    +0.000 C 
BRANCH  65  66
ATOM     66  O   UNL     1      -4.773  -4.768 132.177  0.00  0.00    +0.000 OA
ATOM     67  H   UNL     1      -3.801  -4.706 132.034  0.00  0.00    +0.000 HD
ENDBRANCH  65  66
ENDBRANCH  13  65
TORSDOF 15
ENDMDL
