MODEL 1
REMARK VINA RESULT:      -7.9      0.000      0.000
REMARK  Name = Vismodegib
REMARK  5 active torsions:
REMARK  status: ('A' for Active; 'I' for Inactive)
REMARK    1  A    between atoms: C_1  and  S_2
REMARK    2  A    between atoms: S_2  and  C_5
REMARK    3  A    between atoms: C_9  and  C_12
REMARK    4  A    between atoms: N_14  and  C_15
REMARK    5  A    between atoms: C_20  and  C_22
REMARK                            x       y       z     vdW  Elec       q    Type
REMARK                         _______ _______ _______ _____ _____    ______ ____
ROOT
ATOM      1  C   UNL     1      -6.968  -2.626 129.146  0.00  0.00    +0.000 C 
ATOM      2  O   UNL     1      -5.884  -2.551 128.568  0.00  0.00    +0.000 OA
ATOM      3  N   UNL     1      -8.194  -2.580 128.482  0.00  0.00    +0.000 N 
ATOM      4  H   UNL     1      -9.039  -2.449 129.023  0.00  0.00    +0.000 HD
ENDROOT
BRANCH   1   9
ATOM      5  C   UNL     1      -7.045  -2.655 133.496  0.00  0.00    +0.000 A 
ATOM      6  C   UNL     1      -6.428  -3.704 132.819  0.00  0.00    +0.000 A 
ATOM      7  C   UNL     1      -6.374  -3.728 131.414  0.00  0.00    +0.000 A 
ATOM      8 CL   UNL     1      -5.555  -5.100 130.753  0.00  0.00    +0.000 Cl
ATOM      9  C   UNL     1      -6.949  -2.700 130.654  0.00  0.00    +0.000 A 
ATOM     10  C   UNL     1      -7.561  -1.633 131.363  0.00  0.00    +0.000 A 
ATOM     11  C   UNL     1      -7.611  -1.607 132.770  0.00  0.00    +0.000 A 
BRANCH   5  13
ATOM     12  C   UNL     1      -6.049  -3.966 135.836  0.00  0.00    +0.000 C 
ATOM     13  S   UNL     1      -7.110  -2.650 135.279  0.00  0.00    +0.000 S 
ATOM     14  O   UNL     1      -8.467  -3.017 135.651  0.00  0.00    +0.000 OA
ATOM     15  O   UNL     1      -6.527  -1.398 135.704  0.00  0.00    +0.000 OA
ENDBRANCH   5  13
ENDBRANCH   1   9
BRANCH   3  16
ATOM     16  C   UNL     1      -8.330  -2.540 127.074  0.00  0.00    +0.000 A 
ATOM     17  C   UNL     1      -8.480  -3.727 126.362  0.00  0.00    +0.000 A 
ATOM     18  C   UNL     1      -8.599  -3.712 124.979  0.00  0.00    +0.000 A 
ATOM     19  C   UNL     1      -8.559  -2.503 124.284  0.00  0.00    +0.000 A 
ATOM     20 CL   UNL     1      -8.635  -2.617 122.554  0.00  0.00    +0.000 Cl
ATOM     21  C   UNL     1      -8.461  -1.271 124.969  0.00  0.00    +0.000 A 
ATOM     22  C   UNL     1      -8.361  -1.312 126.385  0.00  0.00    +0.000 A 
BRANCH  21  23
ATOM     23  C   UNL     1      -8.520   0.011 124.238  0.00  0.00    +0.000 A 
ATOM     24  C   UNL     1      -7.342   0.653 123.846  0.00  0.00    +0.000 A 
ATOM     25  C   UNL     1      -7.403   1.917 123.270  0.00  0.00    +0.000 A 
ATOM     26  C   UNL     1      -8.641   2.506 123.071  0.00  0.00    +0.000 A 
ATOM     27  C   UNL     1      -9.769   1.795 123.452  0.00  0.00    +0.000 A 
ATOM     28  N   UNL     1      -9.741   0.560 124.021  0.00  0.00    +0.000 NA
ENDBRANCH  21  23
ENDBRANCH   3  16
TORSDOF 4
ENDMDL
MODEL 2
REMARK VINA RESULT:      -7.7      9.632     10.605
REMARK  Name = Vismodegib
REMARK  5 active torsions:
REMARK  status: ('A' for Active; 'I' for Inactive)
REMARK    1  A    between atoms: C_1  and  S_2
REMARK    2  A    between atoms: S_2  and  C_5
REMARK    3  A    between atoms: C_9  and  C_12
REMARK    4  A    between atoms: N_14  and  C_15
REMARK    5  A    between atoms: C_20  and  C_22
REMARK                            x       y       z     vdW  Elec       q    Type
REMARK                         _______ _______ _______ _____ _____    ______ ____
ROOT
ATOM      1  C   UNL     1      -4.996   6.043 131.833  0.00  0.00    +0.000 C 
ATOM      2  O   UNL     1      -4.879   5.462 130.754  0.00  0.00    +0.000 OA
ATOM      3  N   UNL     1      -6.229   6.312 132.428  0.00  0.00    +0.000 N 
ATOM      4  H   UNL     1      -6.266   6.959 133.206  0.00  0.00    +0.000 HD
ENDROOT
BRANCH   1   9
ATOM      5  C   UNL     1      -1.381   7.684 133.613  0.00  0.00    +0.000 A 
ATOM      6  C   UNL     1      -1.871   6.463 134.070  0.00  0.00    +0.000 A 
ATOM      7  C   UNL     1      -3.031   5.894 133.515  0.00  0.00    +0.000 A 
ATOM      8 CL   UNL     1      -3.478   4.370 134.198  0.00  0.00    +0.000 Cl
ATOM      9  C   UNL     1      -3.733   6.546 132.492  0.00  0.00    +0.000 A 
ATOM     10  C   UNL     1      -3.210   7.783 132.032  0.00  0.00    +0.000 A 
ATOM     11  C   UNL     1      -2.046   8.350 132.584  0.00  0.00    +0.000 A 
BRANCH   5  13
ATOM     12  C   UNL     1      -0.427   9.250 135.810  0.00  0.00    +0.000 C 
ATOM     13  S   UNL     1       0.088   8.391 134.340  0.00  0.00    +0.000 S 
ATOM     14  O   UNL     1       0.572   9.399 133.410  0.00  0.00    +0.000 OA
ATOM     15  O   UNL     1       0.919   7.278 134.740  0.00  0.00    +0.000 OA
ENDBRANCH   5  13
ENDBRANCH   1   9
BRANCH   3  16
ATOM     16  C   UNL     1      -7.468   5.865 131.915  0.00  0.00    +0.000 A 
ATOM     17  C   UNL     1      -7.895   4.565 132.177  0.00  0.00    +0.000 A 
ATOM     18  C   UNL     1      -9.102   4.101 131.670  0.00  0.00    +0.000 A 
ATOM     19  C   UNL     1      -9.897   4.931 130.881  0.00  0.00    +0.000 A 
ATOM     20 CL   UNL     1     -11.340   4.214 130.237  0.00  0.00    +0.000 Cl
ATOM     21  C   UNL     1      -9.530   6.274 130.633  0.00  0.00    +0.000 A 
ATOM     22  C   UNL     1      -8.301   6.730 131.179  0.00  0.00    +0.000 A 
BRANCH  21  23
ATOM     23  C   UNL     1     -10.422   7.178 129.881  0.00  0.00    +0.000 A 
ATOM     24  C   UNL     1     -11.663   7.544 130.410  0.00  0.00    +0.000 A 
ATOM     25  C   UNL     1     -12.548   8.293 129.644  0.00  0.00    +0.000 A 
ATOM     26  C   UNL     1     -12.168   8.686 128.370  0.00  0.00    +0.000 A 
ATOM     27  C   UNL     1     -10.908   8.316 127.924  0.00  0.00    +0.000 A 
ATOM     28  N   UNL     1     -10.023   7.581 128.649  0.00  0.00    +0.000 NA
ENDBRANCH  21  23
ENDBRANCH   3  16
TORSDOF 4
ENDMDL
MODEL 3
REMARK VINA RESULT:      -7.6      6.362      7.321
REMARK  Name = Vismodegib
REMARK  5 active torsions:
REMARK  status: ('A' for Active; 'I' for Inactive)
REMARK    1  A    between atoms: C_1  and  S_2
REMARK    2  A    between atoms: S_2  and  C_5
REMARK    3  A    between atoms: C_9  and  C_12
REMARK    4  A    between atoms: N_14  and  C_15
REMARK    5  A    between atoms: C_20  and  C_22
REMARK                            x       y       z     vdW  Elec       q    Type
REMARK                         _______ _______ _______ _____ _____    ______ ____
ROOT
ATOM      1  C   UNL     1      -3.831   3.358 127.380  0.00  0.00    +0.000 C 
ATOM      2  O   UNL     1      -2.980   3.046 126.546  0.00  0.00    +0.000 OA
ATOM      3  N   UNL     1      -5.184   3.047 127.246  0.00  0.00    +0.000 N 
ATOM      4  H   UNL     1      -5.853   3.498 127.859  0.00  0.00    +0.000 HD
ENDROOT
BRANCH   1   9
ATOM      5  C   UNL     1      -2.459   5.888 130.644  0.00  0.00    +0.000 A 
ATOM      6  C   UNL     1      -3.109   4.691 130.936  0.00  0.00    +0.000 A 
ATOM      7  C   UNL     1      -3.560   3.841 129.911  0.00  0.00    +0.000 A 
ATOM      8 CL   UNL     1      -4.329   2.395 130.466  0.00  0.00    +0.000 Cl
ATOM      9  C   UNL     1      -3.376   4.180 128.563  0.00  0.00    +0.000 A 
ATOM     10  C   UNL     1      -2.700   5.397 128.286  0.00  0.00    +0.000 A 
ATOM     11  C   UNL     1      -2.244   6.245 129.313  0.00  0.00    +0.000 A 
BRANCH   5  13
ATOM     12  C   UNL     1      -2.482   6.237 133.484  0.00  0.00    +0.000 C 
ATOM     13  S   UNL     1      -1.904   6.955 131.962  0.00  0.00    +0.000 S 
ATOM     14  O   UNL     1      -2.604   8.219 131.800  0.00  0.00    +0.000 OA
ATOM     15  O   UNL     1      -0.461   6.889 131.958  0.00  0.00    +0.000 OA
ENDBRANCH   5  13
ENDBRANCH   1   9
BRANCH   3  16
ATOM     16  C   UNL     1      -5.715   2.262 126.197  0.00  0.00    +0.000 A 
ATOM     17  C   UNL     1      -5.912   0.896 126.390  0.00  0.00    +0.000 A 
ATOM     18  C   UNL     1      -6.417   0.103 125.367  0.00  0.00    +0.000 A 
ATOM     19  C   UNL     1      -6.724   0.666 124.129  0.00  0.00    +0.000 A 
ATOM     20 CL   UNL     1      -7.269  -0.438 122.906  0.00  0.00    +0.000 Cl
ATOM     21  C   UNL     1      -6.590   2.055 123.905  0.00  0.00    +0.000 A 
ATOM     22  C   UNL     1      -6.090   2.847 124.972  0.00  0.00    +0.000 A 
BRANCH  21  23
ATOM     23  C   UNL     1      -7.011   2.662 122.626  0.00  0.00    +0.000 A 
ATOM     24  C   UNL     1      -6.055   3.123 121.717  0.00  0.00    +0.000 A 
ATOM     25  C   UNL     1      -6.459   3.804 120.574  0.00  0.00    +0.000 A 
ATOM     26  C   UNL     1      -7.813   3.990 120.347  0.00  0.00    +0.000 A 
ATOM     27  C   UNL     1      -8.705   3.475 121.275  0.00  0.00    +0.000 A 
ATOM     28  N   UNL     1      -8.340   2.809 122.403  0.00  0.00    +0.000 NA
ENDBRANCH  21  23
ENDBRANCH   3  16
TORSDOF 4
ENDMDL
MODEL 4
REMARK VINA RESULT:      -7.6      1.597      1.999
REMARK  Name = Vismodegib
REMARK  5 active torsions:
REMARK  status: ('A' for Active; 'I' for Inactive)
REMARK    1  A    between atoms: C_1  and  S_2
REMARK    2  A    between atoms: S_2  and  C_5
REMARK    3  A    between atoms: C_9  and  C_12
REMARK    4  A    between atoms: N_14  and  C_15
REMARK    5  A    between atoms: C_20  and  C_22
REMARK                            x       y       z     vdW  Elec       q    Type
REMARK                         _______ _______ _______ _____ _____    ______ ____
ROOT
ATOM      1  C   UNL     1      -6.719  -2.855 128.835  0.00  0.00    +0.000 C 
ATOM      2  O   UNL     1      -5.692  -2.549 128.229  0.00  0.00    +0.000 OA
ATOM      3  N   UNL     1      -7.988  -2.822 128.258  0.00  0.00    +0.000 N 
ATOM      4  H   UNL     1      -8.801  -2.892 128.857  0.00  0.00    +0.000 HD
ENDROOT
BRANCH   1   9
ATOM      5  C   UNL     1      -6.184  -4.045 132.986  0.00  0.00    +0.000 A 
ATOM      6  C   UNL     1      -6.931  -2.906 132.695  0.00  0.00    +0.000 A 
ATOM      7  C   UNL     1      -7.135  -2.493 131.367  0.00  0.00    +0.000 A 
ATOM      8 CL   UNL     1      -8.099  -1.067 131.201  0.00  0.00    +0.000 Cl
ATOM      9  C   UNL     1      -6.583  -3.211 130.297  0.00  0.00    +0.000 A 
ATOM     10  C   UNL     1      -5.837  -4.376 130.614  0.00  0.00    +0.000 A 
ATOM     11  C   UNL     1      -5.637  -4.793 131.944  0.00  0.00    +0.000 A 
BRANCH   5  13
ATOM     12  C   UNL     1      -7.004  -3.537 135.680  0.00  0.00    +0.000 C 
ATOM     13  S   UNL     1      -5.932  -4.545 134.681  0.00  0.00    +0.000 S 
ATOM     14  O   UNL     1      -4.567  -4.180 135.026  0.00  0.00    +0.000 OA
ATOM     15  O   UNL     1      -6.390  -5.912 134.773  0.00  0.00    +0.000 OA
ENDBRANCH   5  13
ENDBRANCH   1   9
BRANCH   3  16
ATOM     16  C   UNL     1      -8.229  -2.531 126.895  0.00  0.00    +0.000 A 
ATOM     17  C   UNL     1      -8.639  -3.547 126.035  0.00  0.00    +0.000 A 
ATOM     18  C   UNL     1      -8.865  -3.287 124.690  0.00  0.00    +0.000 A 
ATOM     19  C   UNL     1      -8.675  -2.002 124.182  0.00  0.00    +0.000 A 
ATOM     20 CL   UNL     1      -8.910  -1.818 122.472  0.00  0.00    +0.000 Cl
ATOM     21  C   UNL     1      -8.311  -0.929 125.027  0.00  0.00    +0.000 A 
ATOM     22  C   UNL     1      -8.104  -1.217 126.402  0.00  0.00    +0.000 A 
BRANCH  21  23
ATOM     23  C   UNL     1      -8.208   0.448 124.504  0.00  0.00    +0.000 A 
ATOM     24  C   UNL     1      -7.100   0.832 123.745  0.00  0.00    +0.000 A 
ATOM     25  C   UNL     1      -6.950   2.160 123.362  0.00  0.00    +0.000 A 
ATOM     26  C   UNL     1      -7.924   3.077 123.724  0.00  0.00    +0.000 A 
ATOM     27  C   UNL     1      -9.014   2.617 124.448  0.00  0.00    +0.000 A 
ATOM     28  N   UNL     1      -9.185   1.327 124.839  0.00  0.00    +0.000 NA
ENDBRANCH  21  23
ENDBRANCH   3  16
TORSDOF 4
ENDMDL
MODEL 5
REMARK VINA RESULT:      -7.5      6.753      9.226
REMARK  Name = Vismodegib
REMARK  5 active torsions:
REMARK  status: ('A' for Active; 'I' for Inactive)
REMARK    1  A    between atoms: C_1  and  S_2
REMARK    2  A    between atoms: S_2  and  C_5
REMARK    3  A    between atoms: C_9  and  C_12
REMARK    4  A    between atoms: N_14  and  C_15
REMARK    5  A    between atoms: C_20  and  C_22
REMARK                            x       y       z     vdW  Elec       q    Type
REMARK                         _______ _______ _______ _____ _____    ______ ____
ROOT
ATOM      1  C   UNL     1      -7.963   2.297 127.688  0.00  0.00    +0.000 C 
ATOM      2  O   UNL     1      -7.332   3.314 127.404  0.00  0.00    +0.000 OA
ATOM      3  N   UNL     1      -8.622   2.119 128.905  0.00  0.00    +0.000 N 
ATOM      4  H   UNL     1      -8.951   1.195 129.153  0.00  0.00    +0.000 HD
ENDROOT
BRANCH   1   9
ATOM      5  C   UNL     1      -8.151  -0.943 124.790  0.00  0.00    +0.000 A 
ATOM      6  C   UNL     1      -6.909  -0.451 125.182  0.00  0.00    +0.000 A 
ATOM      7  C   UNL     1      -6.804   0.588 126.123  0.00  0.00    +0.000 A 
ATOM      8 CL   UNL     1      -5.182   1.055 126.497  0.00  0.00    +0.000 Cl
ATOM      9  C   UNL     1      -7.950   1.167 126.686  0.00  0.00    +0.000 A 
ATOM     10  C   UNL     1      -9.207   0.643 126.283  0.00  0.00    +0.000 A 
ATOM     11  C   UNL     1      -9.311  -0.401 125.344  0.00  0.00    +0.000 A 
BRANCH   5  13
ATOM     12  C   UNL     1      -7.685  -3.737 124.390  0.00  0.00    +0.000 C 
ATOM     13  S   UNL     1      -8.259  -2.257 123.587  0.00  0.00    +0.000 S 
ATOM     14  O   UNL     1      -7.300  -1.946 122.539  0.00  0.00    +0.000 OA
ATOM     15  O   UNL     1      -9.664  -2.425 123.294  0.00  0.00    +0.000 OA
ENDBRANCH   5  13
ENDBRANCH   1   9
BRANCH   3  16
ATOM     16  C   UNL     1      -8.722   3.117 129.902  0.00  0.00    +0.000 A 
ATOM     17  C   UNL     1      -7.864   3.084 130.999  0.00  0.00    +0.000 A 
ATOM     18  C   UNL     1      -7.956   4.045 131.998  0.00  0.00    +0.000 A 
ATOM     19  C   UNL     1      -8.918   5.051 131.918  0.00  0.00    +0.000 A 
ATOM     20 CL   UNL     1      -8.989   6.144 133.264  0.00  0.00    +0.000 Cl
ATOM     21  C   UNL     1      -9.774   5.155 130.798  0.00  0.00    +0.000 A 
ATOM     22  C   UNL     1      -9.648   4.172 129.781  0.00  0.00    +0.000 A 
BRANCH  21  23
ATOM     23  C   UNL     1     -10.722   6.279 130.669  0.00  0.00    +0.000 A 
ATOM     24  C   UNL     1     -11.837   6.361 131.508  0.00  0.00    +0.000 A 
ATOM     25  C   UNL     1     -12.789   7.351 131.299  0.00  0.00    +0.000 A 
ATOM     26  C   UNL     1     -12.598   8.260 130.271  0.00  0.00    +0.000 A 
ATOM     27  C   UNL     1     -11.452   8.140 129.501  0.00  0.00    +0.000 A 
ATOM     28  N   UNL     1     -10.506   7.180 129.679  0.00  0.00    +0.000 NA
ENDBRANCH  21  23
ENDBRANCH   3  16
TORSDOF 4
ENDMDL
MODEL 6
REMARK VINA RESULT:      -7.2      3.884      9.561
REMARK  Name = Vismodegib
REMARK  5 active torsions:
REMARK  status: ('A' for Active; 'I' for Inactive)
REMARK    1  A    between atoms: C_1  and  S_2
REMARK    2  A    between atoms: S_2  and  C_5
REMARK    3  A    between atoms: C_9  and  C_12
REMARK    4  A    between atoms: N_14  and  C_15
REMARK    5  A    between atoms: C_20  and  C_22
REMARK                            x       y       z     vdW  Elec       q    Type
REMARK                         _______ _______ _______ _____ _____    ______ ____
ROOT
ATOM      1  C   UNL     1      -7.928  -2.926 128.863  0.00  0.00    +0.000 C 
ATOM      2  O   UNL     1      -8.810  -3.710 129.217  0.00  0.00    +0.000 OA
ATOM      3  N   UNL     1      -6.764  -2.701 129.598  0.00  0.00    +0.000 N 
ATOM      4  H   UNL     1      -6.180  -1.910 129.358  0.00  0.00    +0.000 HD
ENDROOT
BRANCH   1   9
ATOM      5  C   UNL     1      -8.705  -0.811 125.141  0.00  0.00    +0.000 A 
ATOM      6  C   UNL     1      -8.324  -0.088 126.268  0.00  0.00    +0.000 A 
ATOM      7  C   UNL     1      -8.055  -0.734 127.487  0.00  0.00    +0.000 A 
ATOM      8 CL   UNL     1      -7.581   0.325 128.770  0.00  0.00    +0.000 Cl
ATOM      9  C   UNL     1      -8.173  -2.126 127.605  0.00  0.00    +0.000 A 
ATOM     10  C   UNL     1      -8.550  -2.846 126.442  0.00  0.00    +0.000 A 
ATOM     11  C   UNL     1      -8.814  -2.200 125.219  0.00  0.00    +0.000 A 
BRANCH   5  13
ATOM     12  C   UNL     1     -10.094   1.417 124.003  0.00  0.00    +0.000 C 
ATOM     13  S   UNL     1      -9.049   0.032 123.606  0.00  0.00    +0.000 S 
ATOM     14  O   UNL     1      -9.845  -0.878 122.798  0.00  0.00    +0.000 OA
ATOM     15  O   UNL     1      -7.785   0.548 123.133  0.00  0.00    +0.000 OA
ENDBRANCH   5  13
ENDBRANCH   1   9
BRANCH   3  16
ATOM     16  C   UNL     1      -6.420  -3.412 130.771  0.00  0.00    +0.000 A 
ATOM     17  C   UNL     1      -5.582  -4.521 130.684  0.00  0.00    +0.000 A 
ATOM     18  C   UNL     1      -5.244  -5.243 131.822  0.00  0.00    +0.000 A 
ATOM     19  C   UNL     1      -5.751  -4.870 133.066  0.00  0.00    +0.000 A 
ATOM     20 CL   UNL     1      -5.325  -5.895 134.400  0.00  0.00    +0.000 Cl
ATOM     21  C   UNL     1      -6.562  -3.721 133.209  0.00  0.00    +0.000 A 
ATOM     22  C   UNL     1      -6.877  -2.989 132.034  0.00  0.00    +0.000 A 
BRANCH  21  23
ATOM     23  C   UNL     1      -7.014  -3.272 134.541  0.00  0.00    +0.000 A 
ATOM     24  C   UNL     1      -6.203  -2.438 135.317  0.00  0.00    +0.000 A 
ATOM     25  C   UNL     1      -6.580  -2.122 136.617  0.00  0.00    +0.000 A 
ATOM     26  C   UNL     1      -7.773  -2.624 137.112  0.00  0.00    +0.000 A 
ATOM     27  C   UNL     1      -8.543  -3.417 136.273  0.00  0.00    +0.000 A 
ATOM     28  N   UNL     1      -8.199  -3.745 135.000  0.00  0.00    +0.000 NA
ENDBRANCH  21  23
ENDBRANCH   3  16
TORSDOF 4
ENDMDL
MODEL 7
REMARK VINA RESULT:      -7.2      3.835      9.869
REMARK  Name = Vismodegib
REMARK  5 active torsions:
REMARK  status: ('A' for Active; 'I' for Inactive)
REMARK    1  A    between atoms: C_1  and  S_2
REMARK    2  A    between atoms: S_2  and  C_5
REMARK    3  A    between atoms: C_9  and  C_12
REMARK    4  A    between atoms: N_14  and  C_15
REMARK    5  A    between atoms: C_20  and  C_22
REMARK                            x       y       z     vdW  Elec       q    Type
REMARK                         _______ _______ _______ _____ _____    ______ ____
ROOT
ATOM      1  C   UNL     1      -6.928  -2.392 129.096  0.00  0.00    +0.000 C 
ATOM      2  O   UNL     1      -5.829  -2.920 129.262  0.00  0.00    +0.000 OA
ATOM      3  N   UNL     1      -7.727  -1.938 130.146  0.00  0.00    +0.000 N 
ATOM      4  H   UNL     1      -8.691  -1.697 129.958  0.00  0.00    +0.000 HD
ENDROOT
BRANCH   1   9
ATOM      5  C   UNL     1      -8.263  -1.999 124.973  0.00  0.00    +0.000 A 
ATOM      6  C   UNL     1      -8.898  -2.912 125.811  0.00  0.00    +0.000 A 
ATOM      7  C   UNL     1      -8.504  -3.063 127.152  0.00  0.00    +0.000 A 
ATOM      8 CL   UNL     1      -9.418  -4.231 128.040  0.00  0.00    +0.000 Cl
ATOM      9  C   UNL     1      -7.450  -2.304 127.681  0.00  0.00    +0.000 A 
ATOM     10  C   UNL     1      -6.824  -1.370 126.815  0.00  0.00    +0.000 A 
ATOM     11  C   UNL     1      -7.222  -1.216 125.474  0.00  0.00    +0.000 A 
BRANCH   5  13
ATOM     12  C   UNL     1      -9.341  -0.157 123.067  0.00  0.00    +0.000 C 
ATOM     13  S   UNL     1      -8.775  -1.831 123.272  0.00  0.00    +0.000 S 
ATOM     14  O   UNL     1      -9.935  -2.692 123.097  0.00  0.00    +0.000 OA
ATOM     15  O   UNL     1      -7.585  -2.001 122.470  0.00  0.00    +0.000 OA
ENDBRANCH   5  13
ENDBRANCH   1   9
BRANCH   3  16
ATOM     16  C   UNL     1      -7.327  -1.945 131.502  0.00  0.00    +0.000 A 
ATOM     17  C   UNL     1      -6.800  -0.788 132.071  0.00  0.00    +0.000 A 
ATOM     18  C   UNL     1      -6.387  -0.777 133.397  0.00  0.00    +0.000 A 
ATOM     19  C   UNL     1      -6.486  -1.932 134.173  0.00  0.00    +0.000 A 
ATOM     20 CL   UNL     1      -5.863  -1.818 135.789  0.00  0.00    +0.000 Cl
ATOM     21  C   UNL     1      -7.064  -3.113 133.653  0.00  0.00    +0.000 A 
ATOM     22  C   UNL     1      -7.496  -3.092 132.301  0.00  0.00    +0.000 A 
BRANCH  21  23
ATOM     23  C   UNL     1      -7.259  -4.301 134.507  0.00  0.00    +0.000 A 
ATOM     24  C   UNL     1      -8.491  -4.531 135.125  0.00  0.00    +0.000 A 
ATOM     25  C   UNL     1      -8.629  -5.582 136.025  0.00  0.00    +0.000 A 
ATOM     26  C   UNL     1      -7.539  -6.401 136.272  0.00  0.00    +0.000 A 
ATOM     27  C   UNL     1      -6.357  -6.134 135.597  0.00  0.00    +0.000 A 
ATOM     28  N   UNL     1      -6.192  -5.113 134.716  0.00  0.00    +0.000 NA
ENDBRANCH  21  23
ENDBRANCH   3  16
TORSDOF 4
ENDMDL
MODEL 8
REMARK VINA RESULT:      -7.2      5.902      7.426
REMARK  Name = Vismodegib
REMARK  5 active torsions:
REMARK  status: ('A' for Active; 'I' for Inactive)
REMARK    1  A    between atoms: C_1  and  S_2
REMARK    2  A    between atoms: S_2  and  C_5
REMARK    3  A    between atoms: C_9  and  C_12
REMARK    4  A    between atoms: N_14  and  C_15
REMARK    5  A    between atoms: C_20  and  C_22
REMARK                            x       y       z     vdW  Elec       q    Type
REMARK                         _______ _______ _______ _____ _____    ______ ____
ROOT
ATOM      1  C   UNL     1      -5.398   2.865 126.584  0.00  0.00    +0.000 C 
ATOM      2  O   UNL     1      -4.821   1.843 126.213  0.00  0.00    +0.000 OA
ATOM      3  N   UNL     1      -6.655   3.248 126.115  0.00  0.00    +0.000 N 
ATOM      4  H   UNL     1      -6.984   4.186 126.307  0.00  0.00    +0.000 HD
ENDROOT
BRANCH   1   9
ATOM      5  C   UNL     1      -3.463   5.494 129.461  0.00  0.00    +0.000 A 
ATOM      6  C   UNL     1      -2.703   4.917 128.446  0.00  0.00    +0.000 A 
ATOM      7  C   UNL     1      -3.291   4.070 127.491  0.00  0.00    +0.000 A 
ATOM      8 CL   UNL     1      -2.195   3.462 126.300  0.00  0.00    +0.000 Cl
ATOM      9  C   UNL     1      -4.660   3.772 127.540  0.00  0.00    +0.000 A 
ATOM     10  C   UNL     1      -5.420   4.379 128.575  0.00  0.00    +0.000 A 
ATOM     11  C   UNL     1      -4.831   5.232 129.528  0.00  0.00    +0.000 A 
BRANCH   5  13
ATOM     12  C   UNL     1      -3.044   5.866 132.267  0.00  0.00    +0.000 C 
ATOM     13  S   UNL     1      -2.691   6.559 130.667  0.00  0.00    +0.000 S 
ATOM     14  O   UNL     1      -3.382   7.837 130.600  0.00  0.00    +0.000 OA
ATOM     15  O   UNL     1      -1.267   6.462 130.443  0.00  0.00    +0.000 OA
ENDBRANCH   5  13
ENDBRANCH   1   9
BRANCH   3  16
ATOM     16  C   UNL     1      -7.445   2.464 125.243  0.00  0.00    +0.000 A 
ATOM     17  C   UNL     1      -8.145   3.079 124.207  0.00  0.00    +0.000 A 
ATOM     18  C   UNL     1      -8.940   2.331 123.348  0.00  0.00    +0.000 A 
ATOM     19  C   UNL     1      -9.053   0.952 123.520  0.00  0.00    +0.000 A 
ATOM     20 CL   UNL     1     -10.137   0.137 122.438  0.00  0.00    +0.000 Cl
ATOM     21  C   UNL     1      -8.320   0.278 124.524  0.00  0.00    +0.000 A 
ATOM     22  C   UNL     1      -7.500   1.063 125.376  0.00  0.00    +0.000 A 
BRANCH  21  23
ATOM     23  C   UNL     1      -8.365  -1.193 124.638  0.00  0.00    +0.000 A 
ATOM     24  C   UNL     1      -9.118  -1.799 125.648  0.00  0.00    +0.000 A 
ATOM     25  C   UNL     1      -9.056  -3.176 125.826  0.00  0.00    +0.000 A 
ATOM     26  C   UNL     1      -8.262  -3.928 124.974  0.00  0.00    +0.000 A 
ATOM     27  C   UNL     1      -7.570  -3.263 123.973  0.00  0.00    +0.000 A 
ATOM     28  N   UNL     1      -7.608  -1.919 123.778  0.00  0.00    +0.000 NA
ENDBRANCH  21  23
ENDBRANCH   3  16
TORSDOF 4
ENDMDL
MODEL 9
REMARK VINA RESULT:      -7.1      6.498      9.560
REMARK  Name = Vismodegib
REMARK  5 active torsions:
REMARK  status: ('A' for Active; 'I' for Inactive)
REMARK    1  A    between atoms: C_1  and  S_2
REMARK    2  A    between atoms: S_2  and  C_5
REMARK    3  A    between atoms: C_9  and  C_12
REMARK    4  A    between atoms: N_14  and  C_15
REMARK    5  A    between atoms: C_20  and  C_22
REMARK                            x       y       z     vdW  Elec       q    Type
REMARK                         _______ _______ _______ _____ _____    ______ ____
ROOT
ATOM      1  C   UNL     1      -8.086   2.831 132.359  0.00  0.00    +0.000 C 
ATOM      2  O   UNL     1      -8.409   2.140 133.325  0.00  0.00    +0.000 OA
ATOM      3  N   UNL     1      -6.863   2.702 131.699  0.00  0.00    +0.000 N 
ATOM      4  H   UNL     1      -6.581   3.423 131.047  0.00  0.00    +0.000 HD
ENDROOT
BRANCH   1   9
ATOM      5  C   UNL     1     -10.953   5.801 130.982  0.00  0.00    +0.000 A 
ATOM      6  C   UNL     1     -10.058   6.137 131.995  0.00  0.00    +0.000 A 
ATOM      7  C   UNL     1      -9.110   5.209 132.462  0.00  0.00    +0.000 A 
ATOM      8 CL   UNL     1      -8.075   5.810 133.710  0.00  0.00    +0.000 Cl
ATOM      9  C   UNL     1      -9.046   3.915 131.927  0.00  0.00    +0.000 A 
ATOM     10  C   UNL     1      -9.958   3.597 130.887  0.00  0.00    +0.000 A 
ATOM     11  C   UNL     1     -10.904   4.527 130.416  0.00  0.00    +0.000 A 
BRANCH   5  13
ATOM     12  C   UNL     1     -12.907   6.306 128.955  0.00  0.00    +0.000 C 
ATOM     13  S   UNL     1     -12.153   6.993 130.413  0.00  0.00    +0.000 S 
ATOM     14  O   UNL     1     -11.408   8.168 129.988  0.00  0.00    +0.000 OA
ATOM     15  O   UNL     1     -13.164   7.074 131.442  0.00  0.00    +0.000 OA
ENDBRANCH   5  13
ENDBRANCH   1   9
BRANCH   3  16
ATOM     16  C   UNL     1      -5.904   1.708 132.000  0.00  0.00    +0.000 A 
ATOM     17  C   UNL     1      -4.805   2.028 132.793  0.00  0.00    +0.000 A 
ATOM     18  C   UNL     1      -3.843   1.070 133.088  0.00  0.00    +0.000 A 
ATOM     19  C   UNL     1      -3.963  -0.224 132.582  0.00  0.00    +0.000 A 
ATOM     20 CL   UNL     1      -2.658  -1.308 132.950  0.00  0.00    +0.000 Cl
ATOM     21  C   UNL     1      -5.088  -0.607 131.818  0.00  0.00    +0.000 A 
ATOM     22  C   UNL     1      -6.067   0.384 131.546  0.00  0.00    +0.000 A 
BRANCH  21  23
ATOM     23  C   UNL     1      -5.260  -2.004 131.369  0.00  0.00    +0.000 A 
ATOM     24  C   UNL     1      -5.839  -2.951 132.218  0.00  0.00    +0.000 A 
ATOM     25  C   UNL     1      -5.884  -4.286 131.836  0.00  0.00    +0.000 A 
ATOM     26  C   UNL     1      -5.372  -4.649 130.600  0.00  0.00    +0.000 A 
ATOM     27  C   UNL     1      -4.844  -3.651 129.796  0.00  0.00    +0.000 A 
ATOM     28  N   UNL     1      -4.783  -2.338 130.144  0.00  0.00    +0.000 NA
ENDBRANCH  21  23
ENDBRANCH   3  16
TORSDOF 4
ENDMDL
