MODEL 1
REMARK VINA RESULT:      -7.6      0.000      0.000
REMARK  Name = Vitamin A
REMARK  11 active torsions:
REMARK  status: ('A' for Active; 'I' for Inactive)
REMARK    1  A    between atoms: C_1  and  C_2
REMARK    2  A    between atoms: C_2  and  C_6
REMARK    3  A    between atoms: C_3  and  C_4
REMARK    4  A    between atoms: C_4  and  O_5
REMARK    5  A    between atoms: C_7  and  C_8
REMARK    6  A    between atoms: C_9  and  C_10
REMARK    7  A    between atoms: C_9  and  C_11
REMARK    8  A    between atoms: C_12  and  C_13
REMARK    9  A    between atoms: C_14  and  C_15
REMARK   10  A    between atoms: C_19  and  C_20
REMARK   11  A    between atoms: C_19  and  C_21
REMARK                            x       y       z     vdW  Elec       q    Type
REMARK                         _______ _______ _______ _____ _____    ______ ____
ROOT
ATOM      1  C   UNL     1      -7.195   1.651 124.461  0.00  0.00    +0.000 C 
ATOM      2  C   UNL     1      -8.399   1.096 124.755  0.00  0.00    +0.000 C 
ATOM      3  C   UNL     1      -9.690   1.465 124.056  0.00  0.00    +0.000 C 
ENDROOT
BRANCH   1   5
ATOM      4  C   UNL     1      -6.675   2.472 122.134  0.00  0.00    +0.000 C 
ATOM      5  C   UNL     1      -6.996   2.650 123.429  0.00  0.00    +0.000 C 
BRANCH   4   7
ATOM      6  C   UNL     1      -7.761   3.948 120.400  0.00  0.00    +0.000 C 
ATOM      7  C   UNL     1      -6.516   3.574 121.168  0.00  0.00    +0.000 C 
ATOM      8  C   UNL     1      -5.349   4.222 120.953  0.00  0.00    +0.000 C 
BRANCH   8   9
ATOM      9  C   UNL     1      -5.151   5.336 119.977  0.00  0.00    +0.000 C 
BRANCH   9  10
ATOM     10  O   UNL     1      -4.391   6.367 120.589  0.00  0.00    +0.000 OA
ATOM     11  H   UNL     1      -3.466   6.234 120.321  0.00  0.00    +0.000 HD
ENDBRANCH   9  10
ENDBRANCH   8   9
ENDBRANCH   4   7
ENDBRANCH   1   5
BRANCH   2  12
ATOM     12  C   UNL     1      -8.511   0.076 125.806  0.00  0.00    +0.000 C 
ATOM     13  C   UNL     1      -7.710  -1.001 125.960  0.00  0.00    +0.000 C 
BRANCH  13  14
ATOM     14  C   UNL     1      -7.868  -2.016 127.007  0.00  0.00    +0.000 C 
ATOM     15  C   UNL     1      -8.771  -3.022 126.893  0.00  0.00    +0.000 C 
ATOM     16  C   UNL     1      -9.574  -3.328 125.652  0.00  0.00    +0.000 C 
ATOM     17  C   UNL     1      -9.082  -3.976 128.027  0.00  0.00    +0.000 C 
ATOM     18  C   UNL     1      -8.500  -3.562 129.371  0.00  0.00    +0.000 C 
ATOM     19  C   UNL     1      -7.058  -3.121 129.189  0.00  0.00    +0.000 C 
ATOM     20  C   UNL     1      -6.940  -1.889 128.244  0.00  0.00    +0.000 C 
ATOM     21  C   UNL     1      -5.443  -1.795 127.861  0.00  0.00    +0.000 C 
ATOM     22  C   UNL     1      -7.323  -0.620 129.032  0.00  0.00    +0.000 C 
ENDBRANCH  13  14
ENDBRANCH   2  12
TORSDOF 6
ENDMDL
MODEL 2
REMARK VINA RESULT:      -7.0      9.047     10.456
REMARK  Name = Vitamin A
REMARK  11 active torsions:
REMARK  status: ('A' for Active; 'I' for Inactive)
REMARK    1  A    between atoms: C_1  and  C_2
REMARK    2  A    between atoms: C_2  and  C_6
REMARK    3  A    between atoms: C_3  and  C_4
REMARK    4  A    between atoms: C_4  and  O_5
REMARK    5  A    between atoms: C_7  and  C_8
REMARK    6  A    between atoms: C_9  and  C_10
REMARK    7  A    between atoms: C_9  and  C_11
REMARK    8  A    between atoms: C_12  and  C_13
REMARK    9  A    between atoms: C_14  and  C_15
REMARK   10  A    between atoms: C_19  and  C_20
REMARK   11  A    between atoms: C_19  and  C_21
REMARK                            x       y       z     vdW  Elec       q    Type
REMARK                         _______ _______ _______ _____ _____    ______ ____
ROOT
ATOM      1  C   UNL     1      -7.880   6.902 130.959  0.00  0.00    +0.000 C 
ATOM      2  C   UNL     1      -7.374   6.286 132.058  0.00  0.00    +0.000 C 
ATOM      3  C   UNL     1      -8.226   5.680 133.152  0.00  0.00    +0.000 C 
ENDROOT
BRANCH   1   5
ATOM      4  C   UNL     1      -9.907   7.644 129.656  0.00  0.00    +0.000 C 
ATOM      5  C   UNL     1      -9.299   7.039 130.692  0.00  0.00    +0.000 C 
BRANCH   4   7
ATOM      6  C   UNL     1     -12.184   7.286 130.681  0.00  0.00    +0.000 C 
ATOM      7  C   UNL     1     -11.369   7.704 129.480  0.00  0.00    +0.000 C 
ATOM      8  C   UNL     1     -11.974   8.096 128.335  0.00  0.00    +0.000 C 
BRANCH   8   9
ATOM      9  C   UNL     1     -13.451   8.162 128.122  0.00  0.00    +0.000 C 
BRANCH   9  10
ATOM     10  O   UNL     1     -13.884   6.985 127.458  0.00  0.00    +0.000 OA
ATOM     11  H   UNL     1     -14.079   7.233 126.539  0.00  0.00    +0.000 HD
ENDBRANCH   9  10
ENDBRANCH   8   9
ENDBRANCH   4   7
ENDBRANCH   1   5
BRANCH   2  12
ATOM     12  C   UNL     1      -5.921   6.176 132.245  0.00  0.00    +0.000 C 
ATOM     13  C   UNL     1      -5.031   5.737 131.329  0.00  0.00    +0.000 C 
BRANCH  13  14
ATOM     14  C   UNL     1      -3.587   5.614 131.560  0.00  0.00    +0.000 C 
ATOM     15  C   UNL     1      -3.055   4.532 132.182  0.00  0.00    +0.000 C 
ATOM     16  C   UNL     1      -3.816   3.279 132.543  0.00  0.00    +0.000 C 
ATOM     17  C   UNL     1      -1.600   4.457 132.592  0.00  0.00    +0.000 C 
ATOM     18  C   UNL     1      -0.850   5.777 132.488  0.00  0.00    +0.000 C 
ATOM     19  C   UNL     1      -1.182   6.449 131.167  0.00  0.00    +0.000 C 
ATOM     20  C   UNL     1      -2.699   6.777 131.044  0.00  0.00    +0.000 C 
ATOM     21  C   UNL     1      -2.941   7.095 129.549  0.00  0.00    +0.000 C 
ATOM     22  C   UNL     1      -3.003   8.045 131.869  0.00  0.00    +0.000 C 
ENDBRANCH  13  14
ENDBRANCH   2  12
TORSDOF 6
ENDMDL
MODEL 3
REMARK VINA RESULT:      -6.8      1.026      2.255
REMARK  Name = Vitamin A
REMARK  11 active torsions:
REMARK  status: ('A' for Active; 'I' for Inactive)
REMARK    1  A    between atoms: C_1  and  C_2
REMARK    2  A    between atoms: C_2  and  C_6
REMARK    3  A    between atoms: C_3  and  C_4
REMARK    4  A    between atoms: C_4  and  O_5
REMARK    5  A    between atoms: C_7  and  C_8
REMARK    6  A    between atoms: C_9  and  C_10
REMARK    7  A    between atoms: C_9  and  C_11
REMARK    8  A    between atoms: C_12  and  C_13
REMARK    9  A    between atoms: C_14  and  C_15
REMARK   10  A    between atoms: C_19  and  C_20
REMARK   11  A    between atoms: C_19  and  C_21
REMARK                            x       y       z     vdW  Elec       q    Type
REMARK                         _______ _______ _______ _____ _____    ______ ____
ROOT
ATOM      1  C   UNL     1      -7.719   1.783 124.326  0.00  0.00    +0.000 C 
ATOM      2  C   UNL     1      -8.878   1.294 124.838  0.00  0.00    +0.000 C 
ATOM      3  C   UNL     1     -10.228   1.456 124.174  0.00  0.00    +0.000 C 
ENDROOT
BRANCH   1   5
ATOM      4  C   UNL     1      -6.579   3.155 122.544  0.00  0.00    +0.000 C 
ATOM      5  C   UNL     1      -7.632   2.504 123.071  0.00  0.00    +0.000 C 
BRANCH   4   7
ATOM      6  C   UNL     1      -7.936   3.833 120.528  0.00  0.00    +0.000 C 
ATOM      7  C   UNL     1      -6.605   3.842 121.241  0.00  0.00    +0.000 C 
ATOM      8  C   UNL     1      -5.527   4.445 120.687  0.00  0.00    +0.000 C 
BRANCH   8   9
ATOM      9  C   UNL     1      -5.517   5.144 119.367  0.00  0.00    +0.000 C 
BRANCH   9  10
ATOM     10  O   UNL     1      -5.126   6.496 119.554  0.00  0.00    +0.000 OA
ATOM     11  H   UNL     1      -4.611   6.752 118.771  0.00  0.00    +0.000 HD
ENDBRANCH   9  10
ENDBRANCH   8   9
ENDBRANCH   4   7
ENDBRANCH   1   5
BRANCH   2  12
ATOM     12  C   UNL     1      -8.877   0.559 126.111  0.00  0.00    +0.000 C 
ATOM     13  C   UNL     1      -7.786   0.126 126.779  0.00  0.00    +0.000 C 
BRANCH  13  14
ATOM     14  C   UNL     1      -7.823  -0.630 128.036  0.00  0.00    +0.000 C 
ATOM     15  C   UNL     1      -8.023  -0.017 129.230  0.00  0.00    +0.000 C 
ATOM     16  C   UNL     1      -8.397   1.435 129.406  0.00  0.00    +0.000 C 
ATOM     17  C   UNL     1      -7.890  -0.740 130.553  0.00  0.00    +0.000 C 
ATOM     18  C   UNL     1      -7.269  -2.126 130.451  0.00  0.00    +0.000 C 
ATOM     19  C   UNL     1      -7.892  -2.880 129.290  0.00  0.00    +0.000 C 
ATOM     20  C   UNL     1      -7.639  -2.167 127.929  0.00  0.00    +0.000 C 
ATOM     21  C   UNL     1      -8.621  -2.818 126.925  0.00  0.00    +0.000 C 
ATOM     22  C   UNL     1      -6.198  -2.469 127.469  0.00  0.00    +0.000 C 
ENDBRANCH  13  14
ENDBRANCH   2  12
TORSDOF 6
ENDMDL
MODEL 4
REMARK VINA RESULT:      -6.7      5.074      9.557
REMARK  Name = Vitamin A
REMARK  11 active torsions:
REMARK  status: ('A' for Active; 'I' for Inactive)
REMARK    1  A    between atoms: C_1  and  C_2
REMARK    2  A    between atoms: C_2  and  C_6
REMARK    3  A    between atoms: C_3  and  C_4
REMARK    4  A    between atoms: C_4  and  O_5
REMARK    5  A    between atoms: C_7  and  C_8
REMARK    6  A    between atoms: C_9  and  C_10
REMARK    7  A    between atoms: C_9  and  C_11
REMARK    8  A    between atoms: C_12  and  C_13
REMARK    9  A    between atoms: C_14  and  C_15
REMARK   10  A    between atoms: C_19  and  C_20
REMARK   11  A    between atoms: C_19  and  C_21
REMARK                            x       y       z     vdW  Elec       q    Type
REMARK                         _______ _______ _______ _____ _____    ______ ____
ROOT
ATOM      1  C   UNL     1      -5.954  -3.389 129.330  0.00  0.00    +0.000 C 
ATOM      2  C   UNL     1      -7.095  -2.669 129.177  0.00  0.00    +0.000 C 
ATOM      3  C   UNL     1      -7.888  -2.090 130.328  0.00  0.00    +0.000 C 
ENDROOT
BRANCH   1   5
ATOM      4  C   UNL     1      -5.560  -4.723 131.434  0.00  0.00    +0.000 C 
ATOM      5  C   UNL     1      -5.348  -3.676 130.616  0.00  0.00    +0.000 C 
BRANCH   4   7
ATOM      6  C   UNL     1      -5.730  -5.408 133.856  0.00  0.00    +0.000 C 
ATOM      7  C   UNL     1      -4.866  -4.918 132.719  0.00  0.00    +0.000 C 
ATOM      8  C   UNL     1      -3.548  -4.678 132.905  0.00  0.00    +0.000 C 
BRANCH   8   9
ATOM      9  C   UNL     1      -2.814  -4.858 134.194  0.00  0.00    +0.000 C 
BRANCH   9  10
ATOM     10  O   UNL     1      -1.454  -4.489 134.017  0.00  0.00    +0.000 OA
ATOM     11  H   UNL     1      -1.347  -4.241 133.084  0.00  0.00    +0.000 HD
ENDBRANCH   9  10
ENDBRANCH   8   9
ENDBRANCH   4   7
ENDBRANCH   1   5
BRANCH   2  12
ATOM     12  C   UNL     1      -7.636  -2.409 127.835  0.00  0.00    +0.000 C 
ATOM     13  C   UNL     1      -6.953  -1.902 126.786  0.00  0.00    +0.000 C 
BRANCH  13  14
ATOM     14  C   UNL     1      -7.532  -1.630 125.466  0.00  0.00    +0.000 C 
ATOM     15  C   UNL     1      -8.290  -0.529 125.234  0.00  0.00    +0.000 C 
ATOM     16  C   UNL     1      -8.484   0.609 126.207  0.00  0.00    +0.000 C 
ATOM     17  C   UNL     1      -9.045  -0.312 123.940  0.00  0.00    +0.000 C 
ATOM     18  C   UNL     1      -9.096  -1.533 123.032  0.00  0.00    +0.000 C 
ATOM     19  C   UNL     1      -7.719  -2.167 122.953  0.00  0.00    +0.000 C 
ATOM     20  C   UNL     1      -7.222  -2.657 124.345  0.00  0.00    +0.000 C 
ATOM     21  C   UNL     1      -5.705  -2.921 124.180  0.00  0.00    +0.000 C 
ATOM     22  C   UNL     1      -7.917  -3.992 124.681  0.00  0.00    +0.000 C 
ENDBRANCH  13  14
ENDBRANCH   2  12
TORSDOF 6
ENDMDL
MODEL 5
REMARK VINA RESULT:      -6.7      1.495      2.248
REMARK  Name = Vitamin A
REMARK  11 active torsions:
REMARK  status: ('A' for Active; 'I' for Inactive)
REMARK    1  A    between atoms: C_1  and  C_2
REMARK    2  A    between atoms: C_2  and  C_6
REMARK    3  A    between atoms: C_3  and  C_4
REMARK    4  A    between atoms: C_4  and  O_5
REMARK    5  A    between atoms: C_7  and  C_8
REMARK    6  A    between atoms: C_9  and  C_10
REMARK    7  A    between atoms: C_9  and  C_11
REMARK    8  A    between atoms: C_12  and  C_13
REMARK    9  A    between atoms: C_14  and  C_15
REMARK   10  A    between atoms: C_19  and  C_20
REMARK   11  A    between atoms: C_19  and  C_21
REMARK                            x       y       z     vdW  Elec       q    Type
REMARK                         _______ _______ _______ _____ _____    ______ ____
ROOT
ATOM      1  C   UNL     1      -6.738   1.130 125.282  0.00  0.00    +0.000 C 
ATOM      2  C   UNL     1      -6.413  -0.173 125.484  0.00  0.00    +0.000 C 
ATOM      3  C   UNL     1      -5.973  -1.112 124.382  0.00  0.00    +0.000 C 
ENDROOT
BRANCH   1   5
ATOM      4  C   UNL     1      -6.364   3.059 123.701  0.00  0.00    +0.000 C 
ATOM      5  C   UNL     1      -6.686   1.784 123.989  0.00  0.00    +0.000 C 
BRANCH   4   7
ATOM      6  C   UNL     1      -7.596   3.436 121.532  0.00  0.00    +0.000 C 
ATOM      7  C   UNL     1      -6.328   3.610 122.335  0.00  0.00    +0.000 C 
ATOM      8  C   UNL     1      -5.250   4.229 121.802  0.00  0.00    +0.000 C 
BRANCH   8   9
ATOM      9  C   UNL     1      -5.178   4.793 120.420  0.00  0.00    +0.000 C 
BRANCH   9  10
ATOM     10  O   UNL     1      -4.694   6.126 120.481  0.00  0.00    +0.000 OA
ATOM     11  H   UNL     1      -4.382   6.273 121.389  0.00  0.00    +0.000 HD
ENDBRANCH   9  10
ENDBRANCH   8   9
ENDBRANCH   4   7
ENDBRANCH   1   5
BRANCH   2  12
ATOM     12  C   UNL     1      -6.477  -0.755 126.832  0.00  0.00    +0.000 C 
ATOM     13  C   UNL     1      -6.183  -2.031 127.163  0.00  0.00    +0.000 C 
BRANCH  13  14
ATOM     14  C   UNL     1      -6.284  -2.585 128.517  0.00  0.00    +0.000 C 
ATOM     15  C   UNL     1      -7.443  -3.115 128.985  0.00  0.00    +0.000 C 
ATOM     16  C   UNL     1      -8.679  -3.362 128.155  0.00  0.00    +0.000 C 
ATOM     17  C   UNL     1      -7.629  -3.531 130.428  0.00  0.00    +0.000 C 
ATOM     18  C   UNL     1      -6.517  -3.073 131.361  0.00  0.00    +0.000 C 
ATOM     19  C   UNL     1      -5.168  -3.336 130.715  0.00  0.00    +0.000 C 
ATOM     20  C   UNL     1      -4.996  -2.549 129.382  0.00  0.00    +0.000 C 
ATOM     21  C   UNL     1      -3.781  -3.189 128.670  0.00  0.00    +0.000 C 
ATOM     22  C   UNL     1      -4.654  -1.082 129.711  0.00  0.00    +0.000 C 
ENDBRANCH  13  14
ENDBRANCH   2  12
TORSDOF 6
ENDMDL
MODEL 6
REMARK VINA RESULT:      -6.6     11.983     13.960
REMARK  Name = Vitamin A
REMARK  11 active torsions:
REMARK  status: ('A' for Active; 'I' for Inactive)
REMARK    1  A    between atoms: C_1  and  C_2
REMARK    2  A    between atoms: C_2  and  C_6
REMARK    3  A    between atoms: C_3  and  C_4
REMARK    4  A    between atoms: C_4  and  O_5
REMARK    5  A    between atoms: C_7  and  C_8
REMARK    6  A    between atoms: C_9  and  C_10
REMARK    7  A    between atoms: C_9  and  C_11
REMARK    8  A    between atoms: C_12  and  C_13
REMARK    9  A    between atoms: C_14  and  C_15
REMARK   10  A    between atoms: C_19  and  C_20
REMARK   11  A    between atoms: C_19  and  C_21
REMARK                            x       y       z     vdW  Elec       q    Type
REMARK                         _______ _______ _______ _____ _____    ______ ____
ROOT
ATOM      1  C   UNL     1      -2.582   7.483 131.560  0.00  0.00    +0.000 C 
ATOM      2  C   UNL     1      -1.554   7.557 132.443  0.00  0.00    +0.000 C 
ATOM      3  C   UNL     1      -0.593   6.421 132.716  0.00  0.00    +0.000 C 
ENDROOT
BRANCH   1   5
ATOM      4  C   UNL     1      -2.453   6.015 129.513  0.00  0.00    +0.000 C 
ATOM      5  C   UNL     1      -2.874   6.311 130.757  0.00  0.00    +0.000 C 
BRANCH   4   7
ATOM      6  C   UNL     1      -3.609   3.774 129.594  0.00  0.00    +0.000 C 
ATOM      7  C   UNL     1      -2.803   4.774 128.800  0.00  0.00    +0.000 C 
ATOM      8  C   UNL     1      -2.440   4.513 127.523  0.00  0.00    +0.000 C 
BRANCH   8   9
ATOM      9  C   UNL     1      -2.772   3.265 126.773  0.00  0.00    +0.000 C 
BRANCH   9  10
ATOM     10  O   UNL     1      -1.615   2.448 126.680  0.00  0.00    +0.000 OA
ATOM     11  H   UNL     1      -1.530   2.182 125.750  0.00  0.00    +0.000 HD
ENDBRANCH   9  10
ENDBRANCH   8   9
ENDBRANCH   4   7
ENDBRANCH   1   5
BRANCH   2  12
ATOM     12  C   UNL     1      -1.318   8.791 133.206  0.00  0.00    +0.000 C 
ATOM     13  C   UNL     1      -1.843  10.006 132.939  0.00  0.00    +0.000 C 
BRANCH  13  14
ATOM     14  C   UNL     1      -1.563  11.223 133.708  0.00  0.00    +0.000 C 
ATOM     15  C   UNL     1      -2.198  11.489 134.877  0.00  0.00    +0.000 C 
ATOM     16  C   UNL     1      -3.106  10.528 135.608  0.00  0.00    +0.000 C 
ATOM     17  C   UNL     1      -2.064  12.812 135.600  0.00  0.00    +0.000 C 
ATOM     18  C   UNL     1      -1.376  13.902 134.790  0.00  0.00    +0.000 C 
ATOM     19  C   UNL     1      -0.140  13.332 134.115  0.00  0.00    +0.000 C 
ATOM     20  C   UNL     1      -0.493  12.184 133.125  0.00  0.00    +0.000 C 
ATOM     21  C   UNL     1       0.844  11.470 132.814  0.00  0.00    +0.000 C 
ATOM     22  C   UNL     1      -1.032  12.802 131.818  0.00  0.00    +0.000 C 
ENDBRANCH  13  14
ENDBRANCH   2  12
TORSDOF 6
ENDMDL
MODEL 7
REMARK VINA RESULT:      -6.6      5.149      9.723
REMARK  Name = Vitamin A
REMARK  11 active torsions:
REMARK  status: ('A' for Active; 'I' for Inactive)
REMARK    1  A    between atoms: C_1  and  C_2
REMARK    2  A    between atoms: C_2  and  C_6
REMARK    3  A    between atoms: C_3  and  C_4
REMARK    4  A    between atoms: C_4  and  O_5
REMARK    5  A    between atoms: C_7  and  C_8
REMARK    6  A    between atoms: C_9  and  C_10
REMARK    7  A    between atoms: C_9  and  C_11
REMARK    8  A    between atoms: C_12  and  C_13
REMARK    9  A    between atoms: C_14  and  C_15
REMARK   10  A    between atoms: C_19  and  C_20
REMARK   11  A    between atoms: C_19  and  C_21
REMARK                            x       y       z     vdW  Elec       q    Type
REMARK                         _______ _______ _______ _____ _____    ______ ____
ROOT
ATOM      1  C   UNL     1      -7.651  -1.913 129.818  0.00  0.00    +0.000 C 
ATOM      2  C   UNL     1      -8.053  -2.620 128.730  0.00  0.00    +0.000 C 
ATOM      3  C   UNL     1      -8.558  -4.045 128.790  0.00  0.00    +0.000 C 
ENDROOT
BRANCH   1   5
ATOM      4  C   UNL     1      -6.777  -3.222 131.788  0.00  0.00    +0.000 C 
ATOM      5  C   UNL     1      -7.676  -2.432 131.172  0.00  0.00    +0.000 C 
BRANCH   4   7
ATOM      6  C   UNL     1      -5.870  -4.683 133.634  0.00  0.00    +0.000 C 
ATOM      7  C   UNL     1      -6.901  -3.675 133.185  0.00  0.00    +0.000 C 
ATOM      8  C   UNL     1      -7.864  -3.244 134.032  0.00  0.00    +0.000 C 
BRANCH   8   9
ATOM      9  C   UNL     1      -8.022  -3.687 135.450  0.00  0.00    +0.000 C 
BRANCH   9  10
ATOM     10  O   UNL     1      -9.143  -4.553 135.551  0.00  0.00    +0.000 OA
ATOM     11  H   UNL     1      -9.869  -4.134 135.061  0.00  0.00    +0.000 HD
ENDBRANCH   9  10
ENDBRANCH   8   9
ENDBRANCH   4   7
ENDBRANCH   1   5
BRANCH   2  12
ATOM     12  C   UNL     1      -8.011  -2.013 127.393  0.00  0.00    +0.000 C 
ATOM     13  C   UNL     1      -8.935  -2.167 126.419  0.00  0.00    +0.000 C 
BRANCH  13  14
ATOM     14  C   UNL     1      -8.847  -1.566 125.084  0.00  0.00    +0.000 C 
ATOM     15  C   UNL     1      -9.094  -0.248 124.878  0.00  0.00    +0.000 C 
ATOM     16  C   UNL     1      -9.304   0.774 125.970  0.00  0.00    +0.000 C 
ATOM     17  C   UNL     1      -9.185   0.362 123.496  0.00  0.00    +0.000 C 
ATOM     18  C   UNL     1      -9.238  -0.654 122.364  0.00  0.00    +0.000 C 
ATOM     19  C   UNL     1      -8.193  -1.731 122.597  0.00  0.00    +0.000 C 
ATOM     20  C   UNL     1      -8.445  -2.511 123.921  0.00  0.00    +0.000 C 
ATOM     21  C   UNL     1      -7.135  -3.286 124.207  0.00  0.00    +0.000 C 
ATOM     22  C   UNL     1      -9.576  -3.533 123.689  0.00  0.00    +0.000 C 
ENDBRANCH  13  14
ENDBRANCH   2  12
TORSDOF 6
ENDMDL
MODEL 8
REMARK VINA RESULT:      -6.5      5.693      7.499
REMARK  Name = Vitamin A
REMARK  11 active torsions:
REMARK  status: ('A' for Active; 'I' for Inactive)
REMARK    1  A    between atoms: C_1  and  C_2
REMARK    2  A    between atoms: C_2  and  C_6
REMARK    3  A    between atoms: C_3  and  C_4
REMARK    4  A    between atoms: C_4  and  O_5
REMARK    5  A    between atoms: C_7  and  C_8
REMARK    6  A    between atoms: C_9  and  C_10
REMARK    7  A    between atoms: C_9  and  C_11
REMARK    8  A    between atoms: C_12  and  C_13
REMARK    9  A    between atoms: C_14  and  C_15
REMARK   10  A    between atoms: C_19  and  C_20
REMARK   11  A    between atoms: C_19  and  C_21
REMARK                            x       y       z     vdW  Elec       q    Type
REMARK                         _______ _______ _______ _____ _____    ______ ____
ROOT
ATOM      1  C   UNL     1      -9.075   2.141 130.981  0.00  0.00    +0.000 C 
ATOM      2  C   UNL     1      -8.452   1.452 129.990  0.00  0.00    +0.000 C 
ATOM      3  C   UNL     1      -8.464   1.870 128.536  0.00  0.00    +0.000 C 
ENDROOT
BRANCH   1   5
ATOM      4  C   UNL     1      -9.397   4.641 130.926  0.00  0.00    +0.000 C 
ATOM      5  C   UNL     1      -9.813   3.371 130.768  0.00  0.00    +0.000 C 
BRANCH   4   7
ATOM      6  C   UNL     1      -9.493   7.078 130.281  0.00  0.00    +0.000 C 
ATOM      7  C   UNL     1     -10.239   5.821 130.660  0.00  0.00    +0.000 C 
ATOM      8  C   UNL     1     -11.589   5.816 130.747  0.00  0.00    +0.000 C 
BRANCH   8   9
ATOM      9  C   UNL     1     -12.471   6.994 130.490  0.00  0.00    +0.000 C 
BRANCH   9  10
ATOM     10  O   UNL     1     -13.271   7.242 131.636  0.00  0.00    +0.000 OA
ATOM     11  H   UNL     1     -12.769   6.925 132.406  0.00  0.00    +0.000 HD
ENDBRANCH   9  10
ENDBRANCH   8   9
ENDBRANCH   4   7
ENDBRANCH   1   5
BRANCH   2  12
ATOM     12  C   UNL     1      -7.710   0.220 130.294  0.00  0.00    +0.000 C 
ATOM     13  C   UNL     1      -8.235  -1.019 130.404  0.00  0.00    +0.000 C 
BRANCH  13  14
ATOM     14  C   UNL     1      -7.467  -2.224 130.737  0.00  0.00    +0.000 C 
ATOM     15  C   UNL     1      -7.207  -2.571 132.022  0.00  0.00    +0.000 C 
ATOM     16  C   UNL     1      -7.798  -1.897 133.237  0.00  0.00    +0.000 C 
ATOM     17  C   UNL     1      -6.273  -3.703 132.392  0.00  0.00    +0.000 C 
ATOM     18  C   UNL     1      -5.456  -4.247 131.229  0.00  0.00    +0.000 C 
ATOM     19  C   UNL     1      -6.354  -4.434 130.018  0.00  0.00    +0.000 C 
ATOM     20  C   UNL     1      -6.981  -3.090 129.544  0.00  0.00    +0.000 C 
ATOM     21  C   UNL     1      -8.129  -3.478 128.581  0.00  0.00    +0.000 C 
ATOM     22  C   UNL     1      -5.922  -2.300 128.749  0.00  0.00    +0.000 C 
ENDBRANCH  13  14
ENDBRANCH   2  12
TORSDOF 6
ENDMDL
MODEL 9
REMARK VINA RESULT:      -6.4      4.765      9.423
REMARK  Name = Vitamin A
REMARK  11 active torsions:
REMARK  status: ('A' for Active; 'I' for Inactive)
REMARK    1  A    between atoms: C_1  and  C_2
REMARK    2  A    between atoms: C_2  and  C_6
REMARK    3  A    between atoms: C_3  and  C_4
REMARK    4  A    between atoms: C_4  and  O_5
REMARK    5  A    between atoms: C_7  and  C_8
REMARK    6  A    between atoms: C_9  and  C_10
REMARK    7  A    between atoms: C_9  and  C_11
REMARK    8  A    between atoms: C_12  and  C_13
REMARK    9  A    between atoms: C_14  and  C_15
REMARK   10  A    between atoms: C_19  and  C_20
REMARK   11  A    between atoms: C_19  and  C_21
REMARK                            x       y       z     vdW  Elec       q    Type
REMARK                         _______ _______ _______ _____ _____    ______ ____
ROOT
ATOM      1  C   UNL     1      -7.127  -3.256 129.713  0.00  0.00    +0.000 C 
ATOM      2  C   UNL     1      -6.763  -2.361 128.759  0.00  0.00    +0.000 C 
ATOM      3  C   UNL     1      -5.518  -1.505 128.837  0.00  0.00    +0.000 C 
ENDROOT
BRANCH   1   5
ATOM      4  C   UNL     1      -5.670  -4.620 131.255  0.00  0.00    +0.000 C 
ATOM      5  C   UNL     1      -6.356  -3.513 130.914  0.00  0.00    +0.000 C 
BRANCH   4   7
ATOM      6  C   UNL     1      -5.621  -5.465 133.631  0.00  0.00    +0.000 C 
ATOM      7  C   UNL     1      -4.903  -4.761 132.505  0.00  0.00    +0.000 C 
ATOM      8  C   UNL     1      -3.643  -4.297 132.670  0.00  0.00    +0.000 C 
BRANCH   8   9
ATOM      9  C   UNL     1      -2.840  -4.416 133.924  0.00  0.00    +0.000 C 
BRANCH   9  10
ATOM     10  O   UNL     1      -1.828  -5.395 133.743  0.00  0.00    +0.000 OA
ATOM     11  H   UNL     1      -0.974  -4.935 133.806  0.00  0.00    +0.000 HD
ENDBRANCH   9  10
ENDBRANCH   8   9
ENDBRANCH   4   7
ENDBRANCH   1   5
BRANCH   2  12
ATOM     12  C   UNL     1      -7.594  -2.172 127.562  0.00  0.00    +0.000 C 
ATOM     13  C   UNL     1      -7.162  -1.766 126.348  0.00  0.00    +0.000 C 
BRANCH  13  14
ATOM     14  C   UNL     1      -8.026  -1.562 125.180  0.00  0.00    +0.000 C 
ATOM     15  C   UNL     1      -8.461  -2.602 124.426  0.00  0.00    +0.000 C 
ATOM     16  C   UNL     1      -8.276  -4.061 124.772  0.00  0.00    +0.000 C 
ATOM     17  C   UNL     1      -9.203  -2.413 123.120  0.00  0.00    +0.000 C 
ATOM     18  C   UNL     1      -9.193  -0.985 122.595  0.00  0.00    +0.000 C 
ATOM     19  C   UNL     1      -9.498  -0.023 123.730  0.00  0.00    +0.000 C 
ATOM     20  C   UNL     1      -8.430  -0.098 124.861  0.00  0.00    +0.000 C 
ATOM     21  C   UNL     1      -9.054   0.628 126.077  0.00  0.00    +0.000 C 
ATOM     22  C   UNL     1      -7.177   0.682 124.415  0.00  0.00    +0.000 C 
ENDBRANCH  13  14
ENDBRANCH   2  12
TORSDOF 6
ENDMDL
