MODEL 1
REMARK VINA RESULT:      -6.8      0.000      0.000
REMARK  Name = Vitamin E
REMARK  21 active torsions:
REMARK  status: ('A' for Active; 'I' for Inactive)
REMARK    1  A    between atoms: C_1  and  C_2
REMARK    2  A    between atoms: C_2  and  C_3
REMARK    3  A    between atoms: C_2  and  C_4
REMARK    4  A    between atoms: C_4  and  C_5
REMARK    5  A    between atoms: C_5  and  C_6
REMARK    6  A    between atoms: C_6  and  C_7
REMARK    7  A    between atoms: C_7  and  C_8
REMARK    8  A    between atoms: C_7  and  C_9
REMARK    9  A    between atoms: C_9  and  C_10
REMARK   10  A    between atoms: C_10  and  C_11
REMARK   11  A    between atoms: C_11  and  C_12
REMARK   12  A    between atoms: C_12  and  C_13
REMARK   13  A    between atoms: C_12  and  C_14
REMARK   14  A    between atoms: C_14  and  C_15
REMARK   15  A    between atoms: C_15  and  C_16
REMARK   16  A    between atoms: C_16  and  C_17
REMARK   17  A    between atoms: C_17  and  C_18
REMARK   18  A    between atoms: C_24  and  C_25
REMARK   19  A    between atoms: C_26  and  C_27
REMARK   20  A    between atoms: C_28  and  O_29
REMARK   21  A    between atoms: C_30  and  C_31
REMARK                            x       y       z     vdW  Elec       q    Type
REMARK                         _______ _______ _______ _____ _____    ______ ____
ROOT
ATOM      1  C   UNL     1      -9.026  -1.280 123.851  0.00  0.00    +0.000 C 
ENDROOT
BRANCH   1   2
ATOM      2  C   UNL     1      -8.564   0.207 123.915  0.00  0.00    +0.000 C 
ATOM      3  C   UNL     1      -9.678   1.078 123.289  0.00  0.00    +0.000 C 
ATOM      4  C   UNL     1      -7.211   0.352 123.203  0.00  0.00    +0.000 C 
ATOM      5  C   UNL     1      -6.797   1.790 123.173  0.00  0.00    +0.000 C 
ATOM      6  C   UNL     1      -6.946   2.402 124.530  0.00  0.00    +0.000 A 
ATOM      7  C   UNL     1      -7.721   1.777 125.530  0.00  0.00    +0.000 A 
ATOM      8  O   UNL     1      -8.406   0.594 125.301  0.00  0.00    +0.000 OA
ATOM      9  C   UNL     1      -7.825   2.357 126.809  0.00  0.00    +0.000 A 
ATOM     10  C   UNL     1      -8.605   1.670 127.903  0.00  0.00    +0.000 C 
ATOM     11  C   UNL     1      -7.192   3.608 127.063  0.00  0.00    +0.000 A 
ATOM     12  C   UNL     1      -7.293   4.287 128.405  0.00  0.00    +0.000 C 
ATOM     13  C   UNL     1      -6.465   4.229 126.027  0.00  0.00    +0.000 A 
ATOM     14  C   UNL     1      -6.335   3.647 124.769  0.00  0.00    +0.000 A 
ATOM     15  C   UNL     1      -5.572   4.324 123.658  0.00  0.00    +0.000 C 
BRANCH  13  16
ATOM     16  O   UNL     1      -5.847   5.442 126.205  0.00  0.00    +0.000 OA
ATOM     17  H   UNL     1      -6.497   6.138 126.335  0.00  0.00    +0.000 HD
ENDBRANCH  13  16
ENDBRANCH   1   2
BRANCH   1  18
ATOM     18  C   UNL     1      -7.952  -2.157 123.210  0.00  0.00    +0.000 C 
BRANCH  18  19
ATOM     19  C   UNL     1      -7.290  -3.149 124.135  0.00  0.00    +0.000 C 
BRANCH  19  20
ATOM     20  C   UNL     1      -5.922  -2.605 124.581  0.00  0.00    +0.000 C 
ATOM     21  C   UNL     1      -4.762  -3.262 123.808  0.00  0.00    +0.000 C 
BRANCH  20  22
ATOM     22  C   UNL     1      -5.805  -2.820 126.090  0.00  0.00    +0.000 C 
BRANCH  22  23
ATOM     23  C   UNL     1      -6.159  -1.552 126.832  0.00  0.00    +0.000 C 
BRANCH  23  24
ATOM     24  C   UNL     1      -7.459  -1.687 127.591  0.00  0.00    +0.000 C 
BRANCH  24  25
ATOM     25  C   UNL     1      -7.738  -3.160 127.899  0.00  0.00    +0.000 C 
ATOM     26  C   UNL     1      -9.067  -3.634 127.278  0.00  0.00    +0.000 C 
BRANCH  25  27
ATOM     27  C   UNL     1      -7.725  -3.335 129.420  0.00  0.00    +0.000 C 
BRANCH  27  28
ATOM     28  C   UNL     1      -6.388  -3.884 129.874  0.00  0.00    +0.000 C 
BRANCH  28  29
ATOM     29  C   UNL     1      -5.702  -2.969 130.868  0.00  0.00    +0.000 C 
BRANCH  29  31
ATOM     30  C   UNL     1      -3.936  -3.478 129.187  0.00  0.00    +0.000 C 
ATOM     31  C   UNL     1      -4.285  -2.618 130.394  0.00  0.00    +0.000 C 
ATOM     32  C   UNL     1      -4.141  -1.134 130.035  0.00  0.00    +0.000 C 
ENDBRANCH  29  31
ENDBRANCH  28  29
ENDBRANCH  27  28
ENDBRANCH  25  27
ENDBRANCH  24  25
ENDBRANCH  23  24
ENDBRANCH  22  23
ENDBRANCH  20  22
ENDBRANCH  19  20
ENDBRANCH  18  19
ENDBRANCH   1  18
TORSDOF 13
ENDMDL
MODEL 2
REMARK VINA RESULT:      -6.7      1.686      4.975
REMARK  Name = Vitamin E
REMARK  21 active torsions:
REMARK  status: ('A' for Active; 'I' for Inactive)
REMARK    1  A    between atoms: C_1  and  C_2
REMARK    2  A    between atoms: C_2  and  C_3
REMARK    3  A    between atoms: C_2  and  C_4
REMARK    4  A    between atoms: C_4  and  C_5
REMARK    5  A    between atoms: C_5  and  C_6
REMARK    6  A    between atoms: C_6  and  C_7
REMARK    7  A    between atoms: C_7  and  C_8
REMARK    8  A    between atoms: C_7  and  C_9
REMARK    9  A    between atoms: C_9  and  C_10
REMARK   10  A    between atoms: C_10  and  C_11
REMARK   11  A    between atoms: C_11  and  C_12
REMARK   12  A    between atoms: C_12  and  C_13
REMARK   13  A    between atoms: C_12  and  C_14
REMARK   14  A    between atoms: C_14  and  C_15
REMARK   15  A    between atoms: C_15  and  C_16
REMARK   16  A    between atoms: C_16  and  C_17
REMARK   17  A    between atoms: C_17  and  C_18
REMARK   18  A    between atoms: C_24  and  C_25
REMARK   19  A    between atoms: C_26  and  C_27
REMARK   20  A    between atoms: C_28  and  O_29
REMARK   21  A    between atoms: C_30  and  C_31
REMARK                            x       y       z     vdW  Elec       q    Type
REMARK                         _______ _______ _______ _____ _____    ______ ____
ROOT
ATOM      1  C   UNL     1      -6.449   1.609 129.594  0.00  0.00    +0.000 C 
ENDROOT
BRANCH   1   2
ATOM      2  C   UNL     1      -7.248   2.017 128.320  0.00  0.00    +0.000 C 
ATOM      3  C   UNL     1      -8.103   3.255 128.672  0.00  0.00    +0.000 C 
ATOM      4  C   UNL     1      -8.084   0.822 127.837  0.00  0.00    +0.000 C 
ATOM      5  C   UNL     1      -8.929   1.224 126.669  0.00  0.00    +0.000 C 
ATOM      6  C   UNL     1      -8.104   1.958 125.659  0.00  0.00    +0.000 A 
ATOM      7  C   UNL     1      -6.841   2.488 125.997  0.00  0.00    +0.000 A 
ATOM      8  O   UNL     1      -6.316   2.386 127.275  0.00  0.00    +0.000 OA
ATOM      9  C   UNL     1      -6.070   3.152 125.022  0.00  0.00    +0.000 A 
ATOM     10  C   UNL     1      -4.694   3.673 125.357  0.00  0.00    +0.000 C 
ATOM     11  C   UNL     1      -6.604   3.337 123.715  0.00  0.00    +0.000 A 
ATOM     12  C   UNL     1      -5.834   4.064 122.642  0.00  0.00    +0.000 C 
ATOM     13  C   UNL     1      -7.890   2.837 123.425  0.00  0.00    +0.000 A 
ATOM     14  C   UNL     1      -8.645   2.155 124.374  0.00  0.00    +0.000 A 
ATOM     15  C   UNL     1     -10.029   1.639 124.066  0.00  0.00    +0.000 C 
BRANCH  13  16
ATOM     16  O   UNL     1      -8.466   2.998 122.188  0.00  0.00    +0.000 OA
ATOM     17  H   UNL     1      -8.029   2.442 121.537  0.00  0.00    +0.000 HD
ENDBRANCH  13  16
ENDBRANCH   1   2
BRANCH   1  18
ATOM     18  C   UNL     1      -6.310   0.091 129.686  0.00  0.00    +0.000 C 
BRANCH  18  19
ATOM     19  C   UNL     1      -6.976  -0.549 130.879  0.00  0.00    +0.000 C 
BRANCH  19  20
ATOM     20  C   UNL     1      -6.808  -2.077 130.807  0.00  0.00    +0.000 C 
ATOM     21  C   UNL     1      -5.496  -2.479 130.105  0.00  0.00    +0.000 C 
BRANCH  20  22
ATOM     22  C   UNL     1      -8.038  -2.649 130.103  0.00  0.00    +0.000 C 
BRANCH  22  23
ATOM     23  C   UNL     1      -7.635  -3.357 128.830  0.00  0.00    +0.000 C 
BRANCH  23  24
ATOM     24  C   UNL     1      -8.776  -3.432 127.841  0.00  0.00    +0.000 C 
BRANCH  24  25
ATOM     25  C   UNL     1      -8.420  -2.660 126.569  0.00  0.00    +0.000 C 
ATOM     26  C   UNL     1      -8.816  -3.438 125.298  0.00  0.00    +0.000 C 
BRANCH  25  27
ATOM     27  C   UNL     1      -6.921  -2.354 126.605  0.00  0.00    +0.000 C 
BRANCH  27  28
ATOM     28  C   UNL     1      -6.542  -1.447 125.452  0.00  0.00    +0.000 C 
BRANCH  28  29
ATOM     29  C   UNL     1      -5.276  -1.906 124.756  0.00  0.00    +0.000 C 
BRANCH  29  31
ATOM     30  C   UNL     1      -5.929  -2.201 122.370  0.00  0.00    +0.000 C 
ATOM     31  C   UNL     1      -5.599  -2.934 123.664  0.00  0.00    +0.000 C 
ATOM     32  C   UNL     1      -4.445  -3.915 123.426  0.00  0.00    +0.000 C 
ENDBRANCH  29  31
ENDBRANCH  28  29
ENDBRANCH  27  28
ENDBRANCH  25  27
ENDBRANCH  24  25
ENDBRANCH  23  24
ENDBRANCH  22  23
ENDBRANCH  20  22
ENDBRANCH  19  20
ENDBRANCH  18  19
ENDBRANCH   1  18
TORSDOF 13
ENDMDL
MODEL 3
REMARK VINA RESULT:      -6.7      1.674      4.737
REMARK  Name = Vitamin E
REMARK  21 active torsions:
REMARK  status: ('A' for Active; 'I' for Inactive)
REMARK    1  A    between atoms: C_1  and  C_2
REMARK    2  A    between atoms: C_2  and  C_3
REMARK    3  A    between atoms: C_2  and  C_4
REMARK    4  A    between atoms: C_4  and  C_5
REMARK    5  A    between atoms: C_5  and  C_6
REMARK    6  A    between atoms: C_6  and  C_7
REMARK    7  A    between atoms: C_7  and  C_8
REMARK    8  A    between atoms: C_7  and  C_9
REMARK    9  A    between atoms: C_9  and  C_10
REMARK   10  A    between atoms: C_10  and  C_11
REMARK   11  A    between atoms: C_11  and  C_12
REMARK   12  A    between atoms: C_12  and  C_13
REMARK   13  A    between atoms: C_12  and  C_14
REMARK   14  A    between atoms: C_14  and  C_15
REMARK   15  A    between atoms: C_15  and  C_16
REMARK   16  A    between atoms: C_16  and  C_17
REMARK   17  A    between atoms: C_17  and  C_18
REMARK   18  A    between atoms: C_24  and  C_25
REMARK   19  A    between atoms: C_26  and  C_27
REMARK   20  A    between atoms: C_28  and  O_29
REMARK   21  A    between atoms: C_30  and  C_31
REMARK                            x       y       z     vdW  Elec       q    Type
REMARK                         _______ _______ _______ _____ _____    ______ ____
ROOT
ATOM      1  C   UNL     1      -8.024   0.643 129.407  0.00  0.00    +0.000 C 
ENDROOT
BRANCH   1   2
ATOM      2  C   UNL     1      -7.228   1.191 128.184  0.00  0.00    +0.000 C 
ATOM      3  C   UNL     1      -6.250   0.088 127.721  0.00  0.00    +0.000 C 
ATOM      4  C   UNL     1      -6.522   2.497 128.578  0.00  0.00    +0.000 C 
ATOM      5  C   UNL     1      -5.678   2.988 127.445  0.00  0.00    +0.000 C 
ATOM      6  C   UNL     1      -6.460   2.970 126.169  0.00  0.00    +0.000 A 
ATOM      7  C   UNL     1      -7.657   2.232 126.059  0.00  0.00    +0.000 A 
ATOM      8  O   UNL     1      -8.151   1.468 127.104  0.00  0.00    +0.000 OA
ATOM      9  C   UNL     1      -8.391   2.251 124.857  0.00  0.00    +0.000 A 
ATOM     10  C   UNL     1      -9.702   1.511 124.746  0.00  0.00    +0.000 C 
ATOM     11  C   UNL     1      -7.881   2.969 123.738  0.00  0.00    +0.000 A 
ATOM     12  C   UNL     1      -8.610   2.999 122.419  0.00  0.00    +0.000 C 
ATOM     13  C   UNL     1      -6.656   3.655 123.867  0.00  0.00    +0.000 A 
ATOM     14  C   UNL     1      -5.940   3.665 125.060  0.00  0.00    +0.000 A 
ATOM     15  C   UNL     1      -4.621   4.385 125.188  0.00  0.00    +0.000 C 
BRANCH  13  16
ATOM     16  O   UNL     1      -6.104   4.352 122.819  0.00  0.00    +0.000 OA
ATOM     17  H   UNL     1      -5.535   3.781 122.296  0.00  0.00    +0.000 HD
ENDBRANCH  13  16
ENDBRANCH   1   2
BRANCH   1  18
ATOM     18  C   UNL     1      -7.260  -0.491 130.090  0.00  0.00    +0.000 C 
BRANCH  18  19
ATOM     19  C   UNL     1      -8.114  -1.611 130.631  0.00  0.00    +0.000 C 
BRANCH  19  20
ATOM     20  C   UNL     1      -7.599  -2.958 130.096  0.00  0.00    +0.000 C 
ATOM     21  C   UNL     1      -6.142  -2.862 129.603  0.00  0.00    +0.000 C 
BRANCH  20  22
ATOM     22  C   UNL     1      -8.553  -3.417 128.992  0.00  0.00    +0.000 C 
BRANCH  22  23
ATOM     23  C   UNL     1      -8.029  -3.002 127.637  0.00  0.00    +0.000 C 
BRANCH  23  24
ATOM     24  C   UNL     1      -8.678  -3.784 126.518  0.00  0.00    +0.000 C 
BRANCH  24  25
ATOM     25  C   UNL     1      -9.250  -2.827 125.470  0.00  0.00    +0.000 C 
ATOM     26  C   UNL     1      -9.227  -3.445 124.058  0.00  0.00    +0.000 C 
BRANCH  25  27
ATOM     27  C   UNL     1      -8.451  -1.523 125.535  0.00  0.00    +0.000 C 
BRANCH  27  28
ATOM     28  C   UNL     1      -7.601  -1.366 124.291  0.00  0.00    +0.000 C 
BRANCH  28  29
ATOM     29  C   UNL     1      -6.119  -1.458 124.595  0.00  0.00    +0.000 C 
BRANCH  29  31
ATOM     30  C   UNL     1      -5.427  -3.788 124.050  0.00  0.00    +0.000 C 
ATOM     31  C   UNL     1      -5.408  -2.345 123.564  0.00  0.00    +0.000 C 
ATOM     32  C   UNL     1      -6.050  -2.256 122.175  0.00  0.00    +0.000 C 
ENDBRANCH  29  31
ENDBRANCH  28  29
ENDBRANCH  27  28
ENDBRANCH  25  27
ENDBRANCH  24  25
ENDBRANCH  23  24
ENDBRANCH  22  23
ENDBRANCH  20  22
ENDBRANCH  19  20
ENDBRANCH  18  19
ENDBRANCH   1  18
TORSDOF 13
ENDMDL
MODEL 4
REMARK VINA RESULT:      -6.7      1.631      3.635
REMARK  Name = Vitamin E
REMARK  21 active torsions:
REMARK  status: ('A' for Active; 'I' for Inactive)
REMARK    1  A    between atoms: C_1  and  C_2
REMARK    2  A    between atoms: C_2  and  C_3
REMARK    3  A    between atoms: C_2  and  C_4
REMARK    4  A    between atoms: C_4  and  C_5
REMARK    5  A    between atoms: C_5  and  C_6
REMARK    6  A    between atoms: C_6  and  C_7
REMARK    7  A    between atoms: C_7  and  C_8
REMARK    8  A    between atoms: C_7  and  C_9
REMARK    9  A    between atoms: C_9  and  C_10
REMARK   10  A    between atoms: C_10  and  C_11
REMARK   11  A    between atoms: C_11  and  C_12
REMARK   12  A    between atoms: C_12  and  C_13
REMARK   13  A    between atoms: C_12  and  C_14
REMARK   14  A    between atoms: C_14  and  C_15
REMARK   15  A    between atoms: C_15  and  C_16
REMARK   16  A    between atoms: C_16  and  C_17
REMARK   17  A    between atoms: C_17  and  C_18
REMARK   18  A    between atoms: C_24  and  C_25
REMARK   19  A    between atoms: C_26  and  C_27
REMARK   20  A    between atoms: C_28  and  O_29
REMARK   21  A    between atoms: C_30  and  C_31
REMARK                            x       y       z     vdW  Elec       q    Type
REMARK                         _______ _______ _______ _____ _____    ______ ____
ROOT
ATOM      1  C   UNL     1      -8.049  -2.770 124.048  0.00  0.00    +0.000 C 
ENDROOT
BRANCH   1   2
ATOM      2  C   UNL     1      -7.170  -1.501 124.265  0.00  0.00    +0.000 C 
ATOM      3  C   UNL     1      -6.425  -1.207 122.944  0.00  0.00    +0.000 C 
ATOM      4  C   UNL     1      -6.225  -1.731 125.454  0.00  0.00    +0.000 C 
ATOM      5  C   UNL     1      -5.310  -0.559 125.619  0.00  0.00    +0.000 C 
ATOM      6  C   UNL     1      -6.088   0.718 125.578  0.00  0.00    +0.000 A 
ATOM      7  C   UNL     1      -7.405   0.752 125.074  0.00  0.00    +0.000 A 
ATOM      8  O   UNL     1      -8.030  -0.375 124.565  0.00  0.00    +0.000 OA
ATOM      9  C   UNL     1      -8.129   1.961 125.071  0.00  0.00    +0.000 A 
ATOM     10  C   UNL     1      -9.558   1.999 124.586  0.00  0.00    +0.000 C 
ATOM     11  C   UNL     1      -7.498   3.155 125.522  0.00  0.00    +0.000 A 
ATOM     12  C   UNL     1      -8.215   4.480 125.513  0.00  0.00    +0.000 C 
ATOM     13  C   UNL     1      -6.163   3.094 125.973  0.00  0.00    +0.000 A 
ATOM     14  C   UNL     1      -5.452   1.898 126.006  0.00  0.00    +0.000 A 
ATOM     15  C   UNL     1      -4.019   1.841 126.473  0.00  0.00    +0.000 C 
BRANCH  13  16
ATOM     16  O   UNL     1      -5.495   4.214 126.405  0.00  0.00    +0.000 OA
ATOM     17  H   UNL     1      -5.441   4.227 127.365  0.00  0.00    +0.000 HD
ENDBRANCH  13  16
ENDBRANCH   1   2
BRANCH   1  18
ATOM     18  C   UNL     1      -8.100  -3.620 125.316  0.00  0.00    +0.000 C 
BRANCH  18  19
ATOM     19  C   UNL     1      -9.098  -3.170 126.356  0.00  0.00    +0.000 C 
BRANCH  19  20
ATOM     20  C   UNL     1      -8.704  -3.739 127.729  0.00  0.00    +0.000 C 
ATOM     21  C   UNL     1      -9.911  -4.355 128.465  0.00  0.00    +0.000 C 
BRANCH  20  22
ATOM     22  C   UNL     1      -8.053  -2.613 128.532  0.00  0.00    +0.000 C 
BRANCH  22  23
ATOM     23  C   UNL     1      -7.701  -3.092 129.922  0.00  0.00    +0.000 C 
BRANCH  23  24
ATOM     24  C   UNL     1      -6.321  -2.641 130.341  0.00  0.00    +0.000 C 
BRANCH  24  25
ATOM     25  C   UNL     1      -5.556  -2.094 129.133  0.00  0.00    +0.000 C 
ATOM     26  C   UNL     1      -4.528  -3.111 128.598  0.00  0.00    +0.000 C 
BRANCH  25  27
ATOM     27  C   UNL     1      -4.893  -0.779 129.550  0.00  0.00    +0.000 C 
BRANCH  27  28
ATOM     28  C   UNL     1      -5.923   0.169 130.129  0.00  0.00    +0.000 C 
BRANCH  28  29
ATOM     29  C   UNL     1      -6.613   0.989 129.057  0.00  0.00    +0.000 C 
BRANCH  29  31
ATOM     30  C   UNL     1      -8.438   0.533 130.689  0.00  0.00    +0.000 C 
ATOM     31  C   UNL     1      -8.133   0.991 129.269  0.00  0.00    +0.000 C 
ATOM     32  C   UNL     1      -8.754   2.370 129.022  0.00  0.00    +0.000 C 
ENDBRANCH  29  31
ENDBRANCH  28  29
ENDBRANCH  27  28
ENDBRANCH  25  27
ENDBRANCH  24  25
ENDBRANCH  23  24
ENDBRANCH  22  23
ENDBRANCH  20  22
ENDBRANCH  19  20
ENDBRANCH  18  19
ENDBRANCH   1  18
TORSDOF 13
ENDMDL
MODEL 5
REMARK VINA RESULT:      -6.6      2.085      5.218
REMARK  Name = Vitamin E
REMARK  21 active torsions:
REMARK  status: ('A' for Active; 'I' for Inactive)
REMARK    1  A    between atoms: C_1  and  C_2
REMARK    2  A    between atoms: C_2  and  C_3
REMARK    3  A    between atoms: C_2  and  C_4
REMARK    4  A    between atoms: C_4  and  C_5
REMARK    5  A    between atoms: C_5  and  C_6
REMARK    6  A    between atoms: C_6  and  C_7
REMARK    7  A    between atoms: C_7  and  C_8
REMARK    8  A    between atoms: C_7  and  C_9
REMARK    9  A    between atoms: C_9  and  C_10
REMARK   10  A    between atoms: C_10  and  C_11
REMARK   11  A    between atoms: C_11  and  C_12
REMARK   12  A    between atoms: C_12  and  C_13
REMARK   13  A    between atoms: C_12  and  C_14
REMARK   14  A    between atoms: C_14  and  C_15
REMARK   15  A    between atoms: C_15  and  C_16
REMARK   16  A    between atoms: C_16  and  C_17
REMARK   17  A    between atoms: C_17  and  C_18
REMARK   18  A    between atoms: C_24  and  C_25
REMARK   19  A    between atoms: C_26  and  C_27
REMARK   20  A    between atoms: C_28  and  O_29
REMARK   21  A    between atoms: C_30  and  C_31
REMARK                            x       y       z     vdW  Elec       q    Type
REMARK                         _______ _______ _______ _____ _____    ______ ____
ROOT
ATOM      1  C   UNL     1      -6.000   4.433 125.240  0.00  0.00    +0.000 C 
ENDROOT
BRANCH   1   2
ATOM      2  C   UNL     1      -6.682   3.322 124.385  0.00  0.00    +0.000 C 
ATOM      3  C   UNL     1      -6.121   3.417 122.948  0.00  0.00    +0.000 C 
ATOM      4  C   UNL     1      -8.207   3.492 124.450  0.00  0.00    +0.000 C 
ATOM      5  C   UNL     1      -8.875   2.492 123.560  0.00  0.00    +0.000 C 
ATOM      6  C   UNL     1      -8.310   1.127 123.796  0.00  0.00    +0.000 A 
ATOM      7  C   UNL     1      -7.086   0.953 124.476  0.00  0.00    +0.000 A 
ATOM      8  O   UNL     1      -6.334   2.026 124.927  0.00  0.00    +0.000 OA
ATOM      9  C   UNL     1      -6.586  -0.343 124.710  0.00  0.00    +0.000 A 
ATOM     10  C   UNL     1      -5.306  -0.543 125.485  0.00  0.00    +0.000 C 
ATOM     11  C   UNL     1      -7.295  -1.468 124.202  0.00  0.00    +0.000 A 
ATOM     12  C   UNL     1      -6.792  -2.875 124.399  0.00  0.00    +0.000 C 
ATOM     13  C   UNL     1      -8.490  -1.256 123.484  0.00  0.00    +0.000 A 
ATOM     14  C   UNL     1      -9.005   0.019 123.274  0.00  0.00    +0.000 A 
ATOM     15  C   UNL     1     -10.274   0.244 122.490  0.00  0.00    +0.000 C 
BRANCH  13  16
ATOM     16  O   UNL     1      -9.210  -2.300 122.956  0.00  0.00    +0.000 OA
ATOM     17  H   UNL     1      -8.787  -3.139 123.157  0.00  0.00    +0.000 HD
ENDBRANCH  13  16
ENDBRANCH   1   2
BRANCH   1  18
ATOM     18  C   UNL     1      -4.548   4.070 125.544  0.00  0.00    +0.000 C 
BRANCH  18  19
ATOM     19  C   UNL     1      -4.039   4.516 126.893  0.00  0.00    +0.000 C 
BRANCH  19  20
ATOM     20  C   UNL     1      -3.325   3.345 127.590  0.00  0.00    +0.000 C 
ATOM     21  C   UNL     1      -1.927   3.088 126.995  0.00  0.00    +0.000 C 
BRANCH  20  22
ATOM     22  C   UNL     1      -4.231   2.118 127.486  0.00  0.00    +0.000 C 
BRANCH  22  23
ATOM     23  C   UNL     1      -5.070   1.976 128.734  0.00  0.00    +0.000 C 
BRANCH  23  24
ATOM     24  C   UNL     1      -6.495   2.427 128.509  0.00  0.00    +0.000 C 
BRANCH  24  25
ATOM     25  C   UNL     1      -7.414   1.214 128.354  0.00  0.00    +0.000 C 
ATOM     26  C   UNL     1      -8.690   1.558 127.559  0.00  0.00    +0.000 C 
BRANCH  25  27
ATOM     27  C   UNL     1      -7.741   0.687 129.754  0.00  0.00    +0.000 C 
BRANCH  27  28
ATOM     28  C   UNL     1      -7.609  -0.822 129.792  0.00  0.00    +0.000 C 
BRANCH  28  29
ATOM     29  C   UNL     1      -7.343  -1.408 128.419  0.00  0.00    +0.000 C 
BRANCH  29  31
ATOM     30  C   UNL     1      -5.021  -2.269 128.689  0.00  0.00    +0.000 C 
ATOM     31  C   UNL     1      -6.481  -2.673 128.527  0.00  0.00    +0.000 C 
ATOM     32  C   UNL     1      -6.905  -3.570 129.696  0.00  0.00    +0.000 C 
ENDBRANCH  29  31
ENDBRANCH  28  29
ENDBRANCH  27  28
ENDBRANCH  25  27
ENDBRANCH  24  25
ENDBRANCH  23  24
ENDBRANCH  22  23
ENDBRANCH  20  22
ENDBRANCH  19  20
ENDBRANCH  18  19
ENDBRANCH   1  18
TORSDOF 13
ENDMDL
MODEL 6
REMARK VINA RESULT:      -6.6      3.445      8.357
REMARK  Name = Vitamin E
REMARK  21 active torsions:
REMARK  status: ('A' for Active; 'I' for Inactive)
REMARK    1  A    between atoms: C_1  and  C_2
REMARK    2  A    between atoms: C_2  and  C_3
REMARK    3  A    between atoms: C_2  and  C_4
REMARK    4  A    between atoms: C_4  and  C_5
REMARK    5  A    between atoms: C_5  and  C_6
REMARK    6  A    between atoms: C_6  and  C_7
REMARK    7  A    between atoms: C_7  and  C_8
REMARK    8  A    between atoms: C_7  and  C_9
REMARK    9  A    between atoms: C_9  and  C_10
REMARK   10  A    between atoms: C_10  and  C_11
REMARK   11  A    between atoms: C_11  and  C_12
REMARK   12  A    between atoms: C_12  and  C_13
REMARK   13  A    between atoms: C_12  and  C_14
REMARK   14  A    between atoms: C_14  and  C_15
REMARK   15  A    between atoms: C_15  and  C_16
REMARK   16  A    between atoms: C_16  and  C_17
REMARK   17  A    between atoms: C_17  and  C_18
REMARK   18  A    between atoms: C_24  and  C_25
REMARK   19  A    between atoms: C_26  and  C_27
REMARK   20  A    between atoms: C_28  and  O_29
REMARK   21  A    between atoms: C_30  and  C_31
REMARK                            x       y       z     vdW  Elec       q    Type
REMARK                         _______ _______ _______ _____ _____    ______ ____
ROOT
ATOM      1  C   UNL     1      -7.089  -0.931 130.247  0.00  0.00    +0.000 C 
ENDROOT
BRANCH   1   2
ATOM      2  C   UNL     1      -7.066  -1.549 128.816  0.00  0.00    +0.000 C 
ATOM      3  C   UNL     1      -7.876  -2.865 128.854  0.00  0.00    +0.000 C 
ATOM      4  C   UNL     1      -5.610  -1.748 128.369  0.00  0.00    +0.000 C 
ATOM      5  C   UNL     1      -5.569  -2.427 127.036  0.00  0.00    +0.000 C 
ATOM      6  C   UNL     1      -6.511  -1.760 126.084  0.00  0.00    +0.000 A 
ATOM      7  C   UNL     1      -7.521  -0.892 126.548  0.00  0.00    +0.000 A 
ATOM      8  O   UNL     1      -7.715  -0.639 127.896  0.00  0.00    +0.000 OA
ATOM      9  C   UNL     1      -8.379  -0.253 125.631  0.00  0.00    +0.000 A 
ATOM     10  C   UNL     1      -9.428   0.720 126.111  0.00  0.00    +0.000 C 
ATOM     11  C   UNL     1      -8.256  -0.541 124.241  0.00  0.00    +0.000 A 
ATOM     12  C   UNL     1      -9.166   0.092 123.220  0.00  0.00    +0.000 C 
ATOM     13  C   UNL     1      -7.267  -1.451 123.817  0.00  0.00    +0.000 A 
ATOM     14  C   UNL     1      -6.397  -2.063 124.714  0.00  0.00    +0.000 A 
ATOM     15  C   UNL     1      -5.352  -3.051 124.258  0.00  0.00    +0.000 C 
BRANCH  13  16
ATOM     16  O   UNL     1      -7.110  -1.781 122.493  0.00  0.00    +0.000 OA
ATOM     17  H   UNL     1      -6.778  -2.679 122.404  0.00  0.00    +0.000 HD
ENDBRANCH  13  16
ENDBRANCH   1   2
BRANCH   1  18
ATOM     18  C   UNL     1      -8.219   0.088 130.381  0.00  0.00    +0.000 C 
BRANCH  18  19
ATOM     19  C   UNL     1      -7.782   1.528 130.495  0.00  0.00    +0.000 C 
BRANCH  19  20
ATOM     20  C   UNL     1      -8.789   2.432 129.765  0.00  0.00    +0.000 C 
ATOM     21  C   UNL     1      -8.110   3.292 128.681  0.00  0.00    +0.000 C 
BRANCH  20  22
ATOM     22  C   UNL     1      -9.499   3.285 130.816  0.00  0.00    +0.000 C 
BRANCH  22  23
ATOM     23  C   UNL     1     -10.946   3.497 130.433  0.00  0.00    +0.000 C 
BRANCH  23  24
ATOM     24  C   UNL     1     -11.240   4.947 130.124  0.00  0.00    +0.000 C 
BRANCH  24  25
ATOM     25  C   UNL     1     -10.382   5.858 131.004  0.00  0.00    +0.000 C 
ATOM     26  C   UNL     1     -11.214   6.535 132.111  0.00  0.00    +0.000 C 
BRANCH  25  27
ATOM     27  C   UNL     1      -9.698   6.884 130.097  0.00  0.00    +0.000 C 
BRANCH  27  28
ATOM     28  C   UNL     1     -10.372   6.917 128.741  0.00  0.00    +0.000 C 
BRANCH  28  29
ATOM     29  C   UNL     1     -10.671   8.332 128.285  0.00  0.00    +0.000 C 
BRANCH  29  31
ATOM     30  C   UNL     1     -12.905   7.325 127.834  0.00  0.00    +0.000 C 
ATOM     31  C   UNL     1     -12.184   8.591 128.278  0.00  0.00    +0.000 C 
ATOM     32  C   UNL     1     -12.706   9.032 129.651  0.00  0.00    +0.000 C 
ENDBRANCH  29  31
ENDBRANCH  28  29
ENDBRANCH  27  28
ENDBRANCH  25  27
ENDBRANCH  24  25
ENDBRANCH  23  24
ENDBRANCH  22  23
ENDBRANCH  20  22
ENDBRANCH  19  20
ENDBRANCH  18  19
ENDBRANCH   1  18
TORSDOF 13
ENDMDL
MODEL 7
REMARK VINA RESULT:      -6.5      2.687      5.315
REMARK  Name = Vitamin E
REMARK  21 active torsions:
REMARK  status: ('A' for Active; 'I' for Inactive)
REMARK    1  A    between atoms: C_1  and  C_2
REMARK    2  A    between atoms: C_2  and  C_3
REMARK    3  A    between atoms: C_2  and  C_4
REMARK    4  A    between atoms: C_4  and  C_5
REMARK    5  A    between atoms: C_5  and  C_6
REMARK    6  A    between atoms: C_6  and  C_7
REMARK    7  A    between atoms: C_7  and  C_8
REMARK    8  A    between atoms: C_7  and  C_9
REMARK    9  A    between atoms: C_9  and  C_10
REMARK   10  A    between atoms: C_10  and  C_11
REMARK   11  A    between atoms: C_11  and  C_12
REMARK   12  A    between atoms: C_12  and  C_13
REMARK   13  A    between atoms: C_12  and  C_14
REMARK   14  A    between atoms: C_14  and  C_15
REMARK   15  A    between atoms: C_15  and  C_16
REMARK   16  A    between atoms: C_16  and  C_17
REMARK   17  A    between atoms: C_17  and  C_18
REMARK   18  A    between atoms: C_24  and  C_25
REMARK   19  A    between atoms: C_26  and  C_27
REMARK   20  A    between atoms: C_28  and  O_29
REMARK   21  A    between atoms: C_30  and  C_31
REMARK                            x       y       z     vdW  Elec       q    Type
REMARK                         _______ _______ _______ _____ _____    ______ ____
ROOT
ATOM      1  C   UNL     1      -5.032   1.704 126.054  0.00  0.00    +0.000 C 
ENDROOT
BRANCH   1   2
ATOM      2  C   UNL     1      -4.599   3.049 126.714  0.00  0.00    +0.000 C 
ATOM      3  C   UNL     1      -4.767   4.169 125.663  0.00  0.00    +0.000 C 
ATOM      4  C   UNL     1      -3.161   2.920 127.237  0.00  0.00    +0.000 C 
ATOM      5  C   UNL     1      -2.696   4.231 127.791  0.00  0.00    +0.000 C 
ATOM      6  C   UNL     1      -3.729   4.803 128.709  0.00  0.00    +0.000 A 
ATOM      7  C   UNL     1      -5.056   4.324 128.701  0.00  0.00    +0.000 A 
ATOM      8  O   UNL     1      -5.478   3.332 127.829  0.00  0.00    +0.000 OA
ATOM      9  C   UNL     1      -6.006   4.858 129.594  0.00  0.00    +0.000 A 
ATOM     10  C   UNL     1      -7.414   4.316 129.633  0.00  0.00    +0.000 C 
ATOM     11  C   UNL     1      -5.630   5.926 130.458  0.00  0.00    +0.000 A 
ATOM     12  C   UNL     1      -6.612   6.554 131.413  0.00  0.00    +0.000 C 
ATOM     13  C   UNL     1      -4.308   6.414 130.406  0.00  0.00    +0.000 A 
ATOM     14  C   UNL     1      -3.357   5.871 129.547  0.00  0.00    +0.000 A 
ATOM     15  C   UNL     1      -1.949   6.408 129.481  0.00  0.00    +0.000 C 
BRANCH  13  16
ATOM     16  O   UNL     1      -3.889   7.452 131.203  0.00  0.00    +0.000 OA
ATOM     17  H   UNL     1      -4.488   7.571 131.945  0.00  0.00    +0.000 HD
ENDBRANCH  13  16
ENDBRANCH   1   2
BRANCH   1  18
ATOM     18  C   UNL     1      -6.323   1.182 126.679  0.00  0.00    +0.000 C 
BRANCH  18  19
ATOM     19  C   UNL     1      -7.498   1.066 125.738  0.00  0.00    +0.000 C 
BRANCH  19  20
ATOM     20  C   UNL     1      -7.260   1.954 124.505  0.00  0.00    +0.000 C 
ATOM     21  C   UNL     1      -8.359   3.022 124.343  0.00  0.00    +0.000 C 
BRANCH  20  22
ATOM     22  C   UNL     1      -7.160   1.039 123.283  0.00  0.00    +0.000 C 
BRANCH  22  23
ATOM     23  C   UNL     1      -8.078  -0.150 123.440  0.00  0.00    +0.000 C 
BRANCH  23  24
ATOM     24  C   UNL     1      -7.404  -1.440 123.032  0.00  0.00    +0.000 C 
BRANCH  24  25
ATOM     25  C   UNL     1      -6.889  -2.178 124.269  0.00  0.00    +0.000 C 
ATOM     26  C   UNL     1      -5.354  -2.332 124.247  0.00  0.00    +0.000 C 
BRANCH  25  27
ATOM     27  C   UNL     1      -7.596  -3.534 124.340  0.00  0.00    +0.000 C 
BRANCH  27  28
ATOM     28  C   UNL     1      -9.030  -3.356 124.794  0.00  0.00    +0.000 C 
BRANCH  28  29
ATOM     29  C   UNL     1      -9.132  -2.516 126.051  0.00  0.00    +0.000 C 
BRANCH  29  31
ATOM     30  C   UNL     1      -7.730  -2.023 128.051  0.00  0.00    +0.000 C 
ATOM     31  C   UNL     1      -8.307  -3.137 127.187  0.00  0.00    +0.000 C 
ATOM     32  C   UNL     1      -9.134  -4.092 128.054  0.00  0.00    +0.000 C 
ENDBRANCH  29  31
ENDBRANCH  28  29
ENDBRANCH  27  28
ENDBRANCH  25  27
ENDBRANCH  24  25
ENDBRANCH  23  24
ENDBRANCH  22  23
ENDBRANCH  20  22
ENDBRANCH  19  20
ENDBRANCH  18  19
ENDBRANCH   1  18
TORSDOF 13
ENDMDL
MODEL 8
REMARK VINA RESULT:      -6.5      5.263      9.055
REMARK  Name = Vitamin E
REMARK  21 active torsions:
REMARK  status: ('A' for Active; 'I' for Inactive)
REMARK    1  A    between atoms: C_1  and  C_2
REMARK    2  A    between atoms: C_2  and  C_3
REMARK    3  A    between atoms: C_2  and  C_4
REMARK    4  A    between atoms: C_4  and  C_5
REMARK    5  A    between atoms: C_5  and  C_6
REMARK    6  A    between atoms: C_6  and  C_7
REMARK    7  A    between atoms: C_7  and  C_8
REMARK    8  A    between atoms: C_7  and  C_9
REMARK    9  A    between atoms: C_9  and  C_10
REMARK   10  A    between atoms: C_10  and  C_11
REMARK   11  A    between atoms: C_11  and  C_12
REMARK   12  A    between atoms: C_12  and  C_13
REMARK   13  A    between atoms: C_12  and  C_14
REMARK   14  A    between atoms: C_14  and  C_15
REMARK   15  A    between atoms: C_15  and  C_16
REMARK   16  A    between atoms: C_16  and  C_17
REMARK   17  A    between atoms: C_17  and  C_18
REMARK   18  A    between atoms: C_24  and  C_25
REMARK   19  A    between atoms: C_26  and  C_27
REMARK   20  A    between atoms: C_28  and  O_29
REMARK   21  A    between atoms: C_30  and  C_31
REMARK                            x       y       z     vdW  Elec       q    Type
REMARK                         _______ _______ _______ _____ _____    ______ ____
ROOT
ATOM      1  C   UNL     1      -8.619   2.668 129.941  0.00  0.00    +0.000 C 
ENDROOT
BRANCH   1   2
ATOM      2  C   UNL     1      -7.364   3.323 129.289  0.00  0.00    +0.000 C 
ATOM      3  C   UNL     1      -7.802   3.959 127.951  0.00  0.00    +0.000 C 
ATOM      4  C   UNL     1      -6.264   2.263 129.123  0.00  0.00    +0.000 C 
ATOM      5  C   UNL     1      -5.086   2.852 128.413  0.00  0.00    +0.000 C 
ATOM      6  C   UNL     1      -4.710   4.163 129.027  0.00  0.00    +0.000 A 
ATOM      7  C   UNL     1      -5.603   4.852 129.876  0.00  0.00    +0.000 A 
ATOM      8  O   UNL     1      -6.873   4.373 130.156  0.00  0.00    +0.000 OA
ATOM      9  C   UNL     1      -5.218   6.072 130.465  0.00  0.00    +0.000 A 
ATOM     10  C   UNL     1      -6.142   6.790 131.418  0.00  0.00    +0.000 C 
ATOM     11  C   UNL     1      -3.947   6.632 130.147  0.00  0.00    +0.000 A 
ATOM     12  C   UNL     1      -3.496   7.948 130.726  0.00  0.00    +0.000 C 
ATOM     13  C   UNL     1      -3.100   5.941 129.257  0.00  0.00    +0.000 A 
ATOM     14  C   UNL     1      -3.462   4.721 128.694  0.00  0.00    +0.000 A 
ATOM     15  C   UNL     1      -2.560   3.995 127.728  0.00  0.00    +0.000 C 
BRANCH  13  16
ATOM     16  O   UNL     1      -1.870   6.437 128.899  0.00  0.00    +0.000 OA
ATOM     17  H   UNL     1      -1.175   6.031 129.425  0.00  0.00    +0.000 HD
ENDBRANCH  13  16
ENDBRANCH   1   2
BRANCH   1  18
ATOM     18  C   UNL     1      -8.221   1.786 131.122  0.00  0.00    +0.000 C 
BRANCH  18  19
ATOM     19  C   UNL     1      -8.862   2.142 132.442  0.00  0.00    +0.000 C 
BRANCH  19  20
ATOM     20  C   UNL     1      -8.245   3.444 132.981  0.00  0.00    +0.000 C 
ATOM     21  C   UNL     1      -7.084   3.170 133.957  0.00  0.00    +0.000 C 
BRANCH  20  22
ATOM     22  C   UNL     1      -9.365   4.258 133.629  0.00  0.00    +0.000 C 
BRANCH  22  23
ATOM     23  C   UNL     1      -9.416   5.647 133.038  0.00  0.00    +0.000 C 
BRANCH  23  24
ATOM     24  C   UNL     1      -9.438   5.616 131.527  0.00  0.00    +0.000 C 
BRANCH  24  25
ATOM     25  C   UNL     1     -10.408   6.673 130.993  0.00  0.00    +0.000 C 
ATOM     26  C   UNL     1     -11.851   6.421 131.473  0.00  0.00    +0.000 C 
BRANCH  25  27
ATOM     27  C   UNL     1     -10.308   6.676 129.465  0.00  0.00    +0.000 C 
BRANCH  27  28
ATOM     28  C   UNL     1     -10.417   8.091 128.935  0.00  0.00    +0.000 C 
BRANCH  28  29
ATOM     29  C   UNL     1     -11.328   8.181 127.727  0.00  0.00    +0.000 C 
BRANCH  29  31
ATOM     30  C   UNL     1     -13.587   7.289 128.279  0.00  0.00    +0.000 C 
ATOM     31  C   UNL     1     -12.754   8.558 128.149  0.00  0.00    +0.000 C 
ATOM     32  C   UNL     1     -12.785   9.338 129.468  0.00  0.00    +0.000 C 
ENDBRANCH  29  31
ENDBRANCH  28  29
ENDBRANCH  27  28
ENDBRANCH  25  27
ENDBRANCH  24  25
ENDBRANCH  23  24
ENDBRANCH  22  23
ENDBRANCH  20  22
ENDBRANCH  19  20
ENDBRANCH  18  19
ENDBRANCH   1  18
TORSDOF 13
ENDMDL
MODEL 9
REMARK VINA RESULT:      -6.4      2.865      6.883
REMARK  Name = Vitamin E
REMARK  21 active torsions:
REMARK  status: ('A' for Active; 'I' for Inactive)
REMARK    1  A    between atoms: C_1  and  C_2
REMARK    2  A    between atoms: C_2  and  C_3
REMARK    3  A    between atoms: C_2  and  C_4
REMARK    4  A    between atoms: C_4  and  C_5
REMARK    5  A    between atoms: C_5  and  C_6
REMARK    6  A    between atoms: C_6  and  C_7
REMARK    7  A    between atoms: C_7  and  C_8
REMARK    8  A    between atoms: C_7  and  C_9
REMARK    9  A    between atoms: C_9  and  C_10
REMARK   10  A    between atoms: C_10  and  C_11
REMARK   11  A    between atoms: C_11  and  C_12
REMARK   12  A    between atoms: C_12  and  C_13
REMARK   13  A    between atoms: C_12  and  C_14
REMARK   14  A    between atoms: C_14  and  C_15
REMARK   15  A    between atoms: C_15  and  C_16
REMARK   16  A    between atoms: C_16  and  C_17
REMARK   17  A    between atoms: C_17  and  C_18
REMARK   18  A    between atoms: C_24  and  C_25
REMARK   19  A    between atoms: C_26  and  C_27
REMARK   20  A    between atoms: C_28  and  O_29
REMARK   21  A    between atoms: C_30  and  C_31
REMARK                            x       y       z     vdW  Elec       q    Type
REMARK                         _______ _______ _______ _____ _____    ______ ____
ROOT
ATOM      1  C   UNL     1      -8.410  -3.678 128.353  0.00  0.00    +0.000 C 
ENDROOT
BRANCH   1   2
ATOM      2  C   UNL     1      -7.301  -3.017 129.226  0.00  0.00    +0.000 C 
ATOM      3  C   UNL     1      -6.290  -2.337 128.276  0.00  0.00    +0.000 C 
ATOM      4  C   UNL     1      -6.660  -4.082 130.129  0.00  0.00    +0.000 C 
ATOM      5  C   UNL     1      -5.530  -3.485 130.907  0.00  0.00    +0.000 C 
ATOM      6  C   UNL     1      -5.956  -2.196 131.536  0.00  0.00    +0.000 A 
ATOM      7  C   UNL     1      -7.118  -1.524 131.103  0.00  0.00    +0.000 A 
ATOM      8  O   UNL     1      -7.900  -1.998 130.062  0.00  0.00    +0.000 OA
ATOM      9  C   UNL     1      -7.515  -0.325 131.727  0.00  0.00    +0.000 A 
ATOM     10  C   UNL     1      -8.786   0.374 131.310  0.00  0.00    +0.000 C 
ATOM     11  C   UNL     1      -6.700   0.231 132.754  0.00  0.00    +0.000 A 
ATOM     12  C   UNL     1      -7.062   1.525 133.437  0.00  0.00    +0.000 C 
ATOM     13  C   UNL     1      -5.519  -0.442 133.129  0.00  0.00    +0.000 A 
ATOM     14  C   UNL     1      -5.136  -1.641 132.537  0.00  0.00    +0.000 A 
ATOM     15  C   UNL     1      -3.862  -2.348 132.928  0.00  0.00    +0.000 C 
BRANCH  13  16
ATOM     16  O   UNL     1      -4.684   0.052 134.102  0.00  0.00    +0.000 OA
ATOM     17  H   UNL     1      -5.185   0.536 134.764  0.00  0.00    +0.000 HD
ENDBRANCH  13  16
ENDBRANCH   1   2
BRANCH   1  18
ATOM     18  C   UNL     1      -8.631  -2.887 127.065  0.00  0.00    +0.000 C 
BRANCH  18  19
ATOM     19  C   UNL     1      -8.597  -3.700 125.793  0.00  0.00    +0.000 C 
BRANCH  19  20
ATOM     20  C   UNL     1      -8.446  -2.762 124.584  0.00  0.00    +0.000 C 
ATOM     21  C   UNL     1      -9.399  -3.145 123.435  0.00  0.00    +0.000 C 
BRANCH  20  22
ATOM     22  C   UNL     1      -6.980  -2.790 124.151  0.00  0.00    +0.000 C 
BRANCH  22  23
ATOM     23  C   UNL     1      -6.464  -1.385 123.945  0.00  0.00    +0.000 C 
BRANCH  23  24
ATOM     24  C   UNL     1      -5.724  -0.872 125.158  0.00  0.00    +0.000 C 
BRANCH  24  25
ATOM     25  C   UNL     1      -6.178   0.551 125.490  0.00  0.00    +0.000 C 
ATOM     26  C   UNL     1      -5.082   1.345 126.230  0.00  0.00    +0.000 C 
BRANCH  25  27
ATOM     27  C   UNL     1      -7.466   0.457 126.311  0.00  0.00    +0.000 C 
BRANCH  27  28
ATOM     28  C   UNL     1      -8.511   1.405 125.761  0.00  0.00    +0.000 C 
BRANCH  28  29
ATOM     29  C   UNL     1      -9.489   0.706 124.838  0.00  0.00    +0.000 C 
BRANCH  29  31
ATOM     30  C   UNL     1     -10.250   0.444 122.480  0.00  0.00    +0.000 C 
ATOM     31  C   UNL     1      -9.127   0.962 123.369  0.00  0.00    +0.000 C 
ATOM     32  C   UNL     1      -8.878   2.447 123.080  0.00  0.00    +0.000 C 
ENDBRANCH  29  31
ENDBRANCH  28  29
ENDBRANCH  27  28
ENDBRANCH  25  27
ENDBRANCH  24  25
ENDBRANCH  23  24
ENDBRANCH  22  23
ENDBRANCH  20  22
ENDBRANCH  19  20
ENDBRANCH  18  19
ENDBRANCH   1  18
TORSDOF 13
ENDMDL
