MODEL 1
REMARK VINA RESULT:      -7.7      0.000      0.000
REMARK  Name = Vonoprazan
REMARK  6 active torsions:
REMARK  status: ('A' for Active; 'I' for Inactive)
REMARK    1  A    between atoms: C_1  and  N_2
REMARK    2  A    between atoms: N_2  and  C_3
REMARK    3  A    between atoms: C_3  and  C_4
REMARK    4  A    between atoms: N_6  and  S_16
REMARK    5  A    between atoms: C_7  and  C_9
REMARK    6  A    between atoms: S_16  and  C_19
REMARK                            x       y       z     vdW  Elec       q    Type
REMARK                         _______ _______ _______ _____ _____    ______ ____
ROOT
ATOM      1  C   UNL     1      -5.297   1.973 126.384  0.00  0.00    +0.000 A 
ATOM      2  C   UNL     1      -6.212   2.810 125.763  0.00  0.00    +0.000 A 
ATOM      3  N   UNL     1      -7.008   2.042 124.947  0.00  0.00    +0.000 N 
ATOM      4  C   UNL     1      -6.648   0.712 125.059  0.00  0.00    +0.000 A 
ATOM      5  C   UNL     1      -5.594   0.658 125.951  0.00  0.00    +0.000 A 
ENDROOT
BRANCH   4   6
ATOM      6  C   UNL     1      -7.288  -0.425 124.418  0.00  0.00    +0.000 A 
ATOM      7  C   UNL     1      -6.876  -0.864 123.157  0.00  0.00    +0.000 A 
ATOM      8  C   UNL     1      -7.479  -1.973 122.571  0.00  0.00    +0.000 A 
ATOM      9  C   UNL     1      -8.469  -2.675 123.258  0.00  0.00    +0.000 A 
ATOM     10  C   UNL     1      -8.864  -2.266 124.531  0.00  0.00    +0.000 A 
ATOM     11  C   UNL     1      -8.272  -1.148 125.102  0.00  0.00    +0.000 A 
ATOM     12  F   UNL     1      -8.651  -0.781 126.337  0.00  0.00    +0.000 F 
ENDBRANCH   4   6
BRANCH   3  13
ATOM     13  S   UNL     1      -8.299   2.604 123.976  0.00  0.00    +0.000 S 
ATOM     14  O   UNL     1      -9.071   1.426 123.634  0.00  0.00    +0.000 OA
ATOM     15  O   UNL     1      -8.870   3.710 124.726  0.00  0.00    +0.000 OA
BRANCH  13  16
ATOM     16  C   UNL     1      -7.682   3.231 122.460  0.00  0.00    +0.000 A 
ATOM     17  C   UNL     1      -6.321   3.210 122.157  0.00  0.00    +0.000 A 
ATOM     18  C   UNL     1      -5.913   3.585 120.879  0.00  0.00    +0.000 A 
ATOM     19  C   UNL     1      -6.883   3.935 119.953  0.00  0.00    +0.000 A 
ATOM     20  N   UNL     1      -8.207   3.957 120.225  0.00  0.00    +0.000 NA
ATOM     21  C   UNL     1      -8.583   3.596 121.474  0.00  0.00    +0.000 A 
ENDBRANCH  13  16
ENDBRANCH   3  13
BRANCH   1  22
ATOM     22  C   UNL     1      -4.222   2.323 127.354  0.00  0.00    +0.000 C 
BRANCH  22  24
ATOM     23  C   UNL     1      -2.131   3.442 127.108  0.00  0.00    +0.000 C 
ATOM     24  N   UNL     1      -2.953   2.339 126.633  0.00  0.00    +0.000 NA
ATOM     25  H   UNL     1      -2.464   1.459 126.803  0.00  0.00    +0.000 HD
ENDBRANCH  22  24
ENDBRANCH   1  22
TORSDOF 5
ENDMDL
MODEL 2
REMARK VINA RESULT:      -7.5      6.985      9.247
REMARK  Name = Vonoprazan
REMARK  6 active torsions:
REMARK  status: ('A' for Active; 'I' for Inactive)
REMARK    1  A    between atoms: C_1  and  N_2
REMARK    2  A    between atoms: N_2  and  C_3
REMARK    3  A    between atoms: C_3  and  C_4
REMARK    4  A    between atoms: N_6  and  S_16
REMARK    5  A    between atoms: C_7  and  C_9
REMARK    6  A    between atoms: S_16  and  C_19
REMARK                            x       y       z     vdW  Elec       q    Type
REMARK                         _______ _______ _______ _____ _____    ______ ____
ROOT
ATOM      1  C   UNL     1      -8.470   2.892 129.808  0.00  0.00    +0.000 A 
ATOM      2  C   UNL     1      -9.019   4.148 129.596  0.00  0.00    +0.000 A 
ATOM      3  N   UNL     1      -8.768   4.917 130.708  0.00  0.00    +0.000 N 
ATOM      4  C   UNL     1      -8.031   4.189 131.623  0.00  0.00    +0.000 A 
ATOM      5  C   UNL     1      -7.836   2.937 131.073  0.00  0.00    +0.000 A 
ENDROOT
BRANCH   4   6
ATOM      6  C   UNL     1      -7.502   4.660 132.893  0.00  0.00    +0.000 A 
ATOM      7  C   UNL     1      -6.316   5.396 132.947  0.00  0.00    +0.000 A 
ATOM      8  C   UNL     1      -5.840   5.865 134.168  0.00  0.00    +0.000 A 
ATOM      9  C   UNL     1      -6.565   5.636 135.337  0.00  0.00    +0.000 A 
ATOM     10  C   UNL     1      -7.768   4.932 135.289  0.00  0.00    +0.000 A 
ATOM     11  C   UNL     1      -8.228   4.451 134.071  0.00  0.00    +0.000 A 
ATOM     12  F   UNL     1      -9.398   3.792 134.042  0.00  0.00    +0.000 F 
ENDBRANCH   4   6
BRANCH   3  13
ATOM     13  S   UNL     1      -9.227   6.549 130.931  0.00  0.00    +0.000 S 
ATOM     14  O   UNL     1      -9.886   6.595 132.221  0.00  0.00    +0.000 OA
ATOM     15  O   UNL     1      -8.023   7.312 130.652  0.00  0.00    +0.000 OA
BRANCH  13  16
ATOM     16  C   UNL     1     -10.446   6.998 129.754  0.00  0.00    +0.000 A 
ATOM     17  C   UNL     1     -10.220   8.000 128.810  0.00  0.00    +0.000 A 
ATOM     18  C   UNL     1     -11.168   8.205 127.811  0.00  0.00    +0.000 A 
ATOM     19  C   UNL     1     -12.282   7.381 127.780  0.00  0.00    +0.000 A 
ATOM     20  N   UNL     1     -12.517   6.401 128.680  0.00  0.00    +0.000 NA
ATOM     21  C   UNL     1     -11.588   6.222 129.648  0.00  0.00    +0.000 A 
ENDBRANCH  13  16
ENDBRANCH   3  13
BRANCH   1  22
ATOM     22  C   UNL     1      -8.478   1.706 128.906  0.00  0.00    +0.000 C 
BRANCH  22  24
ATOM     23  C   UNL     1      -8.860   1.054 126.645  0.00  0.00    +0.000 C 
ATOM     24  N   UNL     1      -8.645   2.184 127.537  0.00  0.00    +0.000 NA
ATOM     25  H   UNL     1      -9.458   2.801 127.498  0.00  0.00    +0.000 HD
ENDBRANCH  22  24
ENDBRANCH   1  22
TORSDOF 5
ENDMDL
MODEL 3
REMARK VINA RESULT:      -7.5      2.259      5.100
REMARK  Name = Vonoprazan
REMARK  6 active torsions:
REMARK  status: ('A' for Active; 'I' for Inactive)
REMARK    1  A    between atoms: C_1  and  N_2
REMARK    2  A    between atoms: N_2  and  C_3
REMARK    3  A    between atoms: C_3  and  C_4
REMARK    4  A    between atoms: N_6  and  S_16
REMARK    5  A    between atoms: C_7  and  C_9
REMARK    6  A    between atoms: S_16  and  C_19
REMARK                            x       y       z     vdW  Elec       q    Type
REMARK                         _______ _______ _______ _____ _____    ______ ____
ROOT
ATOM      1  C   UNL     1      -7.048   2.503 122.985  0.00  0.00    +0.000 A 
ATOM      2  C   UNL     1      -6.359   2.713 124.170  0.00  0.00    +0.000 A 
ATOM      3  N   UNL     1      -6.530   1.604 124.965  0.00  0.00    +0.000 N 
ATOM      4  C   UNL     1      -7.289   0.662 124.297  0.00  0.00    +0.000 A 
ATOM      5  C   UNL     1      -7.610   1.206 123.068  0.00  0.00    +0.000 A 
ENDROOT
BRANCH   4   6
ATOM      6  C   UNL     1      -7.635  -0.672 124.761  0.00  0.00    +0.000 A 
ATOM      7  C   UNL     1      -8.800  -0.895 125.499  0.00  0.00    +0.000 A 
ATOM      8  C   UNL     1      -9.132  -2.183 125.909  0.00  0.00    +0.000 A 
ATOM      9  C   UNL     1      -8.323  -3.261 125.551  0.00  0.00    +0.000 A 
ATOM     10  C   UNL     1      -7.177  -3.054 124.785  0.00  0.00    +0.000 A 
ATOM     11  C   UNL     1      -6.842  -1.765 124.396  0.00  0.00    +0.000 A 
ATOM     12  F   UNL     1      -5.744  -1.587 123.642  0.00  0.00    +0.000 F 
ENDBRANCH   4   6
BRANCH   3  13
ATOM     13  S   UNL     1      -5.865   1.367 126.523  0.00  0.00    +0.000 S 
ATOM     14  O   UNL     1      -6.996   1.332 127.428  0.00  0.00    +0.000 OA
ATOM     15  O   UNL     1      -4.964   0.237 126.371  0.00  0.00    +0.000 OA
BRANCH  13  16
ATOM     16  C   UNL     1      -4.917   2.765 126.992  0.00  0.00    +0.000 A 
ATOM     17  C   UNL     1      -3.553   2.854 126.713  0.00  0.00    +0.000 A 
ATOM     18  C   UNL     1      -2.892   4.050 126.978  0.00  0.00    +0.000 A 
ATOM     19  C   UNL     1      -3.627   5.113 127.480  0.00  0.00    +0.000 A 
ATOM     20  N   UNL     1      -4.949   5.049 127.752  0.00  0.00    +0.000 NA
ATOM     21  C   UNL     1      -5.573   3.876 127.495  0.00  0.00    +0.000 A 
ENDBRANCH  13  16
ENDBRANCH   3  13
BRANCH   1  22
ATOM     22  C   UNL     1      -7.175   3.407 121.807  0.00  0.00    +0.000 C 
BRANCH  22  24
ATOM     23  C   UNL     1      -8.923   3.892 120.260  0.00  0.00    +0.000 C 
ATOM     24  N   UNL     1      -8.582   3.772 121.670  0.00  0.00    +0.000 NA
ATOM     25  H   UNL     1      -9.156   3.042 122.093  0.00  0.00    +0.000 HD
ENDBRANCH  22  24
ENDBRANCH   1  22
TORSDOF 5
ENDMDL
MODEL 4
REMARK VINA RESULT:      -7.5      2.420      6.267
REMARK  Name = Vonoprazan
REMARK  6 active torsions:
REMARK  status: ('A' for Active; 'I' for Inactive)
REMARK    1  A    between atoms: C_1  and  N_2
REMARK    2  A    between atoms: N_2  and  C_3
REMARK    3  A    between atoms: C_3  and  C_4
REMARK    4  A    between atoms: N_6  and  S_16
REMARK    5  A    between atoms: C_7  and  C_9
REMARK    6  A    between atoms: S_16  and  C_19
REMARK                            x       y       z     vdW  Elec       q    Type
REMARK                         _______ _______ _______ _____ _____    ______ ____
ROOT
ATOM      1  C   UNL     1      -6.675   3.004 122.961  0.00  0.00    +0.000 A 
ATOM      2  C   UNL     1      -7.035   1.810 123.567  0.00  0.00    +0.000 A 
ATOM      3  N   UNL     1      -6.429   1.756 124.800  0.00  0.00    +0.000 N 
ATOM      4  C   UNL     1      -5.710   2.917 125.019  0.00  0.00    +0.000 A 
ATOM      5  C   UNL     1      -5.861   3.699 123.889  0.00  0.00    +0.000 A 
ENDROOT
BRANCH   4   6
ATOM      6  C   UNL     1      -4.986   3.284 126.224  0.00  0.00    +0.000 A 
ATOM      7  C   UNL     1      -3.626   2.996 126.360  0.00  0.00    +0.000 A 
ATOM      8  C   UNL     1      -2.940   3.381 127.508  0.00  0.00    +0.000 A 
ATOM      9  C   UNL     1      -3.599   4.091 128.511  0.00  0.00    +0.000 A 
ATOM     10  C   UNL     1      -4.948   4.414 128.370  0.00  0.00    +0.000 A 
ATOM     11  C   UNL     1      -5.630   4.011 127.231  0.00  0.00    +0.000 A 
ATOM     12  F   UNL     1      -6.925   4.348 127.105  0.00  0.00    +0.000 F 
ENDBRANCH   4   6
BRANCH   3  13
ATOM     13  S   UNL     1      -6.571   0.490 125.941  0.00  0.00    +0.000 S 
ATOM     14  O   UNL     1      -5.228  -0.021 126.125  0.00  0.00    +0.000 OA
ATOM     15  O   UNL     1      -7.334   1.066 127.036  0.00  0.00    +0.000 OA
BRANCH  13  16
ATOM     16  C   UNL     1      -7.499  -0.831 125.260  0.00  0.00    +0.000 A 
ATOM     17  C   UNL     1      -6.904  -1.819 124.476  0.00  0.00    +0.000 A 
ATOM     18  C   UNL     1      -7.666  -2.919 124.092  0.00  0.00    +0.000 A 
ATOM     19  C   UNL     1      -8.978  -2.999 124.532  0.00  0.00    +0.000 A 
ATOM     20  N   UNL     1      -9.572  -2.055 125.295  0.00  0.00    +0.000 NA
ATOM     21  C   UNL     1      -8.817  -0.990 125.653  0.00  0.00    +0.000 A 
ENDBRANCH  13  16
ENDBRANCH   3  13
BRANCH   1  22
ATOM     22  C   UNL     1      -7.067   3.527 121.622  0.00  0.00    +0.000 C 
BRANCH  22  24
ATOM     23  C   UNL     1      -9.007   3.876 120.280  0.00  0.00    +0.000 C 
ATOM     24  N   UNL     1      -8.505   3.781 121.643  0.00  0.00    +0.000 NA
ATOM     25  H   UNL     1      -8.971   3.008 122.118  0.00  0.00    +0.000 HD
ENDBRANCH  22  24
ENDBRANCH   1  22
TORSDOF 5
ENDMDL
MODEL 5
REMARK VINA RESULT:      -7.4      2.613      3.409
REMARK  Name = Vonoprazan
REMARK  6 active torsions:
REMARK  status: ('A' for Active; 'I' for Inactive)
REMARK    1  A    between atoms: C_1  and  N_2
REMARK    2  A    between atoms: N_2  and  C_3
REMARK    3  A    between atoms: C_3  and  C_4
REMARK    4  A    between atoms: N_6  and  S_16
REMARK    5  A    between atoms: C_7  and  C_9
REMARK    6  A    between atoms: S_16  and  C_19
REMARK                            x       y       z     vdW  Elec       q    Type
REMARK                         _______ _______ _______ _____ _____    ______ ____
ROOT
ATOM      1  C   UNL     1      -6.425  -1.324 128.295  0.00  0.00    +0.000 A 
ATOM      2  C   UNL     1      -7.215  -0.190 128.175  0.00  0.00    +0.000 A 
ATOM      3  N   UNL     1      -7.845  -0.237 126.954  0.00  0.00    +0.000 N 
ATOM      4  C   UNL     1      -7.506  -1.404 126.297  0.00  0.00    +0.000 A 
ATOM      5  C   UNL     1      -6.633  -2.087 127.121  0.00  0.00    +0.000 A 
ENDROOT
BRANCH   4   6
ATOM      6  C   UNL     1      -8.014  -1.867 125.015  0.00  0.00    +0.000 A 
ATOM      7  C   UNL     1      -7.392  -1.496 123.821  0.00  0.00    +0.000 A 
ATOM      8  C   UNL     1      -7.873  -1.972 122.605  0.00  0.00    +0.000 A 
ATOM      9  C   UNL     1      -8.953  -2.853 122.576  0.00  0.00    +0.000 A 
ATOM     10  C   UNL     1      -9.559  -3.257 123.765  0.00  0.00    +0.000 A 
ATOM     11  C   UNL     1      -9.087  -2.764 124.973  0.00  0.00    +0.000 A 
ATOM     12  F   UNL     1      -9.672  -3.180 126.109  0.00  0.00    +0.000 F 
ENDBRANCH   4   6
BRANCH   3  13
ATOM     13  S   UNL     1      -8.939   0.924 126.337  0.00  0.00    +0.000 S 
ATOM     14  O   UNL     1     -10.091   0.172 125.883  0.00  0.00    +0.000 OA
ATOM     15  O   UNL     1      -9.037   1.929 127.383  0.00  0.00    +0.000 OA
BRANCH  13  16
ATOM     16  C   UNL     1      -8.267   1.684 124.908  0.00  0.00    +0.000 A 
ATOM     17  C   UNL     1      -9.058   1.998 123.803  0.00  0.00    +0.000 A 
ATOM     18  C   UNL     1      -8.496   2.733 122.763  0.00  0.00    +0.000 A 
ATOM     19  C   UNL     1      -7.178   3.148 122.886  0.00  0.00    +0.000 A 
ATOM     20  N   UNL     1      -6.397   2.859 123.950  0.00  0.00    +0.000 NA
ATOM     21  C   UNL     1      -6.960   2.138 124.947  0.00  0.00    +0.000 A 
ENDBRANCH  13  16
ENDBRANCH   3  13
BRANCH   1  22
ATOM     22  C   UNL     1      -5.546  -1.732 129.427  0.00  0.00    +0.000 C 
BRANCH  22  24
ATOM     23  C   UNL     1      -3.774  -3.320 129.273  0.00  0.00    +0.000 C 
ATOM     24  N   UNL     1      -4.212  -1.985 128.892  0.00  0.00    +0.000 NA
ATOM     25  H   UNL     1      -4.247  -1.923 127.873  0.00  0.00    +0.000 HD
ENDBRANCH  22  24
ENDBRANCH   1  22
TORSDOF 5
ENDMDL
MODEL 6
REMARK VINA RESULT:      -7.1      6.774      9.052
REMARK  Name = Vonoprazan
REMARK  6 active torsions:
REMARK  status: ('A' for Active; 'I' for Inactive)
REMARK    1  A    between atoms: C_1  and  N_2
REMARK    2  A    between atoms: N_2  and  C_3
REMARK    3  A    between atoms: C_3  and  C_4
REMARK    4  A    between atoms: N_6  and  S_16
REMARK    5  A    between atoms: C_7  and  C_9
REMARK    6  A    between atoms: S_16  and  C_19
REMARK                            x       y       z     vdW  Elec       q    Type
REMARK                         _______ _______ _______ _____ _____    ______ ____
ROOT
ATOM      1  C   UNL     1      -6.708   5.915 131.644  0.00  0.00    +0.000 A 
ATOM      2  C   UNL     1      -7.084   4.711 131.068  0.00  0.00    +0.000 A 
ATOM      3  N   UNL     1      -8.372   4.843 130.605  0.00  0.00    +0.000 N 
ATOM      4  C   UNL     1      -8.824   6.129 130.839  0.00  0.00    +0.000 A 
ATOM      5  C   UNL     1      -7.799   6.802 131.476  0.00  0.00    +0.000 A 
ENDROOT
BRANCH   4   6
ATOM      6  C   UNL     1     -10.102   6.693 130.439  0.00  0.00    +0.000 A 
ATOM      7  C   UNL     1     -10.299   7.174 129.142  0.00  0.00    +0.000 A 
ATOM      8  C   UNL     1     -11.539   7.683 128.766  0.00  0.00    +0.000 A 
ATOM      9  C   UNL     1     -12.600   7.680 129.671  0.00  0.00    +0.000 A 
ATOM     10  C   UNL     1     -12.423   7.170 130.957  0.00  0.00    +0.000 A 
ATOM     11  C   UNL     1     -11.180   6.681 131.331  0.00  0.00    +0.000 A 
ATOM     12  F   UNL     1     -11.034   6.177 132.568  0.00  0.00    +0.000 F 
ENDBRANCH   4   6
BRANCH   3  13
ATOM     13  S   UNL     1      -9.284   3.641 129.801  0.00  0.00    +0.000 S 
ATOM     14  O   UNL     1     -10.651   3.826 130.246  0.00  0.00    +0.000 OA
ATOM     15  O   UNL     1      -8.903   3.763 128.404  0.00  0.00    +0.000 OA
BRANCH  13  16
ATOM     16  C   UNL     1      -8.808   2.050 130.362  0.00  0.00    +0.000 A 
ATOM     17  C   UNL     1      -9.321   1.502 131.538  0.00  0.00    +0.000 A 
ATOM     18  C   UNL     1      -9.018   0.179 131.848  0.00  0.00    +0.000 A 
ATOM     19  C   UNL     1      -8.243  -0.547 130.957  0.00  0.00    +0.000 A 
ATOM     20  N   UNL     1      -7.741  -0.037 129.810  0.00  0.00    +0.000 NA
ATOM     21  C   UNL     1      -8.040   1.253 129.529  0.00  0.00    +0.000 A 
ENDBRANCH  13  16
ENDBRANCH   3  13
BRANCH   1  22
ATOM     22  C   UNL     1      -5.414   6.277 132.289  0.00  0.00    +0.000 C 
BRANCH  22  24
ATOM     23  C   UNL     1      -4.396   7.381 130.437  0.00  0.00    +0.000 C 
ATOM     24  N   UNL     1      -4.367   6.192 131.275  0.00  0.00    +0.000 NA
ATOM     25  H   UNL     1      -3.460   6.131 131.740  0.00  0.00    +0.000 HD
ENDBRANCH  22  24
ENDBRANCH   1  22
TORSDOF 5
ENDMDL
MODEL 7
REMARK VINA RESULT:      -7.1      7.318      9.752
REMARK  Name = Vonoprazan
REMARK  6 active torsions:
REMARK  status: ('A' for Active; 'I' for Inactive)
REMARK    1  A    between atoms: C_1  and  N_2
REMARK    2  A    between atoms: N_2  and  C_3
REMARK    3  A    between atoms: C_3  and  C_4
REMARK    4  A    between atoms: N_6  and  S_16
REMARK    5  A    between atoms: C_7  and  C_9
REMARK    6  A    between atoms: S_16  and  C_19
REMARK                            x       y       z     vdW  Elec       q    Type
REMARK                         _______ _______ _______ _____ _____    ______ ____
ROOT
ATOM      1  C   UNL     1      -8.672   2.883 130.110  0.00  0.00    +0.000 A 
ATOM      2  C   UNL     1      -7.859   3.789 130.775  0.00  0.00    +0.000 A 
ATOM      3  N   UNL     1      -8.520   4.993 130.834  0.00  0.00    +0.000 N 
ATOM      4  C   UNL     1      -9.767   4.871 130.251  0.00  0.00    +0.000 A 
ATOM      5  C   UNL     1      -9.873   3.567 129.805  0.00  0.00    +0.000 A 
ENDROOT
BRANCH   4   6
ATOM      6  C   UNL     1     -10.801   5.890 130.173  0.00  0.00    +0.000 A 
ATOM      7  C   UNL     1     -11.671   6.113 131.242  0.00  0.00    +0.000 A 
ATOM      8  C   UNL     1     -12.635   7.114 131.163  0.00  0.00    +0.000 A 
ATOM      9  C   UNL     1     -12.710   7.925 130.031  0.00  0.00    +0.000 A 
ATOM     10  C   UNL     1     -11.823   7.733 128.972  0.00  0.00    +0.000 A 
ATOM     11  C   UNL     1     -10.877   6.722 129.050  0.00  0.00    +0.000 A 
ATOM     12  F   UNL     1     -10.019   6.565 128.027  0.00  0.00    +0.000 F 
ENDBRANCH   4   6
BRANCH   3  13
ATOM     13  S   UNL     1      -7.944   6.426 131.568  0.00  0.00    +0.000 S 
ATOM     14  O   UNL     1      -8.013   7.445 130.539  0.00  0.00    +0.000 OA
ATOM     15  O   UNL     1      -8.692   6.531 132.809  0.00  0.00    +0.000 OA
BRANCH  13  16
ATOM     16  C   UNL     1      -6.245   6.258 131.964  0.00  0.00    +0.000 A 
ATOM     17  C   UNL     1      -5.246   6.807 131.160  0.00  0.00    +0.000 A 
ATOM     18  C   UNL     1      -3.928   6.766 131.608  0.00  0.00    +0.000 A 
ATOM     19  C   UNL     1      -3.670   6.208 132.851  0.00  0.00    +0.000 A 
ATOM     20  N   UNL     1      -4.624   5.676 133.647  0.00  0.00    +0.000 NA
ATOM     21  C   UNL     1      -5.898   5.718 133.191  0.00  0.00    +0.000 A 
ENDBRANCH  13  16
ENDBRANCH   3  13
BRANCH   1  22
ATOM     22  C   UNL     1      -8.407   1.452 129.788  0.00  0.00    +0.000 C 
BRANCH  22  24
ATOM     23  C   UNL     1      -9.034   0.194 131.714  0.00  0.00    +0.000 C 
ATOM     24  N   UNL     1      -7.920   0.802 131.002  0.00  0.00    +0.000 NA
ATOM     25  H   UNL     1      -7.251   0.075 130.742  0.00  0.00    +0.000 HD
ENDBRANCH  22  24
ENDBRANCH   1  22
TORSDOF 5
ENDMDL
MODEL 8
REMARK VINA RESULT:      -6.9      7.583      9.513
REMARK  Name = Vonoprazan
REMARK  6 active torsions:
REMARK  status: ('A' for Active; 'I' for Inactive)
REMARK    1  A    between atoms: C_1  and  N_2
REMARK    2  A    between atoms: N_2  and  C_3
REMARK    3  A    between atoms: C_3  and  C_4
REMARK    4  A    between atoms: N_6  and  S_16
REMARK    5  A    between atoms: C_7  and  C_9
REMARK    6  A    between atoms: S_16  and  C_19
REMARK                            x       y       z     vdW  Elec       q    Type
REMARK                         _______ _______ _______ _____ _____    ______ ____
ROOT
ATOM      1  C   UNL     1     -11.499   5.894 130.649  0.00  0.00    +0.000 A 
ATOM      2  C   UNL     1     -10.675   6.284 131.695  0.00  0.00    +0.000 A 
ATOM      3  N   UNL     1      -9.868   5.220 132.021  0.00  0.00    +0.000 N 
ATOM      4  C   UNL     1     -10.130   4.157 131.178  0.00  0.00    +0.000 A 
ATOM      5  C   UNL     1     -11.133   4.566 130.320  0.00  0.00    +0.000 A 
ENDROOT
BRANCH   4   6
ATOM      6  C   UNL     1      -9.444   2.876 131.145  0.00  0.00    +0.000 A 
ATOM      7  C   UNL     1      -9.960   1.769 131.824  0.00  0.00    +0.000 A 
ATOM      8  C   UNL     1      -9.307   0.542 131.758  0.00  0.00    +0.000 A 
ATOM      9  C   UNL     1      -8.158   0.401 130.981  0.00  0.00    +0.000 A 
ATOM     10  C   UNL     1      -7.654   1.491 130.272  0.00  0.00    +0.000 A 
ATOM     11  C   UNL     1      -8.299   2.717 130.357  0.00  0.00    +0.000 A 
ATOM     12  F   UNL     1      -7.810   3.750 129.651  0.00  0.00    +0.000 F 
ENDBRANCH   4   6
BRANCH   3  13
ATOM     13  S   UNL     1      -8.667   5.201 133.239  0.00  0.00    +0.000 S 
ATOM     14  O   UNL     1      -8.864   6.418 134.000  0.00  0.00    +0.000 OA
ATOM     15  O   UNL     1      -8.779   3.885 133.845  0.00  0.00    +0.000 OA
BRANCH  13  16
ATOM     16  C   UNL     1      -7.076   5.338 132.517  0.00  0.00    +0.000 A 
ATOM     17  C   UNL     1      -6.726   6.422 131.712  0.00  0.00    +0.000 A 
ATOM     18  C   UNL     1      -5.404   6.546 131.292  0.00  0.00    +0.000 A 
ATOM     19  C   UNL     1      -4.485   5.600 131.720  0.00  0.00    +0.000 A 
ATOM     20  N   UNL     1      -4.802   4.546 132.503  0.00  0.00    +0.000 NA
ATOM     21  C   UNL     1      -6.093   4.438 132.895  0.00  0.00    +0.000 A 
ENDBRANCH  13  16
ENDBRANCH   3  13
BRANCH   1  22
ATOM     22  C   UNL     1     -12.548   6.683 129.944  0.00  0.00    +0.000 C 
BRANCH  22  24
ATOM     23  C   UNL     1     -11.909   7.651 127.861  0.00  0.00    +0.000 C 
ATOM     24  N   UNL     1     -12.402   6.445 128.511  0.00  0.00    +0.000 NA
ATOM     25  H   UNL     1     -11.731   5.689 128.368  0.00  0.00    +0.000 HD
ENDBRANCH  22  24
ENDBRANCH   1  22
TORSDOF 5
ENDMDL
MODEL 9
REMARK VINA RESULT:      -6.7      3.773      5.414
REMARK  Name = Vonoprazan
REMARK  6 active torsions:
REMARK  status: ('A' for Active; 'I' for Inactive)
REMARK    1  A    between atoms: C_1  and  N_2
REMARK    2  A    between atoms: N_2  and  C_3
REMARK    3  A    between atoms: C_3  and  C_4
REMARK    4  A    between atoms: N_6  and  S_16
REMARK    5  A    between atoms: C_7  and  C_9
REMARK    6  A    between atoms: S_16  and  C_19
REMARK                            x       y       z     vdW  Elec       q    Type
REMARK                         _______ _______ _______ _____ _____    ______ ____
ROOT
ATOM      1  C   UNL     1      -7.514  -0.598 129.122  0.00  0.00    +0.000 A 
ATOM      2  C   UNL     1      -7.849  -1.795 128.507  0.00  0.00    +0.000 A 
ATOM      3  N   UNL     1      -8.180  -1.526 127.200  0.00  0.00    +0.000 N 
ATOM      4  C   UNL     1      -8.026  -0.175 126.948  0.00  0.00    +0.000 A 
ATOM      5  C   UNL     1      -7.608   0.406 128.129  0.00  0.00    +0.000 A 
ENDROOT
BRANCH   4   6
ATOM      6  C   UNL     1      -8.204   0.503 125.674  0.00  0.00    +0.000 A 
ATOM      7  C   UNL     1      -7.113   0.761 124.841  0.00  0.00    +0.000 A 
ATOM      8  C   UNL     1      -7.304   1.384 123.611  0.00  0.00    +0.000 A 
ATOM      9  C   UNL     1      -8.591   1.717 123.188  0.00  0.00    +0.000 A 
ATOM     10  C   UNL     1      -9.690   1.432 123.997  0.00  0.00    +0.000 A 
ATOM     11  C   UNL     1      -9.490   0.828 125.231  0.00  0.00    +0.000 A 
ATOM     12  F   UNL     1     -10.563   0.544 125.988  0.00  0.00    +0.000 F 
ENDBRANCH   4   6
BRANCH   3  13
ATOM     13  S   UNL     1      -8.652  -2.671 126.021  0.00  0.00    +0.000 S 
ATOM     14  O   UNL     1      -8.473  -3.967 126.643  0.00  0.00    +0.000 OA
ATOM     15  O   UNL     1      -9.950  -2.209 125.559  0.00  0.00    +0.000 OA
BRANCH  13  16
ATOM     16  C   UNL     1      -7.541  -2.631 124.666  0.00  0.00    +0.000 A 
ATOM     17  C   UNL     1      -7.970  -2.321 123.375  0.00  0.00    +0.000 A 
ATOM     18  C   UNL     1      -7.016  -2.160 122.373  0.00  0.00    +0.000 A 
ATOM     19  C   UNL     1      -5.677  -2.286 122.710  0.00  0.00    +0.000 A 
ATOM     20  N   UNL     1      -5.241  -2.580 123.955  0.00  0.00    +0.000 NA
ATOM     21  C   UNL     1      -6.183  -2.740 124.914  0.00  0.00    +0.000 A 
ENDBRANCH  13  16
ENDBRANCH   3  13
BRANCH   1  22
ATOM     22  C   UNL     1      -7.089  -0.360 130.531  0.00  0.00    +0.000 C 
BRANCH  22  24
ATOM     23  C   UNL     1      -8.840   0.356 131.983  0.00  0.00    +0.000 C 
ATOM     24  N   UNL     1      -8.171  -0.801 131.407  0.00  0.00    +0.000 NA
ATOM     25  H   UNL     1      -8.844  -1.338 130.858  0.00  0.00    +0.000 HD
ENDBRANCH  22  24
ENDBRANCH   1  22
TORSDOF 5
ENDMDL
