MODEL 1
REMARK VINA RESULT:      -7.2      0.000      0.000
REMARK  Name = Voriconazole
REMARK  7 active torsions:
REMARK  status: ('A' for Active; 'I' for Inactive)
REMARK    1  A    between atoms: C_1  and  C_2
REMARK    2  A    between atoms: C_2  and  C_3
REMARK    3  A    between atoms: C_2  and  C_10
REMARK    4  A    between atoms: C_10  and  O_11
REMARK    5  A    between atoms: C_10  and  C_12
REMARK    6  A    between atoms: C_10  and  C_18
REMARK    7  A    between atoms: C_12  and  N_13
REMARK                            x       y       z     vdW  Elec       q    Type
REMARK                         _______ _______ _______ _____ _____    ______ ____
ROOT
ATOM      1  C   UNL     1      -7.585   2.190 123.558  0.00  0.00    +0.000 C 
ENDROOT
BRANCH   1   2
ATOM      2  C   UNL     1      -7.099   3.041 122.331  0.00  0.00    +0.000 A 
ATOM      3  C   UNL     1      -7.967   3.388 121.263  0.00  0.00    +0.000 A 
ATOM      4  F   UNL     1      -9.269   3.081 121.296  0.00  0.00    +0.000 F 
ATOM      5  C   UNL     1      -7.539   4.048 120.115  0.00  0.00    +0.000 A 
ATOM      6  C   UNL     1      -6.222   4.443 120.028  0.00  0.00    +0.000 A 
ATOM      7  F   UNL     1      -5.803   5.108 118.945  0.00  0.00    +0.000 F 
ATOM      8  C   UNL     1      -5.335   4.168 121.061  0.00  0.00    +0.000 A 
ATOM      9  C   UNL     1      -5.763   3.466 122.199  0.00  0.00    +0.000 A 
ENDBRANCH   1   2
BRANCH   1  11
ATOM     10  C   UNL     1      -9.609   0.533 123.105  0.00  0.00    +0.000 C 
ATOM     11  C   UNL     1      -8.104   0.786 123.068  0.00  0.00    +0.000 C 
BRANCH  11  12
ATOM     12  C   UNL     1      -7.530  -0.405 123.837  0.00  0.00    +0.000 A 
ATOM     13  N   UNL     1      -7.989  -0.531 125.115  0.00  0.00    +0.000 NA
ATOM     14  C   UNL     1      -7.425  -1.492 125.863  0.00  0.00    +0.000 A 
ATOM     15  N   UNL     1      -6.464  -2.342 125.478  0.00  0.00    +0.000 NA
ATOM     16  C   UNL     1      -6.051  -2.196 124.204  0.00  0.00    +0.000 A 
ATOM     17  C   UNL     1      -6.553  -1.256 123.351  0.00  0.00    +0.000 A 
ATOM     18  F   UNL     1      -6.076  -1.249 122.098  0.00  0.00    +0.000 F 
ENDBRANCH  11  12
ENDBRANCH   1  11
BRANCH   1  19
ATOM     19  O   UNL     1      -6.538   1.907 124.503  0.00  0.00    +0.000 OA
ATOM     20  H   UNL     1      -6.355   0.962 124.573  0.00  0.00    +0.000 HD
ENDBRANCH   1  19
BRANCH   1  21
ATOM     21  C   UNL     1      -8.609   3.052 124.362  0.00  0.00    +0.000 C 
BRANCH  21  22
ATOM     22  N   UNL     1      -8.176   3.501 125.674  0.00  0.00    +0.000 N 
ATOM     23  C   UNL     1      -7.764   4.749 126.034  0.00  0.00    +0.000 A 
ATOM     24  N   UNL     1      -7.708   4.833 127.345  0.00  0.00    +0.000 NA
ATOM     25  C   UNL     1      -7.997   3.560 127.745  0.00  0.00    +0.000 A 
ATOM     26  N   UNL     1      -8.227   2.693 126.753  0.00  0.00    +0.000 NA
ENDBRANCH  21  22
ENDBRANCH   1  21
TORSDOF 6
ENDMDL
MODEL 2
REMARK VINA RESULT:      -6.9      1.417      1.699
REMARK  Name = Voriconazole
REMARK  7 active torsions:
REMARK  status: ('A' for Active; 'I' for Inactive)
REMARK    1  A    between atoms: C_1  and  C_2
REMARK    2  A    between atoms: C_2  and  C_3
REMARK    3  A    between atoms: C_2  and  C_10
REMARK    4  A    between atoms: C_10  and  O_11
REMARK    5  A    between atoms: C_10  and  C_12
REMARK    6  A    between atoms: C_10  and  C_18
REMARK    7  A    between atoms: C_12  and  N_13
REMARK                            x       y       z     vdW  Elec       q    Type
REMARK                         _______ _______ _______ _____ _____    ______ ____
ROOT
ATOM      1  C   UNL     1      -7.513   2.383 123.925  0.00  0.00    +0.000 C 
ENDROOT
BRANCH   1   2
ATOM      2  C   UNL     1      -6.768   3.145 122.772  0.00  0.00    +0.000 A 
ATOM      3  C   UNL     1      -5.589   3.901 123.007  0.00  0.00    +0.000 A 
ATOM      4  F   UNL     1      -5.006   3.926 124.211  0.00  0.00    +0.000 F 
ATOM      5  C   UNL     1      -4.969   4.672 122.029  0.00  0.00    +0.000 A 
ATOM      6  C   UNL     1      -5.481   4.658 120.749  0.00  0.00    +0.000 A 
ATOM      7  F   UNL     1      -4.875   5.367 119.789  0.00  0.00    +0.000 F 
ATOM      8  C   UNL     1      -6.608   3.903 120.449  0.00  0.00    +0.000 A 
ATOM      9  C   UNL     1      -7.254   3.160 121.451  0.00  0.00    +0.000 A 
ENDBRANCH   1   2
BRANCH   1  11
ATOM     10  C   UNL     1      -9.989   1.537 123.475  0.00  0.00    +0.000 C 
ATOM     11  C   UNL     1      -8.489   1.306 123.317  0.00  0.00    +0.000 C 
BRANCH  11  12
ATOM     12  C   UNL     1      -8.292  -0.108 123.865  0.00  0.00    +0.000 A 
ATOM     13  N   UNL     1      -9.129  -0.442 124.888  0.00  0.00    +0.000 NA
ATOM     14  C   UNL     1      -8.916  -1.629 125.476  0.00  0.00    +0.000 A 
ATOM     15  N   UNL     1      -7.968  -2.520 125.153  0.00  0.00    +0.000 NA
ATOM     16  C   UNL     1      -7.173  -2.160 124.126  0.00  0.00    +0.000 A 
ATOM     17  C   UNL     1      -7.299  -0.979 123.453  0.00  0.00    +0.000 A 
ATOM     18  F   UNL     1      -6.463  -0.768 122.426  0.00  0.00    +0.000 F 
ENDBRANCH  11  12
ENDBRANCH   1  11
BRANCH   1  19
ATOM     19  O   UNL     1      -6.625   1.654 124.791  0.00  0.00    +0.000 OA
ATOM     20  H   UNL     1      -6.881   0.727 124.881  0.00  0.00    +0.000 HD
ENDBRANCH   1  19
BRANCH   1  21
ATOM     21  C   UNL     1      -8.171   3.449 124.856  0.00  0.00    +0.000 C 
BRANCH  21  22
ATOM     22  N   UNL     1      -7.856   3.345 126.271  0.00  0.00    +0.000 N 
ATOM     23  C   UNL     1      -7.066   4.172 127.012  0.00  0.00    +0.000 A 
ATOM     24  N   UNL     1      -7.234   3.911 128.290  0.00  0.00    +0.000 NA
ATOM     25  C   UNL     1      -8.066   2.831 128.274  0.00  0.00    +0.000 A 
ATOM     26  N   UNL     1      -8.424   2.407 127.057  0.00  0.00    +0.000 NA
ENDBRANCH  21  22
ENDBRANCH   1  21
TORSDOF 6
ENDMDL
MODEL 3
REMARK VINA RESULT:      -6.9      4.221      7.050
REMARK  Name = Voriconazole
REMARK  7 active torsions:
REMARK  status: ('A' for Active; 'I' for Inactive)
REMARK    1  A    between atoms: C_1  and  C_2
REMARK    2  A    between atoms: C_2  and  C_3
REMARK    3  A    between atoms: C_2  and  C_10
REMARK    4  A    between atoms: C_10  and  O_11
REMARK    5  A    between atoms: C_10  and  C_12
REMARK    6  A    between atoms: C_10  and  C_18
REMARK    7  A    between atoms: C_12  and  N_13
REMARK                            x       y       z     vdW  Elec       q    Type
REMARK                         _______ _______ _______ _____ _____    ______ ____
ROOT
ATOM      1  C   UNL     1      -6.342  -1.481 126.469  0.00  0.00    +0.000 C 
ENDROOT
BRANCH   1   2
ATOM      2  C   UNL     1      -6.240  -2.345 127.776  0.00  0.00    +0.000 A 
ATOM      3  C   UNL     1      -7.376  -2.964 128.361  0.00  0.00    +0.000 A 
ATOM      4  F   UNL     1      -8.577  -2.914 127.774  0.00  0.00    +0.000 F 
ATOM      5  C   UNL     1      -7.334  -3.645 129.575  0.00  0.00    +0.000 A 
ATOM      6  C   UNL     1      -6.122  -3.784 130.216  0.00  0.00    +0.000 A 
ATOM      7  F   UNL     1      -6.059  -4.465 131.367  0.00  0.00    +0.000 F 
ATOM      8  C   UNL     1      -4.969  -3.236 129.670  0.00  0.00    +0.000 A 
ATOM      9  C   UNL     1      -5.024  -2.514 128.466  0.00  0.00    +0.000 A 
ENDBRANCH   1   2
BRANCH   1  11
ATOM     10  C   UNL     1      -5.165  -2.103 124.172  0.00  0.00    +0.000 C 
ATOM     11  C   UNL     1      -6.250  -2.411 125.200  0.00  0.00    +0.000 C 
BRANCH  11  12
ATOM     12  C   UNL     1      -7.525  -2.463 124.358  0.00  0.00    +0.000 A 
ATOM     13  N   UNL     1      -7.762  -1.344 123.617  0.00  0.00    +0.000 NA
ATOM     14  C   UNL     1      -8.928  -1.298 122.953  0.00  0.00    +0.000 A 
ATOM     15  N   UNL     1      -9.877  -2.245 122.942  0.00  0.00    +0.000 NA
ATOM     16  C   UNL     1      -9.596  -3.341 123.673  0.00  0.00    +0.000 A 
ATOM     17  C   UNL     1      -8.443  -3.498 124.386  0.00  0.00    +0.000 A 
ATOM     18  F   UNL     1      -8.280  -4.658 125.039  0.00  0.00    +0.000 F 
ENDBRANCH  11  12
ENDBRANCH   1  11
BRANCH   1  19
ATOM     19  O   UNL     1      -7.595  -0.784 126.346  0.00  0.00    +0.000 OA
ATOM     20  H   UNL     1      -8.101  -0.795 127.168  0.00  0.00    +0.000 HD
ENDBRANCH   1  19
BRANCH   1  21
ATOM     21  C   UNL     1      -5.275  -0.347 126.561  0.00  0.00    +0.000 C 
BRANCH  21  22
ATOM     22  N   UNL     1      -5.764   1.009 126.371  0.00  0.00    +0.000 N 
ATOM     23  C   UNL     1      -5.769   2.028 127.275  0.00  0.00    +0.000 A 
ATOM     24  N   UNL     1      -6.042   3.159 126.662  0.00  0.00    +0.000 NA
ATOM     25  C   UNL     1      -6.305   2.758 125.385  0.00  0.00    +0.000 A 
ATOM     26  N   UNL     1      -6.210   1.440 125.172  0.00  0.00    +0.000 NA
ENDBRANCH  21  22
ENDBRANCH   1  21
TORSDOF 6
ENDMDL
MODEL 4
REMARK VINA RESULT:      -6.8      7.682      9.417
REMARK  Name = Voriconazole
REMARK  7 active torsions:
REMARK  status: ('A' for Active; 'I' for Inactive)
REMARK    1  A    between atoms: C_1  and  C_2
REMARK    2  A    between atoms: C_2  and  C_3
REMARK    3  A    between atoms: C_2  and  C_10
REMARK    4  A    between atoms: C_10  and  O_11
REMARK    5  A    between atoms: C_10  and  C_12
REMARK    6  A    between atoms: C_10  and  C_18
REMARK    7  A    between atoms: C_12  and  N_13
REMARK                            x       y       z     vdW  Elec       q    Type
REMARK                         _______ _______ _______ _____ _____    ______ ____
ROOT
ATOM      1  C   UNL     1      -9.822   5.316 130.999  0.00  0.00    +0.000 C 
ENDROOT
BRANCH   1   2
ATOM      2  C   UNL     1      -8.303   5.612 130.732  0.00  0.00    +0.000 A 
ATOM      3  C   UNL     1      -7.487   4.736 129.968  0.00  0.00    +0.000 A 
ATOM      4  F   UNL     1      -7.999   3.659 129.362  0.00  0.00    +0.000 F 
ATOM      5  C   UNL     1      -6.117   4.917 129.805  0.00  0.00    +0.000 A 
ATOM      6  C   UNL     1      -5.524   6.032 130.357  0.00  0.00    +0.000 A 
ATOM      7  F   UNL     1      -4.213   6.237 130.181  0.00  0.00    +0.000 F 
ATOM      8  C   UNL     1      -6.279   6.946 131.080  0.00  0.00    +0.000 A 
ATOM      9  C   UNL     1      -7.655   6.737 131.276  0.00  0.00    +0.000 A 
ENDBRANCH   1   2
BRANCH   1  11
ATOM     10  C   UNL     1     -11.897   6.728 131.863  0.00  0.00    +0.000 C 
ATOM     11  C   UNL     1     -10.641   6.661 130.999  0.00  0.00    +0.000 C 
BRANCH  11  12
ATOM     12  C   UNL     1     -11.140   7.099 129.621  0.00  0.00    +0.000 A 
ATOM     13  N   UNL     1     -12.312   6.522 129.232  0.00  0.00    +0.000 NA
ATOM     14  C   UNL     1     -12.727   6.788 127.983  0.00  0.00    +0.000 A 
ATOM     15  N   UNL     1     -12.108   7.568 127.086  0.00  0.00    +0.000 NA
ATOM     16  C   UNL     1     -10.963   8.133 127.516  0.00  0.00    +0.000 A 
ATOM     17  C   UNL     1     -10.447   7.936 128.764  0.00  0.00    +0.000 A 
ATOM     18  F   UNL     1      -9.318   8.592 129.070  0.00  0.00    +0.000 F 
ENDBRANCH  11  12
ENDBRANCH   1  11
BRANCH   1  19
ATOM     19  O   UNL     1     -10.427   4.495 129.983  0.00  0.00    +0.000 OA
ATOM     20  H   UNL     1     -10.063   4.672 129.106  0.00  0.00    +0.000 HD
ENDBRANCH   1  19
BRANCH   1  21
ATOM     21  C   UNL     1      -9.921   4.459 132.299  0.00  0.00    +0.000 C 
BRANCH  21  22
ATOM     22  N   UNL     1      -9.398   3.105 132.215  0.00  0.00    +0.000 N 
ATOM     23  C   UNL     1      -8.337   2.578 132.889  0.00  0.00    +0.000 A 
ATOM     24  N   UNL     1      -8.335   1.270 132.751  0.00  0.00    +0.000 NA
ATOM     25  C   UNL     1      -9.366   1.053 131.885  0.00  0.00    +0.000 A 
ATOM     26  N   UNL     1     -10.007   2.154 131.477  0.00  0.00    +0.000 NA
ENDBRANCH  21  22
ENDBRANCH   1  21
TORSDOF 6
ENDMDL
MODEL 5
REMARK VINA RESULT:      -6.8      4.549      7.209
REMARK  Name = Voriconazole
REMARK  7 active torsions:
REMARK  status: ('A' for Active; 'I' for Inactive)
REMARK    1  A    between atoms: C_1  and  C_2
REMARK    2  A    between atoms: C_2  and  C_3
REMARK    3  A    between atoms: C_2  and  C_10
REMARK    4  A    between atoms: C_10  and  O_11
REMARK    5  A    between atoms: C_10  and  C_12
REMARK    6  A    between atoms: C_10  and  C_18
REMARK    7  A    between atoms: C_12  and  N_13
REMARK                            x       y       z     vdW  Elec       q    Type
REMARK                         _______ _______ _______ _____ _____    ______ ____
ROOT
ATOM      1  C   UNL     1      -6.702  -1.602 126.957  0.00  0.00    +0.000 C 
ENDROOT
BRANCH   1   2
ATOM      2  C   UNL     1      -6.178  -2.482 128.147  0.00  0.00    +0.000 A 
ATOM      3  C   UNL     1      -7.056  -3.222 128.981  0.00  0.00    +0.000 A 
ATOM      4  F   UNL     1      -8.370  -3.275 128.736  0.00  0.00    +0.000 F 
ATOM      5  C   UNL     1      -6.632  -3.924 130.106  0.00  0.00    +0.000 A 
ATOM      6  C   UNL     1      -5.285  -3.959 130.396  0.00  0.00    +0.000 A 
ATOM      7  F   UNL     1      -4.857  -4.658 131.455  0.00  0.00    +0.000 F 
ATOM      8  C   UNL     1      -4.373  -3.289 129.591  0.00  0.00    +0.000 A 
ATOM      9  C   UNL     1      -4.812  -2.548 128.482  0.00  0.00    +0.000 A 
ENDBRANCH   1   2
BRANCH   1  11
ATOM     10  C   UNL     1      -5.290  -1.798 124.717  0.00  0.00    +0.000 C 
ATOM     11  C   UNL     1      -6.426  -2.329 125.587  0.00  0.00    +0.000 C 
BRANCH  11  12
ATOM     12  C   UNL     1      -7.619  -2.350 124.630  0.00  0.00    +0.000 A 
ATOM     13  N   UNL     1      -7.933  -1.140 124.087  0.00  0.00    +0.000 NA
ATOM     14  C   UNL     1      -9.042  -1.090 123.332  0.00  0.00    +0.000 A 
ATOM     15  N   UNL     1      -9.865  -2.110 123.056  0.00  0.00    +0.000 NA
ATOM     16  C   UNL     1      -9.510  -3.292 123.597  0.00  0.00    +0.000 A 
ATOM     17  C   UNL     1      -8.404  -3.462 124.377  0.00  0.00    +0.000 A 
ATOM     18  F   UNL     1      -8.150  -4.703 124.819  0.00  0.00    +0.000 F 
ENDBRANCH  11  12
ENDBRANCH   1  11
BRANCH   1  19
ATOM     19  O   UNL     1      -8.123  -1.381 126.998  0.00  0.00    +0.000 OA
ATOM     20  H   UNL     1      -8.388  -0.611 126.479  0.00  0.00    +0.000 HD
ENDBRANCH   1  19
BRANCH   1  21
ATOM     21  C   UNL     1      -6.085  -0.177 127.108  0.00  0.00    +0.000 C 
BRANCH  21  22
ATOM     22  N   UNL     1      -7.011   0.889 127.452  0.00  0.00    +0.000 N 
ATOM     23  C   UNL     1      -7.433   1.915 126.661  0.00  0.00    +0.000 A 
ATOM     24  N   UNL     1      -8.458   2.514 127.226  0.00  0.00    +0.000 NA
ATOM     25  C   UNL     1      -8.558   1.877 128.428  0.00  0.00    +0.000 A 
ATOM     26  N   UNL     1      -7.652   0.915 128.639  0.00  0.00    +0.000 NA
ENDBRANCH  21  22
ENDBRANCH   1  21
TORSDOF 6
ENDMDL
MODEL 6
REMARK VINA RESULT:      -6.7      2.002      4.623
REMARK  Name = Voriconazole
REMARK  7 active torsions:
REMARK  status: ('A' for Active; 'I' for Inactive)
REMARK    1  A    between atoms: C_1  and  C_2
REMARK    2  A    between atoms: C_2  and  C_3
REMARK    3  A    between atoms: C_2  and  C_10
REMARK    4  A    between atoms: C_10  and  O_11
REMARK    5  A    between atoms: C_10  and  C_12
REMARK    6  A    between atoms: C_10  and  C_18
REMARK    7  A    between atoms: C_12  and  N_13
REMARK                            x       y       z     vdW  Elec       q    Type
REMARK                         _______ _______ _______ _____ _____    ______ ____
ROOT
ATOM      1  C   UNL     1      -7.451   1.200 124.175  0.00  0.00    +0.000 C 
ENDROOT
BRANCH   1   2
ATOM      2  C   UNL     1      -7.469   2.202 122.967  0.00  0.00    +0.000 A 
ATOM      3  C   UNL     1      -8.675   2.585 122.323  0.00  0.00    +0.000 A 
ATOM      4  F   UNL     1      -9.866   2.178 122.775  0.00  0.00    +0.000 F 
ATOM      5  C   UNL     1      -8.712   3.386 121.185  0.00  0.00    +0.000 A 
ATOM      6  C   UNL     1      -7.529   3.888 120.688  0.00  0.00    +0.000 A 
ATOM      7  F   UNL     1      -7.551   4.687 119.613  0.00  0.00    +0.000 F 
ATOM      8  C   UNL     1      -6.321   3.581 121.301  0.00  0.00    +0.000 A 
ATOM      9  C   UNL     1      -6.286   2.739 122.424  0.00  0.00    +0.000 A 
ENDBRANCH   1   2
BRANCH   1  11
ATOM     10  C   UNL     1      -5.540   0.654 125.936  0.00  0.00    +0.000 C 
ATOM     11  C   UNL     1      -6.435   1.697 125.272  0.00  0.00    +0.000 C 
BRANCH  11  12
ATOM     12  C   UNL     1      -7.084   2.409 126.460  0.00  0.00    +0.000 A 
ATOM     13  N   UNL     1      -7.627   1.576 127.394  0.00  0.00    +0.000 NA
ATOM     14  C   UNL     1      -8.307   2.157 128.394  0.00  0.00    +0.000 A 
ATOM     15  N   UNL     1      -8.499   3.472 128.569  0.00  0.00    +0.000 NA
ATOM     16  C   UNL     1      -7.932   4.261 127.635  0.00  0.00    +0.000 A 
ATOM     17  C   UNL     1      -7.217   3.781 126.577  0.00  0.00    +0.000 A 
ATOM     18  F   UNL     1      -6.676   4.683 125.744  0.00  0.00    +0.000 F 
ENDBRANCH  11  12
ENDBRANCH   1  11
BRANCH   1  19
ATOM     19  O   UNL     1      -8.721   1.095 124.844  0.00  0.00    +0.000 OA
ATOM     20  H   UNL     1      -8.922   0.188 125.106  0.00  0.00    +0.000 HD
ENDBRANCH   1  19
BRANCH   1  21
ATOM     21  C   UNL     1      -7.194  -0.230 123.607  0.00  0.00    +0.000 C 
BRANCH  21  22
ATOM     22  N   UNL     1      -8.201  -1.232 123.914  0.00  0.00    +0.000 N 
ATOM     23  C   UNL     1      -9.073  -1.829 123.054  0.00  0.00    +0.000 A 
ATOM     24  N   UNL     1      -9.639  -2.858 123.645  0.00  0.00    +0.000 NA
ATOM     25  C   UNL     1      -9.153  -2.784 124.917  0.00  0.00    +0.000 A 
ATOM     26  N   UNL     1      -8.317  -1.766 125.148  0.00  0.00    +0.000 NA
ENDBRANCH  21  22
ENDBRANCH   1  21
TORSDOF 6
ENDMDL
MODEL 7
REMARK VINA RESULT:      -6.5      3.007      6.453
REMARK  Name = Voriconazole
REMARK  7 active torsions:
REMARK  status: ('A' for Active; 'I' for Inactive)
REMARK    1  A    between atoms: C_1  and  C_2
REMARK    2  A    between atoms: C_2  and  C_3
REMARK    3  A    between atoms: C_2  and  C_10
REMARK    4  A    between atoms: C_10  and  O_11
REMARK    5  A    between atoms: C_10  and  C_12
REMARK    6  A    between atoms: C_10  and  C_18
REMARK    7  A    between atoms: C_12  and  N_13
REMARK                            x       y       z     vdW  Elec       q    Type
REMARK                         _______ _______ _______ _____ _____    ______ ____
ROOT
ATOM      1  C   UNL     1      -6.551  -0.498 126.683  0.00  0.00    +0.000 C 
ENDROOT
BRANCH   1   2
ATOM      2  C   UNL     1      -7.433  -1.476 125.828  0.00  0.00    +0.000 A 
ATOM      3  C   UNL     1      -6.963  -2.055 124.620  0.00  0.00    +0.000 A 
ATOM      4  F   UNL     1      -5.708  -1.864 124.198  0.00  0.00    +0.000 F 
ATOM      5  C   UNL     1      -7.758  -2.839 123.789  0.00  0.00    +0.000 A 
ATOM      6  C   UNL     1      -9.048  -3.124 124.181  0.00  0.00    +0.000 A 
ATOM      7  F   UNL     1      -9.814  -3.905 123.409  0.00  0.00    +0.000 F 
ATOM      8  C   UNL     1      -9.550  -2.620 125.374  0.00  0.00    +0.000 A 
ATOM      9  C   UNL     1      -8.756  -1.796 126.188  0.00  0.00    +0.000 A 
ENDBRANCH   1   2
BRANCH   1  11
ATOM     10  C   UNL     1      -4.701   1.357 126.252  0.00  0.00    +0.000 C 
ATOM     11  C   UNL     1      -5.948   0.629 125.761  0.00  0.00    +0.000 C 
BRANCH  11  12
ATOM     12  C   UNL     1      -6.916   1.769 125.439  0.00  0.00    +0.000 A 
ATOM     13  N   UNL     1      -6.908   2.791 126.341  0.00  0.00    +0.000 NA
ATOM     14  C   UNL     1      -7.823   3.757 126.161  0.00  0.00    +0.000 A 
ATOM     15  N   UNL     1      -8.735   3.819 125.182  0.00  0.00    +0.000 NA
ATOM     16  C   UNL     1      -8.698   2.799 124.302  0.00  0.00    +0.000 A 
ATOM     17  C   UNL     1      -7.811   1.765 124.384  0.00  0.00    +0.000 A 
ATOM     18  F   UNL     1      -7.862   0.836 123.418  0.00  0.00    +0.000 F 
ENDBRANCH  11  12
ENDBRANCH   1  11
BRANCH   1  19
ATOM     19  O   UNL     1      -7.295   0.194 127.702  0.00  0.00    +0.000 OA
ATOM     20  H   UNL     1      -6.834   0.981 128.020  0.00  0.00    +0.000 HD
ENDBRANCH   1  19
BRANCH   1  21
ATOM     21  C   UNL     1      -5.515  -1.355 127.474  0.00  0.00    +0.000 C 
BRANCH  21  22
ATOM     22  N   UNL     1      -5.928  -1.797 128.796  0.00  0.00    +0.000 N 
ATOM     23  C   UNL     1      -6.506  -2.984 129.136  0.00  0.00    +0.000 A 
ATOM     24  N   UNL     1      -6.489  -3.122 130.444  0.00  0.00    +0.000 NA
ATOM     25  C   UNL     1      -5.980  -1.930 130.870  0.00  0.00    +0.000 A 
ATOM     26  N   UNL     1      -5.680  -1.060 129.899  0.00  0.00    +0.000 NA
ENDBRANCH  21  22
ENDBRANCH   1  21
TORSDOF 6
ENDMDL
MODEL 8
REMARK VINA RESULT:      -6.4      3.554      6.230
REMARK  Name = Voriconazole
REMARK  7 active torsions:
REMARK  status: ('A' for Active; 'I' for Inactive)
REMARK    1  A    between atoms: C_1  and  C_2
REMARK    2  A    between atoms: C_2  and  C_3
REMARK    3  A    between atoms: C_2  and  C_10
REMARK    4  A    between atoms: C_10  and  O_11
REMARK    5  A    between atoms: C_10  and  C_12
REMARK    6  A    between atoms: C_10  and  C_18
REMARK    7  A    between atoms: C_12  and  N_13
REMARK                            x       y       z     vdW  Elec       q    Type
REMARK                         _______ _______ _______ _____ _____    ______ ____
ROOT
ATOM      1  C   UNL     1      -6.475  -0.907 126.786  0.00  0.00    +0.000 C 
ENDROOT
BRANCH   1   2
ATOM      2  C   UNL     1      -7.416  -1.753 125.857  0.00  0.00    +0.000 A 
ATOM      3  C   UNL     1      -7.036  -2.131 124.542  0.00  0.00    +0.000 A 
ATOM      4  F   UNL     1      -5.817  -1.858 124.064  0.00  0.00    +0.000 F 
ATOM      5  C   UNL     1      -7.888  -2.788 123.660  0.00  0.00    +0.000 A 
ATOM      6  C   UNL     1      -9.145  -3.150 124.096  0.00  0.00    +0.000 A 
ATOM      7  F   UNL     1      -9.965  -3.812 123.270  0.00  0.00    +0.000 F 
ATOM      8  C   UNL     1      -9.558  -2.844 125.387  0.00  0.00    +0.000 A 
ATOM      9  C   UNL     1      -8.708  -2.144 126.259  0.00  0.00    +0.000 A 
ENDBRANCH   1   2
BRANCH   1  11
ATOM     10  C   UNL     1      -6.901   0.378 129.070  0.00  0.00    +0.000 C 
ATOM     11  C   UNL     1      -7.030  -0.909 128.261  0.00  0.00    +0.000 C 
BRANCH  11  12
ATOM     12  C   UNL     1      -6.398  -1.961 129.173  0.00  0.00    +0.000 A 
ATOM     13  N   UNL     1      -5.170  -1.626 129.662  0.00  0.00    +0.000 NA
ATOM     14  C   UNL     1      -4.529  -2.567 130.373  0.00  0.00    +0.000 A 
ATOM     15  N   UNL     1      -4.978  -3.798 130.654  0.00  0.00    +0.000 NA
ATOM     16  C   UNL     1      -6.203  -4.083 130.169  0.00  0.00    +0.000 A 
ATOM     17  C   UNL     1      -6.946  -3.204 129.436  0.00  0.00    +0.000 A 
ATOM     18  F   UNL     1      -8.165  -3.609 129.048  0.00  0.00    +0.000 F 
ENDBRANCH  11  12
ENDBRANCH   1  11
BRANCH   1  19
ATOM     19  O   UNL     1      -5.140  -1.436 126.875  0.00  0.00    +0.000 OA
ATOM     20  H   UNL     1      -4.614  -1.232 126.092  0.00  0.00    +0.000 HD
ENDBRANCH   1  19
BRANCH   1  21
ATOM     21  C   UNL     1      -6.292   0.497 126.130  0.00  0.00    +0.000 C 
BRANCH  21  22
ATOM     22  N   UNL     1      -7.462   1.052 125.470  0.00  0.00    +0.000 N 
ATOM     23  C   UNL     1      -8.607   1.513 126.049  0.00  0.00    +0.000 A 
ATOM     24  N   UNL     1      -9.315   2.173 125.159  0.00  0.00    +0.000 NA
ATOM     25  C   UNL     1      -8.603   1.993 124.009  0.00  0.00    +0.000 A 
ATOM     26  N   UNL     1      -7.493   1.259 124.137  0.00  0.00    +0.000 NA
ENDBRANCH  21  22
ENDBRANCH   1  21
TORSDOF 6
ENDMDL
MODEL 9
REMARK VINA RESULT:      -6.3      4.448      6.403
REMARK  Name = Voriconazole
REMARK  7 active torsions:
REMARK  status: ('A' for Active; 'I' for Inactive)
REMARK    1  A    between atoms: C_1  and  C_2
REMARK    2  A    between atoms: C_2  and  C_3
REMARK    3  A    between atoms: C_2  and  C_10
REMARK    4  A    between atoms: C_10  and  O_11
REMARK    5  A    between atoms: C_10  and  C_12
REMARK    6  A    between atoms: C_10  and  C_18
REMARK    7  A    between atoms: C_12  and  N_13
REMARK                            x       y       z     vdW  Elec       q    Type
REMARK                         _______ _______ _______ _____ _____    ______ ____
ROOT
ATOM      1  C   UNL     1      -6.840  -0.866 127.423  0.00  0.00    +0.000 C 
ENDROOT
BRANCH   1   2
ATOM      2  C   UNL     1      -7.570  -1.656 126.279  0.00  0.00    +0.000 A 
ATOM      3  C   UNL     1      -7.083  -1.672 124.945  0.00  0.00    +0.000 A 
ATOM      4  F   UNL     1      -5.926  -1.084 124.619  0.00  0.00    +0.000 F 
ATOM      5  C   UNL     1      -7.764  -2.273 123.891  0.00  0.00    +0.000 A 
ATOM      6  C   UNL     1      -8.939  -2.943 124.156  0.00  0.00    +0.000 A 
ATOM      7  F   UNL     1      -9.589  -3.555 123.158  0.00  0.00    +0.000 F 
ATOM      8  C   UNL     1      -9.443  -2.997 125.449  0.00  0.00    +0.000 A 
ATOM      9  C   UNL     1      -8.772  -2.353 126.502  0.00  0.00    +0.000 A 
ENDBRANCH   1   2
BRANCH   1  11
ATOM     10  C   UNL     1      -7.773  -0.077 129.780  0.00  0.00    +0.000 C 
ATOM     11  C   UNL     1      -7.479  -1.224 128.818  0.00  0.00    +0.000 C 
BRANCH  11  12
ATOM     12  C   UNL     1      -6.649  -2.189 129.665  0.00  0.00    +0.000 A 
ATOM     13  N   UNL     1      -5.651  -1.600 130.383  0.00  0.00    +0.000 NA
ATOM     14  C   UNL     1      -4.825  -2.421 131.050  0.00  0.00    +0.000 A 
ATOM     15  N   UNL     1      -4.889  -3.759 131.086  0.00  0.00    +0.000 NA
ATOM     16  C   UNL     1      -5.900  -4.301 130.379  0.00  0.00    +0.000 A 
ATOM     17  C   UNL     1      -6.800  -3.564 129.665  0.00  0.00    +0.000 A 
ATOM     18  F   UNL     1      -7.779  -4.234 129.038  0.00  0.00    +0.000 F 
ENDBRANCH  11  12
ENDBRANCH   1  11
BRANCH   1  19
ATOM     19  O   UNL     1      -5.445  -1.197 127.541  0.00  0.00    +0.000 OA
ATOM     20  H   UNL     1      -5.033  -0.777 128.307  0.00  0.00    +0.000 HD
ENDBRANCH   1  19
BRANCH   1  21
ATOM     21  C   UNL     1      -6.848   0.647 127.040  0.00  0.00    +0.000 C 
BRANCH  21  22
ATOM     22  N   UNL     1      -5.577   1.342 127.153  0.00  0.00    +0.000 N 
ATOM     23  C   UNL     1      -4.850   1.920 126.154  0.00  0.00    +0.000 A 
ATOM     24  N   UNL     1      -3.905   2.671 126.676  0.00  0.00    +0.000 NA
ATOM     25  C   UNL     1      -4.029   2.431 128.014  0.00  0.00    +0.000 A 
ATOM     26  N   UNL     1      -4.998   1.573 128.350  0.00  0.00    +0.000 NA
ENDBRANCH  21  22
ENDBRANCH   1  21
TORSDOF 6
ENDMDL
