MODEL 1
REMARK VINA RESULT:      -6.7      0.000      0.000
REMARK  Name = Vorinostat
REMARK  9 active torsions:
REMARK  status: ('A' for Active; 'I' for Inactive)
REMARK    1  A    between atoms: O_1  and  N_2
REMARK    2  A    between atoms: C_3  and  C_5
REMARK    3  A    between atoms: C_5  and  C_6
REMARK    4  A    between atoms: C_6  and  C_7
REMARK    5  A    between atoms: C_7  and  C_8
REMARK    6  A    between atoms: C_8  and  C_9
REMARK    7  A    between atoms: C_9  and  C_10
REMARK    8  A    between atoms: C_10  and  C_11
REMARK    9  A    between atoms: N_13  and  C_14
REMARK                            x       y       z     vdW  Elec       q    Type
REMARK                         _______ _______ _______ _____ _____    ______ ____
ROOT
ATOM      1  C   UNL     1      -8.322   3.335 124.061  0.00  0.00    +0.000 C 
ENDROOT
BRANCH   1   2
ATOM      2  C   UNL     1      -6.891   3.761 123.769  0.00  0.00    +0.000 C 
BRANCH   2   3
ATOM      3  C   UNL     1      -6.366   3.065 122.508  0.00  0.00    +0.000 C 
BRANCH   3   4
ATOM      4  C   UNL     1      -5.402   3.978 121.758  0.00  0.00    +0.000 C 
BRANCH   4   5
ATOM      5  C   UNL     1      -5.695   4.041 120.257  0.00  0.00    +0.000 C 
BRANCH   5   7
ATOM      6  N   UNL     1      -5.864   5.658 118.453  0.00  0.00    +0.000 N 
ATOM      7  C   UNL     1      -5.352   5.416 119.706  0.00  0.00    +0.000 C 
ATOM      8  O   UNL     1      -4.673   6.227 120.340  0.00  0.00    +0.000 OA
ATOM      9  H   UNL     1      -6.423   5.003 117.920  0.00  0.00    +0.000 HD
BRANCH   6  10
ATOM     10  O   UNL     1      -5.567   6.925 117.906  0.00  0.00    +0.000 OA
ATOM     11  H   UNL     1      -6.107   6.980 117.100  0.00  0.00    +0.000 HD
ENDBRANCH   6  10
ENDBRANCH   5   7
ENDBRANCH   4   5
ENDBRANCH   3   4
ENDBRANCH   2   3
ENDBRANCH   1   2
BRANCH   1  12
ATOM     12  C   UNL     1      -8.887   2.363 123.014  0.00  0.00    +0.000 C 
BRANCH  12  13
ATOM     13  C   UNL     1      -9.146   1.019 123.678  0.00  0.00    +0.000 C 
ATOM     14  O   UNL     1     -10.117   0.861 124.420  0.00  0.00    +0.000 OA
ATOM     15  N   UNL     1      -8.208   0.032 123.417  0.00  0.00    +0.000 N 
ATOM     16  H   UNL     1      -7.325   0.281 122.989  0.00  0.00    +0.000 HD
BRANCH  15  17
ATOM     17  C   UNL     1      -8.354  -1.285 123.916  0.00  0.00    +0.000 A 
ATOM     18  C   UNL     1      -7.726  -1.672 125.102  0.00  0.00    +0.000 A 
ATOM     19  C   UNL     1      -7.841  -2.995 125.553  0.00  0.00    +0.000 A 
ATOM     20  C   UNL     1      -8.600  -3.923 124.839  0.00  0.00    +0.000 A 
ATOM     21  C   UNL     1      -9.224  -3.540 123.657  0.00  0.00    +0.000 A 
ATOM     22  C   UNL     1      -9.100  -2.229 123.202  0.00  0.00    +0.000 A 
ENDBRANCH  15  17
ENDBRANCH  12  13
ENDBRANCH   1  12
TORSDOF 9
ENDMDL
MODEL 2
REMARK VINA RESULT:      -6.6      9.156     10.547
REMARK  Name = Vorinostat
REMARK  9 active torsions:
REMARK  status: ('A' for Active; 'I' for Inactive)
REMARK    1  A    between atoms: O_1  and  N_2
REMARK    2  A    between atoms: C_3  and  C_5
REMARK    3  A    between atoms: C_5  and  C_6
REMARK    4  A    between atoms: C_6  and  C_7
REMARK    5  A    between atoms: C_7  and  C_8
REMARK    6  A    between atoms: C_8  and  C_9
REMARK    7  A    between atoms: C_9  and  C_10
REMARK    8  A    between atoms: C_10  and  C_11
REMARK    9  A    between atoms: N_13  and  C_14
REMARK                            x       y       z     vdW  Elec       q    Type
REMARK                         _______ _______ _______ _____ _____    ______ ____
ROOT
ATOM      1  C   UNL     1     -11.885   6.696 131.536  0.00  0.00    +0.000 C 
ENDROOT
BRANCH   1   2
ATOM      2  C   UNL     1     -13.000   7.432 130.808  0.00  0.00    +0.000 C 
BRANCH   2   3
ATOM      3  C   UNL     1     -13.127   6.930 129.365  0.00  0.00    +0.000 C 
BRANCH   3   4
ATOM      4  C   UNL     1     -13.128   8.101 128.390  0.00  0.00    +0.000 C 
BRANCH   4   5
ATOM      5  C   UNL     1     -11.793   8.849 128.364  0.00  0.00    +0.000 C 
BRANCH   5   7
ATOM      6  N   UNL     1     -10.828   7.308 126.753  0.00  0.00    +0.000 N 
ATOM      7  C   UNL     1     -10.663   7.905 127.981  0.00  0.00    +0.000 C 
ATOM      8  O   UNL     1      -9.696   7.705 128.718  0.00  0.00    +0.000 OA
ATOM      9  H   UNL     1     -11.617   7.462 126.136  0.00  0.00    +0.000 HD
BRANCH   6  10
ATOM     10  O   UNL     1      -9.800   6.424 126.361  0.00  0.00    +0.000 OA
ATOM     11  H   UNL     1      -9.200   6.387 127.124  0.00  0.00    +0.000 HD
ENDBRANCH   6  10
ENDBRANCH   5   7
ENDBRANCH   4   5
ENDBRANCH   3   4
ENDBRANCH   2   3
ENDBRANCH   1   2
BRANCH   1  12
ATOM     12  C   UNL     1     -11.384   5.458 130.778  0.00  0.00    +0.000 C 
BRANCH  12  13
ATOM     13  C   UNL     1      -9.916   5.237 131.108  0.00  0.00    +0.000 C 
ATOM     14  O   UNL     1      -9.408   4.120 131.001  0.00  0.00    +0.000 OA
ATOM     15  N   UNL     1      -9.231   6.354 131.562  0.00  0.00    +0.000 N 
ATOM     16  H   UNL     1      -9.747   7.179 131.840  0.00  0.00    +0.000 HD
BRANCH  15  17
ATOM     17  C   UNL     1      -7.845   6.312 131.848  0.00  0.00    +0.000 A 
ATOM     18  C   UNL     1      -7.379   5.762 133.045  0.00  0.00    +0.000 A 
ATOM     19  C   UNL     1      -6.006   5.776 133.333  0.00  0.00    +0.000 A 
ATOM     20  C   UNL     1      -5.098   6.313 132.420  0.00  0.00    +0.000 A 
ATOM     21  C   UNL     1      -5.559   6.862 131.229  0.00  0.00    +0.000 A 
ATOM     22  C   UNL     1      -6.924   6.860 130.948  0.00  0.00    +0.000 A 
ENDBRANCH  15  17
ENDBRANCH  12  13
ENDBRANCH   1  12
TORSDOF 9
ENDMDL
MODEL 3
REMARK VINA RESULT:      -6.3      9.504     11.755
REMARK  Name = Vorinostat
REMARK  9 active torsions:
REMARK  status: ('A' for Active; 'I' for Inactive)
REMARK    1  A    between atoms: O_1  and  N_2
REMARK    2  A    between atoms: C_3  and  C_5
REMARK    3  A    between atoms: C_5  and  C_6
REMARK    4  A    between atoms: C_6  and  C_7
REMARK    5  A    between atoms: C_7  and  C_8
REMARK    6  A    between atoms: C_8  and  C_9
REMARK    7  A    between atoms: C_9  and  C_10
REMARK    8  A    between atoms: C_10  and  C_11
REMARK    9  A    between atoms: N_13  and  C_14
REMARK                            x       y       z     vdW  Elec       q    Type
REMARK                         _______ _______ _______ _____ _____    ______ ____
ROOT
ATOM      1  C   UNL     1      -8.256   6.147 132.329  0.00  0.00    +0.000 C 
ENDROOT
BRANCH   1   2
ATOM      2  C   UNL     1      -6.847   5.747 132.740  0.00  0.00    +0.000 C 
BRANCH   2   3
ATOM      3  C   UNL     1      -6.826   4.309 133.271  0.00  0.00    +0.000 C 
BRANCH   3   4
ATOM      4  C   UNL     1      -8.245   3.808 133.511  0.00  0.00    +0.000 C 
BRANCH   4   5
ATOM      5  C   UNL     1      -8.428   2.341 133.118  0.00  0.00    +0.000 C 
BRANCH   5   7
ATOM      6  N   UNL     1     -10.100   3.367 131.687  0.00  0.00    +0.000 N 
ATOM      7  C   UNL     1      -9.633   2.181 132.205  0.00  0.00    +0.000 C 
ATOM      8  O   UNL     1     -10.133   1.081 131.963  0.00  0.00    +0.000 OA
ATOM      9  H   UNL     1      -9.701   4.278 131.875  0.00  0.00    +0.000 HD
BRANCH   6  10
ATOM     10  O   UNL     1     -11.219   3.261 130.832  0.00  0.00    +0.000 OA
ATOM     11  H   UNL     1     -11.488   2.330 130.889  0.00  0.00    +0.000 HD
ENDBRANCH   6  10
ENDBRANCH   5   7
ENDBRANCH   4   5
ENDBRANCH   3   4
ENDBRANCH   2   3
ENDBRANCH   1   2
BRANCH   1  12
ATOM     12  C   UNL     1      -8.305   6.889 130.985  0.00  0.00    +0.000 C 
BRANCH  12  13
ATOM     13  C   UNL     1      -9.739   6.899 130.478  0.00  0.00    +0.000 C 
ATOM     14  O   UNL     1     -10.602   6.206 131.019  0.00  0.00    +0.000 OA
ATOM     15  N   UNL     1      -9.975   7.697 129.369  0.00  0.00    +0.000 N 
ATOM     16  H   UNL     1      -9.194   8.061 128.838  0.00  0.00    +0.000 HD
BRANCH  15  17
ATOM     17  C   UNL     1     -11.274   7.851 128.826  0.00  0.00    +0.000 A 
ATOM     18  C   UNL     1     -11.742   6.984 127.836  0.00  0.00    +0.000 A 
ATOM     19  C   UNL     1     -13.012   7.185 127.275  0.00  0.00    +0.000 A 
ATOM     20  C   UNL     1     -13.823   8.231 127.716  0.00  0.00    +0.000 A 
ATOM     21  C   UNL     1     -13.358   9.097 128.700  0.00  0.00    +0.000 A 
ATOM     22  C   UNL     1     -12.092   8.905 129.249  0.00  0.00    +0.000 A 
ENDBRANCH  15  17
ENDBRANCH  12  13
ENDBRANCH   1  12
TORSDOF 9
ENDMDL
MODEL 4
REMARK VINA RESULT:      -6.3      4.885      7.519
REMARK  Name = Vorinostat
REMARK  9 active torsions:
REMARK  status: ('A' for Active; 'I' for Inactive)
REMARK    1  A    between atoms: O_1  and  N_2
REMARK    2  A    between atoms: C_3  and  C_5
REMARK    3  A    between atoms: C_5  and  C_6
REMARK    4  A    between atoms: C_6  and  C_7
REMARK    5  A    between atoms: C_7  and  C_8
REMARK    6  A    between atoms: C_8  and  C_9
REMARK    7  A    between atoms: C_9  and  C_10
REMARK    8  A    between atoms: C_10  and  C_11
REMARK    9  A    between atoms: N_13  and  C_14
REMARK                            x       y       z     vdW  Elec       q    Type
REMARK                         _______ _______ _______ _____ _____    ______ ____
ROOT
ATOM      1  C   UNL     1      -8.949  -3.383 126.064  0.00  0.00    +0.000 C 
ENDROOT
BRANCH   1   2
ATOM      2  C   UNL     1      -8.216  -3.665 124.761  0.00  0.00    +0.000 C 
BRANCH   2   3
ATOM      3  C   UNL     1      -9.035  -3.176 123.561  0.00  0.00    +0.000 C 
BRANCH   3   4
ATOM      4  C   UNL     1      -8.193  -2.266 122.675  0.00  0.00    +0.000 C 
BRANCH   4   5
ATOM      5  C   UNL     1      -8.005  -0.869 123.270  0.00  0.00    +0.000 C 
BRANCH   5   7
ATOM      6  N   UNL     1     -10.124   0.033 122.498  0.00  0.00    +0.000 N 
ATOM      7  C   UNL     1      -9.353  -0.248 123.602  0.00  0.00    +0.000 C 
ATOM      8  O   UNL     1      -9.704  -0.021 124.761  0.00  0.00    +0.000 OA
ATOM      9  H   UNL     1      -9.850  -0.147 121.539  0.00  0.00    +0.000 HD
BRANCH   6  10
ATOM     10  O   UNL     1     -11.384   0.611 122.764  0.00  0.00    +0.000 OA
ATOM     11  H   UNL     1     -12.010   0.100 122.225  0.00  0.00    +0.000 HD
ENDBRANCH   6  10
ENDBRANCH   5   7
ENDBRANCH   4   5
ENDBRANCH   3   4
ENDBRANCH   2   3
ENDBRANCH   1   2
BRANCH   1  12
ATOM     12  C   UNL     1      -8.189  -2.418 126.986  0.00  0.00    +0.000 C 
BRANCH  12  13
ATOM     13  C   UNL     1      -8.056  -3.052 128.362  0.00  0.00    +0.000 C 
ATOM     14  O   UNL     1      -8.979  -3.710 128.844  0.00  0.00    +0.000 OA
ATOM     15  N   UNL     1      -6.862  -2.802 129.022  0.00  0.00    +0.000 N 
ATOM     16  H   UNL     1      -6.241  -2.081 128.679  0.00  0.00    +0.000 HD
BRANCH  15  17
ATOM     17  C   UNL     1      -6.574  -3.379 130.282  0.00  0.00    +0.000 A 
ATOM     18  C   UNL     1      -7.085  -2.821 131.457  0.00  0.00    +0.000 A 
ATOM     19  C   UNL     1      -6.746  -3.376 132.699  0.00  0.00    +0.000 A 
ATOM     20  C   UNL     1      -5.921  -4.500 132.771  0.00  0.00    +0.000 A 
ATOM     21  C   UNL     1      -5.410  -5.056 131.604  0.00  0.00    +0.000 A 
ATOM     22  C   UNL     1      -5.736  -4.496 130.369  0.00  0.00    +0.000 A 
ENDBRANCH  15  17
ENDBRANCH  12  13
ENDBRANCH   1  12
TORSDOF 9
ENDMDL
MODEL 5
REMARK VINA RESULT:      -6.2      3.471      7.370
REMARK  Name = Vorinostat
REMARK  9 active torsions:
REMARK  status: ('A' for Active; 'I' for Inactive)
REMARK    1  A    between atoms: O_1  and  N_2
REMARK    2  A    between atoms: C_3  and  C_5
REMARK    3  A    between atoms: C_5  and  C_6
REMARK    4  A    between atoms: C_6  and  C_7
REMARK    5  A    between atoms: C_7  and  C_8
REMARK    6  A    between atoms: C_8  and  C_9
REMARK    7  A    between atoms: C_9  and  C_10
REMARK    8  A    between atoms: C_10  and  C_11
REMARK    9  A    between atoms: N_13  and  C_14
REMARK                            x       y       z     vdW  Elec       q    Type
REMARK                         _______ _______ _______ _____ _____    ______ ____
ROOT
ATOM      1  C   UNL     1      -8.829  -1.701 122.784  0.00  0.00    +0.000 C 
ENDROOT
BRANCH   1   2
ATOM      2  C   UNL     1      -9.265  -2.884 123.636  0.00  0.00    +0.000 C 
BRANCH   2   3
ATOM      3  C   UNL     1      -8.072  -3.471 124.399  0.00  0.00    +0.000 C 
BRANCH   3   4
ATOM      4  C   UNL     1      -7.012  -2.402 124.635  0.00  0.00    +0.000 C 
BRANCH   4   5
ATOM      5  C   UNL     1      -5.647  -2.992 124.996  0.00  0.00    +0.000 C 
BRANCH   5   7
ATOM      6  N   UNL     1      -4.670  -4.963 123.969  0.00  0.00    +0.000 N 
ATOM      7  C   UNL     1      -5.011  -3.644 123.779  0.00  0.00    +0.000 C 
ATOM      8  O   UNL     1      -4.825  -3.030 122.726  0.00  0.00    +0.000 OA
ATOM      9  H   UNL     1      -4.816  -5.481 124.827  0.00  0.00    +0.000 HD
BRANCH   6  10
ATOM     10  O   UNL     1      -4.076  -5.606 122.860  0.00  0.00    +0.000 OA
ATOM     11  H   UNL     1      -4.805  -5.741 122.233  0.00  0.00    +0.000 HD
ENDBRANCH   6  10
ENDBRANCH   5   7
ENDBRANCH   4   5
ENDBRANCH   3   4
ENDBRANCH   2   3
ENDBRANCH   1   2
BRANCH   1  12
ATOM     12  C   UNL     1      -9.857  -0.560 122.767  0.00  0.00    +0.000 C 
BRANCH  12  13
ATOM     13  C   UNL     1      -9.179   0.722 123.228  0.00  0.00    +0.000 C 
ATOM     14  O   UNL     1      -9.845   1.681 123.619  0.00  0.00    +0.000 OA
ATOM     15  N   UNL     1      -7.795   0.732 123.135  0.00  0.00    +0.000 N 
ATOM     16  H   UNL     1      -7.323   0.012 122.603  0.00  0.00    +0.000 HD
BRANCH  15  17
ATOM     17  C   UNL     1      -7.027   1.833 123.586  0.00  0.00    +0.000 A 
ATOM     18  C   UNL     1      -6.721   2.890 122.725  0.00  0.00    +0.000 A 
ATOM     19  C   UNL     1      -5.916   3.947 123.175  0.00  0.00    +0.000 A 
ATOM     20  C   UNL     1      -5.439   3.964 124.486  0.00  0.00    +0.000 A 
ATOM     21  C   UNL     1      -5.741   2.912 125.344  0.00  0.00    +0.000 A 
ATOM     22  C   UNL     1      -6.530   1.855 124.894  0.00  0.00    +0.000 A 
ENDBRANCH  15  17
ENDBRANCH  12  13
ENDBRANCH   1  12
TORSDOF 9
ENDMDL
MODEL 6
REMARK VINA RESULT:      -6.2      3.824      5.439
REMARK  Name = Vorinostat
REMARK  9 active torsions:
REMARK  status: ('A' for Active; 'I' for Inactive)
REMARK    1  A    between atoms: O_1  and  N_2
REMARK    2  A    between atoms: C_3  and  C_5
REMARK    3  A    between atoms: C_5  and  C_6
REMARK    4  A    between atoms: C_6  and  C_7
REMARK    5  A    between atoms: C_7  and  C_8
REMARK    6  A    between atoms: C_8  and  C_9
REMARK    7  A    between atoms: C_9  and  C_10
REMARK    8  A    between atoms: C_10  and  C_11
REMARK    9  A    between atoms: N_13  and  C_14
REMARK                            x       y       z     vdW  Elec       q    Type
REMARK                         _______ _______ _______ _____ _____    ______ ____
ROOT
ATOM      1  C   UNL     1      -8.867  -1.832 122.826  0.00  0.00    +0.000 C 
ENDROOT
BRANCH   1   2
ATOM      2  C   UNL     1      -7.376  -1.915 122.538  0.00  0.00    +0.000 C 
BRANCH   2   3
ATOM      3  C   UNL     1      -6.598  -0.935 123.423  0.00  0.00    +0.000 C 
BRANCH   3   4
ATOM      4  C   UNL     1      -7.307   0.413 123.477  0.00  0.00    +0.000 C 
BRANCH   4   5
ATOM      5  C   UNL     1      -7.514   0.916 124.908  0.00  0.00    +0.000 C 
BRANCH   5   7
ATOM      6  N   UNL     1      -7.546   3.337 124.722  0.00  0.00    +0.000 N 
ATOM      7  C   UNL     1      -8.313   2.209 124.906  0.00  0.00    +0.000 C 
ATOM      8  O   UNL     1      -9.536   2.227 125.058  0.00  0.00    +0.000 OA
ATOM      9  H   UNL     1      -6.541   3.340 124.596  0.00  0.00    +0.000 HD
BRANCH   6  10
ATOM     10  O   UNL     1      -8.252   4.560 124.714  0.00  0.00    +0.000 OA
ATOM     11  H   UNL     1      -9.094   4.357 124.275  0.00  0.00    +0.000 HD
ENDBRANCH   6  10
ENDBRANCH   5   7
ENDBRANCH   4   5
ENDBRANCH   3   4
ENDBRANCH   2   3
ENDBRANCH   1   2
BRANCH   1  12
ATOM     12  C   UNL     1      -9.443  -3.134 123.404  0.00  0.00    +0.000 C 
BRANCH  12  13
ATOM     13  C   UNL     1      -8.697  -3.478 124.684  0.00  0.00    +0.000 C 
ATOM     14  O   UNL     1      -8.034  -4.513 124.766  0.00  0.00    +0.000 OA
ATOM     15  N   UNL     1      -8.853  -2.579 125.727  0.00  0.00    +0.000 N 
ATOM     16  H   UNL     1      -9.579  -1.875 125.678  0.00  0.00    +0.000 HD
BRANCH  15  17
ATOM     17  C   UNL     1      -8.168  -2.738 126.956  0.00  0.00    +0.000 A 
ATOM     18  C   UNL     1      -8.729  -3.487 127.993  0.00  0.00    +0.000 A 
ATOM     19  C   UNL     1      -8.058  -3.591 129.221  0.00  0.00    +0.000 A 
ATOM     20  C   UNL     1      -6.822  -2.971 129.407  0.00  0.00    +0.000 A 
ATOM     21  C   UNL     1      -6.264  -2.223 128.376  0.00  0.00    +0.000 A 
ATOM     22  C   UNL     1      -6.935  -2.109 127.161  0.00  0.00    +0.000 A 
ENDBRANCH  15  17
ENDBRANCH  12  13
ENDBRANCH   1  12
TORSDOF 9
ENDMDL
MODEL 7
REMARK VINA RESULT:      -6.1      2.405      3.155
REMARK  Name = Vorinostat
REMARK  9 active torsions:
REMARK  status: ('A' for Active; 'I' for Inactive)
REMARK    1  A    between atoms: O_1  and  N_2
REMARK    2  A    between atoms: C_3  and  C_5
REMARK    3  A    between atoms: C_5  and  C_6
REMARK    4  A    between atoms: C_6  and  C_7
REMARK    5  A    between atoms: C_7  and  C_8
REMARK    6  A    between atoms: C_8  and  C_9
REMARK    7  A    between atoms: C_9  and  C_10
REMARK    8  A    between atoms: C_10  and  C_11
REMARK    9  A    between atoms: N_13  and  C_14
REMARK                            x       y       z     vdW  Elec       q    Type
REMARK                         _______ _______ _______ _____ _____    ______ ____
ROOT
ATOM      1  C   UNL     1      -7.180   0.863 124.058  0.00  0.00    +0.000 C 
ENDROOT
BRANCH   1   2
ATOM      2  C   UNL     1      -8.040   1.570 123.021  0.00  0.00    +0.000 C 
BRANCH   2   3
ATOM      3  C   UNL     1      -7.770   3.079 123.031  0.00  0.00    +0.000 C 
BRANCH   3   4
ATOM      4  C   UNL     1      -6.385   3.377 122.468  0.00  0.00    +0.000 C 
BRANCH   4   5
ATOM      5  C   UNL     1      -6.375   3.469 120.941  0.00  0.00    +0.000 C 
BRANCH   5   7
ATOM      6  N   UNL     1      -4.752   5.196 121.471  0.00  0.00    +0.000 N 
ATOM      7  C   UNL     1      -5.550   4.663 120.486  0.00  0.00    +0.000 C 
ATOM      8  O   UNL     1      -5.606   5.101 119.335  0.00  0.00    +0.000 OA
ATOM      9  H   UNL     1      -4.694   4.848 122.421  0.00  0.00    +0.000 HD
BRANCH   6  10
ATOM     10  O   UNL     1      -3.968   6.307 121.089  0.00  0.00    +0.000 OA
ATOM     11  H   UNL     1      -4.596   6.922 120.676  0.00  0.00    +0.000 HD
ENDBRANCH   6  10
ENDBRANCH   5   7
ENDBRANCH   4   5
ENDBRANCH   3   4
ENDBRANCH   2   3
ENDBRANCH   1   2
BRANCH   1  12
ATOM     12  C   UNL     1      -6.758  -0.550 123.629  0.00  0.00    +0.000 C 
BRANCH  12  13
ATOM     13  C   UNL     1      -6.863  -1.482 124.827  0.00  0.00    +0.000 C 
ATOM     14  O   UNL     1      -6.008  -2.345 125.029  0.00  0.00    +0.000 OA
ATOM     15  N   UNL     1      -7.985  -1.308 125.622  0.00  0.00    +0.000 N 
ATOM     16  H   UNL     1      -8.756  -0.744 125.286  0.00  0.00    +0.000 HD
BRANCH  15  17
ATOM     17  C   UNL     1      -8.183  -2.061 126.804  0.00  0.00    +0.000 A 
ATOM     18  C   UNL     1      -7.595  -1.666 128.009  0.00  0.00    +0.000 A 
ATOM     19  C   UNL     1      -7.761  -2.454 129.158  0.00  0.00    +0.000 A 
ATOM     20  C   UNL     1      -8.531  -3.617 129.114  0.00  0.00    +0.000 A 
ATOM     21  C   UNL     1      -9.115  -4.012 127.916  0.00  0.00    +0.000 A 
ATOM     22  C   UNL     1      -8.940  -3.237 126.771  0.00  0.00    +0.000 A 
ENDBRANCH  15  17
ENDBRANCH  12  13
ENDBRANCH   1  12
TORSDOF 9
ENDMDL
MODEL 8
REMARK VINA RESULT:      -6.0      9.215     11.392
REMARK  Name = Vorinostat
REMARK  9 active torsions:
REMARK  status: ('A' for Active; 'I' for Inactive)
REMARK    1  A    between atoms: O_1  and  N_2
REMARK    2  A    between atoms: C_3  and  C_5
REMARK    3  A    between atoms: C_5  and  C_6
REMARK    4  A    between atoms: C_6  and  C_7
REMARK    5  A    between atoms: C_7  and  C_8
REMARK    6  A    between atoms: C_8  and  C_9
REMARK    7  A    between atoms: C_9  and  C_10
REMARK    8  A    between atoms: C_10  and  C_11
REMARK    9  A    between atoms: N_13  and  C_14
REMARK                            x       y       z     vdW  Elec       q    Type
REMARK                         _______ _______ _______ _____ _____    ______ ____
ROOT
ATOM      1  C   UNL     1      -8.624   2.653 131.406  0.00  0.00    +0.000 C 
ENDROOT
BRANCH   1   2
ATOM      2  C   UNL     1      -9.046   2.568 132.865  0.00  0.00    +0.000 C 
BRANCH   2   3
ATOM      3  C   UNL     1      -7.862   2.874 133.790  0.00  0.00    +0.000 C 
BRANCH   3   4
ATOM      4  C   UNL     1      -8.029   4.246 134.434  0.00  0.00    +0.000 C 
BRANCH   4   5
ATOM      5  C   UNL     1      -7.160   5.318 133.773  0.00  0.00    +0.000 C 
BRANCH   5   7
ATOM      6  N   UNL     1      -7.238   6.513 131.661  0.00  0.00    +0.000 N 
ATOM      7  C   UNL     1      -7.969   6.101 132.751  0.00  0.00    +0.000 C 
ATOM      8  O   UNL     1      -9.169   6.337 132.903  0.00  0.00    +0.000 OA
ATOM      9  H   UNL     1      -6.252   6.328 131.520  0.00  0.00    +0.000 HD
BRANCH   6  10
ATOM     10  O   UNL     1      -7.954   7.244 130.687  0.00  0.00    +0.000 OA
ATOM     11  H   UNL     1      -7.545   8.125 130.689  0.00  0.00    +0.000 HD
ENDBRANCH   6  10
ENDBRANCH   5   7
ENDBRANCH   4   5
ENDBRANCH   3   4
ENDBRANCH   2   3
ENDBRANCH   1   2
BRANCH   1  12
ATOM     12  C   UNL     1      -9.812   2.772 130.441  0.00  0.00    +0.000 C 
BRANCH  12  13
ATOM     13  C   UNL     1     -10.122   4.245 130.218  0.00  0.00    +0.000 C 
ATOM     14  O   UNL     1      -9.256   5.013 129.798  0.00  0.00    +0.000 OA
ATOM     15  N   UNL     1     -11.408   4.642 130.553  0.00  0.00    +0.000 N 
ATOM     16  H   UNL     1     -11.997   4.025 131.097  0.00  0.00    +0.000 HD
BRANCH  15  17
ATOM     17  C   UNL     1     -11.856   5.968 130.340  0.00  0.00    +0.000 A 
ATOM     18  C   UNL     1     -12.212   6.783 131.418  0.00  0.00    +0.000 A 
ATOM     19  C   UNL     1     -12.703   8.076 131.184  0.00  0.00    +0.000 A 
ATOM     20  C   UNL     1     -12.815   8.565 129.882  0.00  0.00    +0.000 A 
ATOM     21  C   UNL     1     -12.463   7.755 128.808  0.00  0.00    +0.000 A 
ATOM     22  C   UNL     1     -11.988   6.466 129.039  0.00  0.00    +0.000 A 
ENDBRANCH  15  17
ENDBRANCH  12  13
ENDBRANCH   1  12
TORSDOF 9
ENDMDL
MODEL 9
REMARK VINA RESULT:      -6.0      8.206     11.271
REMARK  Name = Vorinostat
REMARK  9 active torsions:
REMARK  status: ('A' for Active; 'I' for Inactive)
REMARK    1  A    between atoms: O_1  and  N_2
REMARK    2  A    between atoms: C_3  and  C_5
REMARK    3  A    between atoms: C_5  and  C_6
REMARK    4  A    between atoms: C_6  and  C_7
REMARK    5  A    between atoms: C_7  and  C_8
REMARK    6  A    between atoms: C_8  and  C_9
REMARK    7  A    between atoms: C_9  and  C_10
REMARK    8  A    between atoms: C_10  and  C_11
REMARK    9  A    between atoms: N_13  and  C_14
REMARK                            x       y       z     vdW  Elec       q    Type
REMARK                         _______ _______ _______ _____ _____    ______ ____
ROOT
ATOM      1  C   UNL     1      -7.418   3.376 129.562  0.00  0.00    +0.000 C 
ENDROOT
BRANCH   1   2
ATOM      2  C   UNL     1      -7.401   2.299 130.636  0.00  0.00    +0.000 C 
BRANCH   2   3
ATOM      3  C   UNL     1      -8.714   1.507 130.628  0.00  0.00    +0.000 C 
BRANCH   3   4
ATOM      4  C   UNL     1      -9.504   1.771 131.905  0.00  0.00    +0.000 C 
BRANCH   4   5
ATOM      5  C   UNL     1      -8.631   2.307 133.041  0.00  0.00    +0.000 C 
BRANCH   5   7
ATOM      6  N   UNL     1     -10.028   4.250 132.632  0.00  0.00    +0.000 N 
ATOM      7  C   UNL     1      -9.127   3.671 133.494  0.00  0.00    +0.000 C 
ATOM      8  O   UNL     1      -8.743   4.195 134.542  0.00  0.00    +0.000 OA
ATOM      9  H   UNL     1     -10.354   3.834 131.768  0.00  0.00    +0.000 HD
BRANCH   6  10
ATOM     10  O   UNL     1     -10.514   5.519 133.018  0.00  0.00    +0.000 OA
ATOM     11  H   UNL     1      -9.891   6.152 132.626  0.00  0.00    +0.000 HD
ENDBRANCH   6  10
ENDBRANCH   5   7
ENDBRANCH   4   5
ENDBRANCH   3   4
ENDBRANCH   2   3
ENDBRANCH   1   2
BRANCH   1  12
ATOM     12  C   UNL     1      -7.707   4.778 130.119  0.00  0.00    +0.000 C 
BRANCH  12  13
ATOM     13  C   UNL     1      -8.842   5.402 129.322  0.00  0.00    +0.000 C 
ATOM     14  O   UNL     1      -8.959   5.183 128.116  0.00  0.00    +0.000 OA
ATOM     15  N   UNL     1      -9.683   6.242 130.037  0.00  0.00    +0.000 N 
ATOM     16  H   UNL     1      -9.410   6.557 130.959  0.00  0.00    +0.000 HD
BRANCH  15  17
ATOM     17  C   UNL     1     -10.818   6.842 129.441  0.00  0.00    +0.000 A 
ATOM     18  C   UNL     1     -10.719   8.085 128.811  0.00  0.00    +0.000 A 
ATOM     19  C   UNL     1     -11.865   8.687 128.270  0.00  0.00    +0.000 A 
ATOM     20  C   UNL     1     -13.101   8.042 128.336  0.00  0.00    +0.000 A 
ATOM     21  C   UNL     1     -13.201   6.806 128.965  0.00  0.00    +0.000 A 
ATOM     22  C   UNL     1     -12.066   6.213 129.513  0.00  0.00    +0.000 A 
ENDBRANCH  15  17
ENDBRANCH  12  13
ENDBRANCH   1  12
TORSDOF 9
ENDMDL
