MODEL 1
REMARK VINA RESULT:      -7.5      0.000      0.000
REMARK  Name = Vortioxetine
REMARK  5 active torsions:
REMARK  status: ('A' for Active; 'I' for Inactive)
REMARK    1  A    between atoms: C_1  and  C_2
REMARK    2  A    between atoms: C_5  and  S_6
REMARK    3  A    between atoms: S_6  and  C_7
REMARK    4  A    between atoms: C_12  and  N_13
REMARK    5  A    between atoms: C_19  and  C_20
REMARK                            x       y       z     vdW  Elec       q    Type
REMARK                         _______ _______ _______ _____ _____    ______ ____
ROOT
ATOM      1  C   UNL     1      -7.422  -1.778 124.938  0.00  0.00    +0.000 A 
ATOM      2  C   UNL     1      -6.692  -2.981 124.999  0.00  0.00    +0.000 A 
ATOM      3  C   UNL     1      -5.816  -3.356 123.992  0.00  0.00    +0.000 A 
ATOM      4  C   UNL     1      -5.699  -2.538 122.872  0.00  0.00    +0.000 A 
ATOM      5  C   UNL     1      -6.435  -1.347 122.790  0.00  0.00    +0.000 A 
ATOM      6  C   UNL     1      -7.295  -0.904 123.819  0.00  0.00    +0.000 A 
ENDROOT
BRANCH   6   7
ATOM      7  N   UNL     1      -7.943   0.310 123.684  0.00  0.00    +0.000 N 
ATOM      8  C   UNL     1      -9.339   0.423 123.236  0.00  0.00    +0.000 C 
ATOM      9  C   UNL     1     -10.124   1.318 124.225  0.00  0.00    +0.000 C 
ATOM     10  N   UNL     1      -9.543   2.612 124.632  0.00  0.00    +0.000 NA
ATOM     11  C   UNL     1      -8.116   2.419 124.982  0.00  0.00    +0.000 C 
ATOM     12  C   UNL     1      -7.298   1.601 123.963  0.00  0.00    +0.000 C 
ATOM     13  H   UNL     1     -10.015   2.872 125.505  0.00  0.00    +0.000 HD
ENDBRANCH   6   7
BRANCH   1  14
ATOM     14  S   UNL     1      -8.432  -1.531 126.391  0.00  0.00    +0.000 S 
BRANCH  14  19
ATOM     15  C   UNL     1      -4.900  -3.885 130.787  0.00  0.00    +0.000 C 
ATOM     16  C   UNL     1      -5.839  -3.224 129.821  0.00  0.00    +0.000 A 
ATOM     17  C   UNL     1      -5.470  -2.037 129.181  0.00  0.00    +0.000 A 
ATOM     18  C   UNL     1      -6.289  -1.479 128.186  0.00  0.00    +0.000 A 
ATOM     19  C   UNL     1      -7.495  -2.091 127.811  0.00  0.00    +0.000 A 
ATOM     20  C   UNL     1      -7.909  -3.257 128.501  0.00  0.00    +0.000 A 
ATOM     21  C   UNL     1      -9.176  -4.008 128.160  0.00  0.00    +0.000 C 
ATOM     22  C   UNL     1      -7.073  -3.807 129.500  0.00  0.00    +0.000 A 
ENDBRANCH  14  19
ENDBRANCH   1  14
TORSDOF 3
ENDMDL
MODEL 2
REMARK VINA RESULT:      -7.0      2.911      5.421
REMARK  Name = Vortioxetine
REMARK  5 active torsions:
REMARK  status: ('A' for Active; 'I' for Inactive)
REMARK    1  A    between atoms: C_1  and  C_2
REMARK    2  A    between atoms: C_5  and  S_6
REMARK    3  A    between atoms: S_6  and  C_7
REMARK    4  A    between atoms: C_12  and  N_13
REMARK    5  A    between atoms: C_19  and  C_20
REMARK                            x       y       z     vdW  Elec       q    Type
REMARK                         _______ _______ _______ _____ _____    ______ ____
ROOT
ATOM      1  C   UNL     1      -6.787   2.033 123.987  0.00  0.00    +0.000 A 
ATOM      2  C   UNL     1      -6.957   2.264 122.608  0.00  0.00    +0.000 A 
ATOM      3  C   UNL     1      -6.353   3.333 121.966  0.00  0.00    +0.000 A 
ATOM      4  C   UNL     1      -5.600   4.225 122.724  0.00  0.00    +0.000 A 
ATOM      5  C   UNL     1      -5.439   4.018 124.102  0.00  0.00    +0.000 A 
ATOM      6  C   UNL     1      -5.992   2.911 124.780  0.00  0.00    +0.000 A 
ENDROOT
BRANCH   6   7
ATOM      7  N   UNL     1      -5.740   2.750 126.131  0.00  0.00    +0.000 N 
ATOM      8  C   UNL     1      -4.470   2.218 126.647  0.00  0.00    +0.000 C 
ATOM      9  C   UNL     1      -3.924   3.168 127.741  0.00  0.00    +0.000 C 
ATOM     10  N   UNL     1      -4.834   3.624 128.809  0.00  0.00    +0.000 NA
ATOM     11  C   UNL     1      -6.116   4.059 128.207  0.00  0.00    +0.000 C 
ATOM     12  C   UNL     1      -6.718   3.083 127.176  0.00  0.00    +0.000 C 
ATOM     13  H   UNL     1      -4.406   4.469 129.203  0.00  0.00    +0.000 HD
ENDBRANCH   6   7
BRANCH   1  14
ATOM     14  S   UNL     1      -7.640   0.560 124.532  0.00  0.00    +0.000 S 
BRANCH  14  19
ATOM     15  C   UNL     1      -4.556  -4.630 123.583  0.00  0.00    +0.000 C 
ATOM     16  C   UNL     1      -5.177  -3.280 123.796  0.00  0.00    +0.000 A 
ATOM     17  C   UNL     1      -5.722  -2.578 122.718  0.00  0.00    +0.000 A 
ATOM     18  C   UNL     1      -6.412  -1.373 122.927  0.00  0.00    +0.000 A 
ATOM     19  C   UNL     1      -6.569  -0.840 124.216  0.00  0.00    +0.000 A 
ATOM     20  C   UNL     1      -5.962  -1.511 125.307  0.00  0.00    +0.000 A 
ATOM     21  C   UNL     1      -6.090  -1.038 126.738  0.00  0.00    +0.000 C 
ATOM     22  C   UNL     1      -5.271  -2.723 125.079  0.00  0.00    +0.000 A 
ENDBRANCH  14  19
ENDBRANCH   1  14
TORSDOF 3
ENDMDL
MODEL 3
REMARK VINA RESULT:      -7.0      1.639      2.207
REMARK  Name = Vortioxetine
REMARK  5 active torsions:
REMARK  status: ('A' for Active; 'I' for Inactive)
REMARK    1  A    between atoms: C_1  and  C_2
REMARK    2  A    between atoms: C_5  and  S_6
REMARK    3  A    between atoms: S_6  and  C_7
REMARK    4  A    between atoms: C_12  and  N_13
REMARK    5  A    between atoms: C_19  and  C_20
REMARK                            x       y       z     vdW  Elec       q    Type
REMARK                         _______ _______ _______ _____ _____    ______ ____
ROOT
ATOM      1  C   UNL     1      -8.688  -1.417 125.323  0.00  0.00    +0.000 A 
ATOM      2  C   UNL     1      -8.970  -2.790 125.471  0.00  0.00    +0.000 A 
ATOM      3  C   UNL     1      -9.262  -3.598 124.384  0.00  0.00    +0.000 A 
ATOM      4  C   UNL     1      -9.323  -3.017 123.121  0.00  0.00    +0.000 A 
ATOM      5  C   UNL     1      -9.064  -1.648 122.961  0.00  0.00    +0.000 A 
ATOM      6  C   UNL     1      -8.709  -0.805 124.036  0.00  0.00    +0.000 A 
ENDROOT
BRANCH   6   7
ATOM      7  N   UNL     1      -8.415   0.523 123.786  0.00  0.00    +0.000 N 
ATOM      8  C   UNL     1      -9.432   1.585 123.819  0.00  0.00    +0.000 C 
ATOM      9  C   UNL     1      -8.934   2.745 124.715  0.00  0.00    +0.000 C 
ATOM     10  N   UNL     1      -7.566   3.263 124.518  0.00  0.00    +0.000 NA
ATOM     11  C   UNL     1      -6.623   2.125 124.410  0.00  0.00    +0.000 C 
ATOM     12  C   UNL     1      -7.064   0.999 123.453  0.00  0.00    +0.000 C 
ATOM     13  H   UNL     1      -7.321   3.751 125.386  0.00  0.00    +0.000 HD
ENDBRANCH   6   7
BRANCH   1  14
ATOM     14  S   UNL     1      -8.301  -0.638 126.884  0.00  0.00    +0.000 S 
BRANCH  14  19
ATOM     15  C   UNL     1      -5.349  -4.244 130.836  0.00  0.00    +0.000 C 
ATOM     16  C   UNL     1      -6.093  -3.487 129.776  0.00  0.00    +0.000 A 
ATOM     17  C   UNL     1      -7.480  -3.339 129.858  0.00  0.00    +0.000 A 
ATOM     18  C   UNL     1      -8.167  -2.530 128.939  0.00  0.00    +0.000 A 
ATOM     19  C   UNL     1      -7.485  -1.854 127.915  0.00  0.00    +0.000 A 
ATOM     20  C   UNL     1      -6.088  -2.052 127.784  0.00  0.00    +0.000 A 
ATOM     21  C   UNL     1      -5.254  -1.354 126.733  0.00  0.00    +0.000 C 
ATOM     22  C   UNL     1      -5.411  -2.869 128.718  0.00  0.00    +0.000 A 
ENDBRANCH  14  19
ENDBRANCH   1  14
TORSDOF 3
ENDMDL
MODEL 4
REMARK VINA RESULT:      -6.9      2.513      5.005
REMARK  Name = Vortioxetine
REMARK  5 active torsions:
REMARK  status: ('A' for Active; 'I' for Inactive)
REMARK    1  A    between atoms: C_1  and  C_2
REMARK    2  A    between atoms: C_5  and  S_6
REMARK    3  A    between atoms: S_6  and  C_7
REMARK    4  A    between atoms: C_12  and  N_13
REMARK    5  A    between atoms: C_19  and  C_20
REMARK                            x       y       z     vdW  Elec       q    Type
REMARK                         _______ _______ _______ _____ _____    ______ ____
ROOT
ATOM      1  C   UNL     1      -7.709   1.875 124.919  0.00  0.00    +0.000 A 
ATOM      2  C   UNL     1      -7.594   2.037 126.313  0.00  0.00    +0.000 A 
ATOM      3  C   UNL     1      -7.093   3.201 126.876  0.00  0.00    +0.000 A 
ATOM      4  C   UNL     1      -6.649   4.212 126.027  0.00  0.00    +0.000 A 
ATOM      5  C   UNL     1      -6.740   4.056 124.637  0.00  0.00    +0.000 A 
ATOM      6  C   UNL     1      -7.295   2.909 124.029  0.00  0.00    +0.000 A 
ENDROOT
BRANCH   6   7
ATOM      7  N   UNL     1      -7.399   2.857 122.651  0.00  0.00    +0.000 N 
ATOM      8  C   UNL     1      -8.689   2.749 121.952  0.00  0.00    +0.000 C 
ATOM      9  C   UNL     1      -8.771   3.839 120.856  0.00  0.00    +0.000 C 
ATOM     10  N   UNL     1      -7.630   4.013 119.936  0.00  0.00    +0.000 NA
ATOM     11  C   UNL     1      -6.370   4.024 120.716  0.00  0.00    +0.000 C 
ATOM     12  C   UNL     1      -6.235   2.893 121.755  0.00  0.00    +0.000 C 
ATOM     13  H   UNL     1      -7.726   4.956 119.542  0.00  0.00    +0.000 HD
ENDBRANCH   6   7
BRANCH   1  14
ATOM     14  S   UNL     1      -8.429   0.299 124.483  0.00  0.00    +0.000 S 
BRANCH  14  19
ATOM     15  C   UNL     1      -4.359  -4.154 123.510  0.00  0.00    +0.000 C 
ATOM     16  C   UNL     1      -5.236  -2.963 123.763  0.00  0.00    +0.000 A 
ATOM     17  C   UNL     1      -5.716  -2.202 122.694  0.00  0.00    +0.000 A 
ATOM     18  C   UNL     1      -6.634  -1.162 122.914  0.00  0.00    +0.000 A 
ATOM     19  C   UNL     1      -7.090  -0.857 124.205  0.00  0.00    +0.000 A 
ATOM     20  C   UNL     1      -6.557  -1.579 125.302  0.00  0.00    +0.000 A 
ATOM     21  C   UNL     1      -6.996  -1.348 126.731  0.00  0.00    +0.000 C 
ATOM     22  C   UNL     1      -5.634  -2.623 125.064  0.00  0.00    +0.000 A 
ENDBRANCH  14  19
ENDBRANCH   1  14
TORSDOF 3
ENDMDL
MODEL 5
REMARK VINA RESULT:      -6.8      3.472      5.490
REMARK  Name = Vortioxetine
REMARK  5 active torsions:
REMARK  status: ('A' for Active; 'I' for Inactive)
REMARK    1  A    between atoms: C_1  and  C_2
REMARK    2  A    between atoms: C_5  and  S_6
REMARK    3  A    between atoms: S_6  and  C_7
REMARK    4  A    between atoms: C_12  and  N_13
REMARK    5  A    between atoms: C_19  and  C_20
REMARK                            x       y       z     vdW  Elec       q    Type
REMARK                         _______ _______ _______ _____ _____    ______ ____
ROOT
ATOM      1  C   UNL     1      -7.113   3.226 122.843  0.00  0.00    +0.000 A 
ATOM      2  C   UNL     1      -7.054   3.368 121.443  0.00  0.00    +0.000 A 
ATOM      3  C   UNL     1      -5.989   3.995 120.815  0.00  0.00    +0.000 A 
ATOM      4  C   UNL     1      -4.979   4.539 121.604  0.00  0.00    +0.000 A 
ATOM      5  C   UNL     1      -5.035   4.422 123.000  0.00  0.00    +0.000 A 
ATOM      6  C   UNL     1      -6.074   3.742 123.672  0.00  0.00    +0.000 A 
ENDROOT
BRANCH   6   7
ATOM      7  N   UNL     1      -6.027   3.624 125.049  0.00  0.00    +0.000 N 
ATOM      8  C   UNL     1      -6.762   4.521 125.952  0.00  0.00    +0.000 C 
ATOM      9  C   UNL     1      -7.569   3.677 126.969  0.00  0.00    +0.000 C 
ATOM     10  N   UNL     1      -6.891   2.575 127.678  0.00  0.00    +0.000 NA
ATOM     11  C   UNL     1      -6.107   1.777 126.706  0.00  0.00    +0.000 C 
ATOM     12  C   UNL     1      -5.231   2.600 125.740  0.00  0.00    +0.000 C 
ATOM     13  H   UNL     1      -7.636   1.956 128.016  0.00  0.00    +0.000 HD
ENDBRANCH   6   7
BRANCH   1  14
ATOM     14  S   UNL     1      -8.572   2.338 123.367  0.00  0.00    +0.000 S 
BRANCH  14  19
ATOM     15  C   UNL     1      -7.389  -3.563 124.425  0.00  0.00    +0.000 C 
ATOM     16  C   UNL     1      -7.569  -2.081 124.272  0.00  0.00    +0.000 A 
ATOM     17  C   UNL     1      -6.843  -1.380 123.306  0.00  0.00    +0.000 A 
ATOM     18  C   UNL     1      -7.094  -0.018 123.074  0.00  0.00    +0.000 A 
ATOM     19  C   UNL     1      -8.072   0.674 123.804  0.00  0.00    +0.000 A 
ATOM     20  C   UNL     1      -8.766  -0.012 124.832  0.00  0.00    +0.000 A 
ATOM     21  C   UNL     1      -9.855   0.631 125.661  0.00  0.00    +0.000 C 
ATOM     22  C   UNL     1      -8.501  -1.383 125.052  0.00  0.00    +0.000 A 
ENDBRANCH  14  19
ENDBRANCH   1  14
TORSDOF 3
ENDMDL
MODEL 6
REMARK VINA RESULT:      -6.7      3.996      7.676
REMARK  Name = Vortioxetine
REMARK  5 active torsions:
REMARK  status: ('A' for Active; 'I' for Inactive)
REMARK    1  A    between atoms: C_1  and  C_2
REMARK    2  A    between atoms: C_5  and  S_6
REMARK    3  A    between atoms: S_6  and  C_7
REMARK    4  A    between atoms: C_12  and  N_13
REMARK    5  A    between atoms: C_19  and  C_20
REMARK                            x       y       z     vdW  Elec       q    Type
REMARK                         _______ _______ _______ _____ _____    ______ ____
ROOT
ATOM      1  C   UNL     1      -7.007  -2.751 132.639  0.00  0.00    +0.000 A 
ATOM      2  C   UNL     1      -7.983  -2.989 133.626  0.00  0.00    +0.000 A 
ATOM      3  C   UNL     1      -7.881  -4.048 134.515  0.00  0.00    +0.000 A 
ATOM      4  C   UNL     1      -6.805  -4.922 134.387  0.00  0.00    +0.000 A 
ATOM      5  C   UNL     1      -5.837  -4.708 133.396  0.00  0.00    +0.000 A 
ATOM      6  C   UNL     1      -5.877  -3.610 132.509  0.00  0.00    +0.000 A 
ENDROOT
BRANCH   6   7
ATOM      7  N   UNL     1      -4.853  -3.440 131.596  0.00  0.00    +0.000 N 
ATOM      8  C   UNL     1      -4.797  -4.165 130.317  0.00  0.00    +0.000 C 
ATOM      9  C   UNL     1      -4.563  -3.156 129.166  0.00  0.00    +0.000 C 
ATOM     10  N   UNL     1      -3.494  -2.149 129.305  0.00  0.00    +0.000 NA
ATOM     11  C   UNL     1      -3.574  -1.533 130.650  0.00  0.00    +0.000 C 
ATOM     12  C   UNL     1      -3.720  -2.530 131.818  0.00  0.00    +0.000 C 
ATOM     13  H   UNL     1      -3.721  -1.403 128.639  0.00  0.00    +0.000 HD
ENDBRANCH   6   7
BRANCH   1  14
ATOM     14  S   UNL     1      -7.372  -1.294 131.670  0.00  0.00    +0.000 S 
BRANCH  14  19
ATOM     15  C   UNL     1      -8.290  -3.346 125.987  0.00  0.00    +0.000 C 
ATOM     16  C   UNL     1      -8.213  -2.790 127.380  0.00  0.00    +0.000 A 
ATOM     17  C   UNL     1      -8.520  -3.598 128.478  0.00  0.00    +0.000 A 
ATOM     18  C   UNL     1      -8.333  -3.124 129.786  0.00  0.00    +0.000 A 
ATOM     19  C   UNL     1      -7.840  -1.832 130.027  0.00  0.00    +0.000 A 
ATOM     20  C   UNL     1      -7.590  -0.983 128.921  0.00  0.00    +0.000 A 
ATOM     21  C   UNL     1      -7.034   0.416 129.066  0.00  0.00    +0.000 C 
ATOM     22  C   UNL     1      -7.782  -1.476 127.609  0.00  0.00    +0.000 A 
ENDBRANCH  14  19
ENDBRANCH   1  14
TORSDOF 3
ENDMDL
MODEL 7
REMARK VINA RESULT:      -6.6      6.883     10.266
REMARK  Name = Vortioxetine
REMARK  5 active torsions:
REMARK  status: ('A' for Active; 'I' for Inactive)
REMARK    1  A    between atoms: C_1  and  C_2
REMARK    2  A    between atoms: C_5  and  S_6
REMARK    3  A    between atoms: S_6  and  C_7
REMARK    4  A    between atoms: C_12  and  N_13
REMARK    5  A    between atoms: C_19  and  C_20
REMARK                            x       y       z     vdW  Elec       q    Type
REMARK                         _______ _______ _______ _____ _____    ______ ____
ROOT
ATOM      1  C   UNL     1      -8.989   5.418 130.331  0.00  0.00    +0.000 A 
ATOM      2  C   UNL     1      -8.655   6.481 131.193  0.00  0.00    +0.000 A 
ATOM      3  C   UNL     1      -7.339   6.816 131.466  0.00  0.00    +0.000 A 
ATOM      4  C   UNL     1      -6.326   6.043 130.904  0.00  0.00    +0.000 A 
ATOM      5  C   UNL     1      -6.644   4.971 130.059  0.00  0.00    +0.000 A 
ATOM      6  C   UNL     1      -7.970   4.633 129.715  0.00  0.00    +0.000 A 
ENDROOT
BRANCH   6   7
ATOM      7  N   UNL     1      -8.197   3.594 128.830  0.00  0.00    +0.000 N 
ATOM      8  C   UNL     1      -7.926   3.701 127.389  0.00  0.00    +0.000 C 
ATOM      9  C   UNL     1      -7.071   2.492 126.937  0.00  0.00    +0.000 C 
ATOM     10  N   UNL     1      -7.480   1.135 127.347  0.00  0.00    +0.000 NA
ATOM     11  C   UNL     1      -7.815   1.141 128.790  0.00  0.00    +0.000 C 
ATOM     12  C   UNL     1      -8.738   2.291 129.242  0.00  0.00    +0.000 C 
ATOM     13  H   UNL     1      -6.644   0.548 127.254  0.00  0.00    +0.000 HD
ENDBRANCH   6   7
BRANCH   1  14
ATOM     14  S   UNL     1     -10.756   5.246 130.128  0.00  0.00    +0.000 S 
BRANCH  14  19
ATOM     15  C   UNL     1     -13.672  10.534 129.194  0.00  0.00    +0.000 C 
ATOM     16  C   UNL     1     -12.837   9.321 129.482  0.00  0.00    +0.000 A 
ATOM     17  C   UNL     1     -12.965   8.652 130.702  0.00  0.00    +0.000 A 
ATOM     18  C   UNL     1     -12.280   7.448 130.931  0.00  0.00    +0.000 A 
ATOM     19  C   UNL     1     -11.449   6.888 129.950  0.00  0.00    +0.000 A 
ATOM     20  C   UNL     1     -11.260   7.594 128.736  0.00  0.00    +0.000 A 
ATOM     21  C   UNL     1     -10.406   7.069 127.603  0.00  0.00    +0.000 C 
ATOM     22  C   UNL     1     -11.958   8.804 128.520  0.00  0.00    +0.000 A 
ENDBRANCH  14  19
ENDBRANCH   1  14
TORSDOF 3
ENDMDL
MODEL 8
REMARK VINA RESULT:      -6.6      3.223      4.941
REMARK  Name = Vortioxetine
REMARK  5 active torsions:
REMARK  status: ('A' for Active; 'I' for Inactive)
REMARK    1  A    between atoms: C_1  and  C_2
REMARK    2  A    between atoms: C_5  and  S_6
REMARK    3  A    between atoms: S_6  and  C_7
REMARK    4  A    between atoms: C_12  and  N_13
REMARK    5  A    between atoms: C_19  and  C_20
REMARK                            x       y       z     vdW  Elec       q    Type
REMARK                         _______ _______ _______ _____ _____    ______ ____
ROOT
ATOM      1  C   UNL     1      -7.339   1.389 124.469  0.00  0.00    +0.000 A 
ATOM      2  C   UNL     1      -7.420   1.629 123.084  0.00  0.00    +0.000 A 
ATOM      3  C   UNL     1      -6.768   2.695 122.486  0.00  0.00    +0.000 A 
ATOM      4  C   UNL     1      -6.055   3.576 123.294  0.00  0.00    +0.000 A 
ATOM      5  C   UNL     1      -5.982   3.361 124.678  0.00  0.00    +0.000 A 
ATOM      6  C   UNL     1      -6.586   2.256 125.315  0.00  0.00    +0.000 A 
ENDROOT
BRANCH   6   7
ATOM      7  N   UNL     1      -6.420   2.086 126.678  0.00  0.00    +0.000 N 
ATOM      8  C   UNL     1      -5.262   1.390 127.259  0.00  0.00    +0.000 C 
ATOM      9  C   UNL     1      -4.637   2.273 128.366  0.00  0.00    +0.000 C 
ATOM     10  N   UNL     1      -5.520   2.872 129.385  0.00  0.00    +0.000 NA
ATOM     11  C   UNL     1      -6.700   3.472 128.718  0.00  0.00    +0.000 C 
ATOM     12  C   UNL     1      -7.387   2.572 127.672  0.00  0.00    +0.000 C 
ATOM     13  H   UNL     1      -4.995   3.656 129.788  0.00  0.00    +0.000 HD
ENDBRANCH   6   7
BRANCH   1  14
ATOM     14  S   UNL     1      -8.237  -0.078 124.952  0.00  0.00    +0.000 S 
BRANCH  14  19
ATOM     15  C   UNL     1      -4.552  -4.762 123.602  0.00  0.00    +0.000 C 
ATOM     16  C   UNL     1      -5.442  -3.654 124.085  0.00  0.00    +0.000 A 
ATOM     17  C   UNL     1      -4.905  -2.397 124.377  0.00  0.00    +0.000 A 
ATOM     18  C   UNL     1      -5.745  -1.322 124.710  0.00  0.00    +0.000 A 
ATOM     19  C   UNL     1      -7.138  -1.479 124.763  0.00  0.00    +0.000 A 
ATOM     20  C   UNL     1      -7.686  -2.766 124.534  0.00  0.00    +0.000 A 
ATOM     21  C   UNL     1      -9.174  -3.040 124.542  0.00  0.00    +0.000 C 
ATOM     22  C   UNL     1      -6.827  -3.838 124.199  0.00  0.00    +0.000 A 
ENDBRANCH  14  19
ENDBRANCH   1  14
TORSDOF 3
ENDMDL
MODEL 9
REMARK VINA RESULT:      -6.6      2.483      6.526
REMARK  Name = Vortioxetine
REMARK  5 active torsions:
REMARK  status: ('A' for Active; 'I' for Inactive)
REMARK    1  A    between atoms: C_1  and  C_2
REMARK    2  A    between atoms: C_5  and  S_6
REMARK    3  A    between atoms: S_6  and  C_7
REMARK    4  A    between atoms: C_12  and  N_13
REMARK    5  A    between atoms: C_19  and  C_20
REMARK                            x       y       z     vdW  Elec       q    Type
REMARK                         _______ _______ _______ _____ _____    ______ ____
ROOT
ATOM      1  C   UNL     1      -8.526  -1.013 125.270  0.00  0.00    +0.000 A 
ATOM      2  C   UNL     1      -9.080  -1.225 123.992  0.00  0.00    +0.000 A 
ATOM      3  C   UNL     1      -9.047  -2.466 123.377  0.00  0.00    +0.000 A 
ATOM      4  C   UNL     1      -8.403  -3.514 124.028  0.00  0.00    +0.000 A 
ATOM      5  C   UNL     1      -7.830  -3.313 125.293  0.00  0.00    +0.000 A 
ATOM      6  C   UNL     1      -7.893  -2.078 125.974  0.00  0.00    +0.000 A 
ENDROOT
BRANCH   6   7
ATOM      7  N   UNL     1      -7.351  -1.977 127.243  0.00  0.00    +0.000 N 
ATOM      8  C   UNL     1      -8.042  -2.465 128.446  0.00  0.00    +0.000 C 
ATOM      9  C   UNL     1      -7.080  -3.366 129.260  0.00  0.00    +0.000 C 
ATOM     10  N   UNL     1      -5.713  -2.884 129.536  0.00  0.00    +0.000 NA
ATOM     11  C   UNL     1      -5.128  -2.333 128.291  0.00  0.00    +0.000 C 
ATOM     12  C   UNL     1      -6.042  -1.365 127.512  0.00  0.00    +0.000 C 
ATOM     13  H   UNL     1      -5.160  -3.717 129.763  0.00  0.00    +0.000 HD
ENDBRANCH   6   7
BRANCH   1  14
ATOM     14  S   UNL     1      -8.756   0.667 125.832  0.00  0.00    +0.000 S 
BRANCH  14  19
ATOM     15  C   UNL     1      -6.779   3.813 120.980  0.00  0.00    +0.000 C 
ATOM     16  C   UNL     1      -7.293   3.180 122.240  0.00  0.00    +0.000 A 
ATOM     17  C   UNL     1      -8.644   2.846 122.360  0.00  0.00    +0.000 A 
ATOM     18  C   UNL     1      -9.109   2.143 123.483  0.00  0.00    +0.000 A 
ATOM     19  C   UNL     1      -8.236   1.762 124.513  0.00  0.00    +0.000 A 
ATOM     20  C   UNL     1      -6.877   2.155 124.432  0.00  0.00    +0.000 A 
ATOM     21  C   UNL     1      -5.847   1.776 125.473  0.00  0.00    +0.000 C 
ATOM     22  C   UNL     1      -6.425   2.861 123.294  0.00  0.00    +0.000 A 
ENDBRANCH  14  19
ENDBRANCH   1  14
TORSDOF 3
ENDMDL
