MODEL 1
REMARK VINA RESULT:      -7.1      0.000      0.000
REMARK  Name = Voxelotor
REMARK  9 active torsions:
REMARK  status: ('A' for Active; 'I' for Inactive)
REMARK    1  A    between atoms: C_1  and  C_2
REMARK    2  A    between atoms: C_2  and  C_3
REMARK    3  A    between atoms: C_2  and  N_4
REMARK    4  A    between atoms: C_8  and  C_9
REMARK    5  A    between atoms: C_10  and  C_11
REMARK    6  A    between atoms: C_11  and  O_12
REMARK    7  A    between atoms: O_12  and  C_13
REMARK    8  A    between atoms: C_17  and  O_18
REMARK    9  A    between atoms: C_19  and  C_20
REMARK                            x       y       z     vdW  Elec       q    Type
REMARK                         _______ _______ _______ _____ _____    ______ ____
ROOT
ATOM      1  C   UNL     1      -6.268   4.841 130.781  0.00  0.00    +0.000 A 
ATOM      2  C   UNL     1      -6.329   6.223 131.013  0.00  0.00    +0.000 A 
ATOM      3  C   UNL     1      -5.135   6.939 131.083  0.00  0.00    +0.000 A 
ATOM      4  C   UNL     1      -3.931   6.264 130.983  0.00  0.00    +0.000 A 
ATOM      5  C   UNL     1      -3.965   4.891 130.805  0.00  0.00    +0.000 A 
ATOM      6  N   UNL     1      -5.101   4.166 130.692  0.00  0.00    +0.000 NA
ENDROOT
BRANCH   1  11
ATOM      7  N   UNL     1      -8.139   3.376 131.655  0.00  0.00    +0.000 N 
ATOM      8  N   UNL     1      -9.198   2.645 131.225  0.00  0.00    +0.000 NA
ATOM      9  C   UNL     1      -9.162   2.779 129.898  0.00  0.00    +0.000 A 
ATOM     10  C   UNL     1      -8.130   3.632 129.474  0.00  0.00    +0.000 A 
ATOM     11  C   UNL     1      -7.450   3.993 130.624  0.00  0.00    +0.000 A 
BRANCH   7  13
ATOM     12  C   UNL     1      -9.125   3.810 133.877  0.00  0.00    +0.000 C 
ATOM     13  C   UNL     1      -7.875   3.467 133.088  0.00  0.00    +0.000 C 
ATOM     14  C   UNL     1      -7.179   2.235 133.671  0.00  0.00    +0.000 C 
ENDBRANCH   7  13
ENDBRANCH   1  11
BRANCH   2  15
ATOM     15  C   UNL     1      -7.648   6.898 131.228  0.00  0.00    +0.000 C 
BRANCH  15  16
ATOM     16  O   UNL     1      -8.383   7.165 130.051  0.00  0.00    +0.000 OA
BRANCH  16  17
ATOM     17  C   UNL     1      -9.750   7.204 130.184  0.00  0.00    +0.000 A 
ATOM     18  C   UNL     1     -10.121   6.493 131.341  0.00  0.00    +0.000 A 
ATOM     19  C   UNL     1     -11.451   6.367 131.724  0.00  0.00    +0.000 A 
ATOM     20  C   UNL     1     -12.441   6.981 130.970  0.00  0.00    +0.000 A 
ATOM     21  C   UNL     1     -12.093   7.703 129.829  0.00  0.00    +0.000 A 
ATOM     22  C   UNL     1     -10.756   7.809 129.394  0.00  0.00    +0.000 A 
BRANCH  21  23
ATOM     23  O   UNL     1     -13.089   8.306 129.105  0.00  0.00    +0.000 OA
ATOM     24  H   UNL     1     -12.716   8.986 128.520  0.00  0.00    +0.000 HD
ENDBRANCH  21  23
BRANCH  22  25
ATOM     25  C   UNL     1     -10.626   8.534 128.089  0.00  0.00    +0.000 C 
ATOM     26  O   UNL     1     -10.934   8.119 126.978  0.00  0.00    +0.000 OA
ENDBRANCH  22  25
ENDBRANCH  16  17
ENDBRANCH  15  16
ENDBRANCH   2  15
TORSDOF 7
ENDMDL
MODEL 2
REMARK VINA RESULT:      -7.0      1.591      3.484
REMARK  Name = Voxelotor
REMARK  9 active torsions:
REMARK  status: ('A' for Active; 'I' for Inactive)
REMARK    1  A    between atoms: C_1  and  C_2
REMARK    2  A    between atoms: C_2  and  C_3
REMARK    3  A    between atoms: C_2  and  N_4
REMARK    4  A    between atoms: C_8  and  C_9
REMARK    5  A    between atoms: C_10  and  C_11
REMARK    6  A    between atoms: C_11  and  O_12
REMARK    7  A    between atoms: O_12  and  C_13
REMARK    8  A    between atoms: C_17  and  O_18
REMARK    9  A    between atoms: C_19  and  C_20
REMARK                            x       y       z     vdW  Elec       q    Type
REMARK                         _______ _______ _______ _____ _____    ______ ____
ROOT
ATOM      1  C   UNL     1      -7.966   2.950 131.457  0.00  0.00    +0.000 A 
ATOM      2  C   UNL     1      -8.967   3.026 130.476  0.00  0.00    +0.000 A 
ATOM      3  C   UNL     1      -8.913   2.140 129.402  0.00  0.00    +0.000 A 
ATOM      4  C   UNL     1      -7.852   1.257 129.302  0.00  0.00    +0.000 A 
ATOM      5  C   UNL     1      -6.882   1.286 130.290  0.00  0.00    +0.000 A 
ATOM      6  N   UNL     1      -6.918   2.102 131.368  0.00  0.00    +0.000 NA
ENDROOT
BRANCH   1  11
ATOM      7  N   UNL     1      -7.377   5.040 132.761  0.00  0.00    +0.000 N 
ATOM      8  N   UNL     1      -7.502   5.585 133.996  0.00  0.00    +0.000 NA
ATOM      9  C   UNL     1      -8.138   4.645 134.698  0.00  0.00    +0.000 A 
ATOM     10  C   UNL     1      -8.473   3.528 133.916  0.00  0.00    +0.000 A 
ATOM     11  C   UNL     1      -7.947   3.782 132.661  0.00  0.00    +0.000 A 
BRANCH   7  13
ATOM     12  C   UNL     1      -7.639   6.885 131.140  0.00  0.00    +0.000 C 
ATOM     13  C   UNL     1      -6.726   5.813 131.706  0.00  0.00    +0.000 C 
ATOM     14  C   UNL     1      -5.374   6.404 132.114  0.00  0.00    +0.000 C 
ENDBRANCH   7  13
ENDBRANCH   1  11
BRANCH   2  15
ATOM     15  C   UNL     1     -10.035   4.071 130.563  0.00  0.00    +0.000 C 
BRANCH  15  16
ATOM     16  O   UNL     1     -10.149   4.906 129.429  0.00  0.00    +0.000 OA
BRANCH  16  17
ATOM     17  C   UNL     1     -10.926   6.029 129.578  0.00  0.00    +0.000 A 
ATOM     18  C   UNL     1     -11.548   5.996 130.840  0.00  0.00    +0.000 A 
ATOM     19  C   UNL     1     -12.398   7.012 131.260  0.00  0.00    +0.000 A 
ATOM     20  C   UNL     1     -12.618   8.105 130.435  0.00  0.00    +0.000 A 
ATOM     21  C   UNL     1     -11.999   8.165 129.187  0.00  0.00    +0.000 A 
ATOM     22  C   UNL     1     -11.169   7.127 128.718  0.00  0.00    +0.000 A 
BRANCH  21  23
ATOM     23  O   UNL     1     -12.229   9.259 128.392  0.00  0.00    +0.000 OA
ATOM     24  H   UNL     1     -12.649   8.988 127.559  0.00  0.00    +0.000 HD
ENDBRANCH  21  23
BRANCH  22  25
ATOM     25  C   UNL     1     -10.702   7.348 127.311  0.00  0.00    +0.000 C 
ATOM     26  O   UNL     1     -11.252   6.977 126.281  0.00  0.00    +0.000 OA
ENDBRANCH  22  25
ENDBRANCH  16  17
ENDBRANCH  15  16
ENDBRANCH   2  15
TORSDOF 7
ENDMDL
MODEL 3
REMARK VINA RESULT:      -6.9      1.109      2.057
REMARK  Name = Voxelotor
REMARK  9 active torsions:
REMARK  status: ('A' for Active; 'I' for Inactive)
REMARK    1  A    between atoms: C_1  and  C_2
REMARK    2  A    between atoms: C_2  and  C_3
REMARK    3  A    between atoms: C_2  and  N_4
REMARK    4  A    between atoms: C_8  and  C_9
REMARK    5  A    between atoms: C_10  and  C_11
REMARK    6  A    between atoms: C_11  and  O_12
REMARK    7  A    between atoms: O_12  and  C_13
REMARK    8  A    between atoms: C_17  and  O_18
REMARK    9  A    between atoms: C_19  and  C_20
REMARK                            x       y       z     vdW  Elec       q    Type
REMARK                         _______ _______ _______ _____ _____    ______ ____
ROOT
ATOM      1  C   UNL     1      -6.489   5.362 132.092  0.00  0.00    +0.000 A 
ATOM      2  C   UNL     1      -6.656   6.497 131.285  0.00  0.00    +0.000 A 
ATOM      3  C   UNL     1      -5.521   7.107 130.753  0.00  0.00    +0.000 A 
ATOM      4  C   UNL     1      -4.269   6.615 131.079  0.00  0.00    +0.000 A 
ATOM      5  C   UNL     1      -4.197   5.520 131.924  0.00  0.00    +0.000 A 
ATOM      6  N   UNL     1      -5.274   4.876 132.428  0.00  0.00    +0.000 NA
ENDROOT
BRANCH   1  11
ATOM      7  N   UNL     1      -8.295   3.588 132.009  0.00  0.00    +0.000 N 
ATOM      8  N   UNL     1      -9.283   3.050 132.766  0.00  0.00    +0.000 NA
ATOM      9  C   UNL     1      -9.234   3.750 133.900  0.00  0.00    +0.000 A 
ATOM     10  C   UNL     1      -8.192   4.691 133.905  0.00  0.00    +0.000 A 
ATOM     11  C   UNL     1      -7.603   4.598 132.656  0.00  0.00    +0.000 A 
BRANCH   7  13
ATOM     12  C   UNL     1      -7.407   1.670 130.731  0.00  0.00    +0.000 C 
ATOM     13  C   UNL     1      -8.046   3.044 130.676  0.00  0.00    +0.000 C 
ATOM     14  C   UNL     1      -9.278   3.040 129.768  0.00  0.00    +0.000 C 
ENDBRANCH   7  13
ENDBRANCH   1  11
BRANCH   2  15
ATOM     15  C   UNL     1      -8.020   7.064 131.048  0.00  0.00    +0.000 C 
BRANCH  15  16
ATOM     16  O   UNL     1      -8.698   6.544 129.922  0.00  0.00    +0.000 OA
BRANCH  16  17
ATOM     17  C   UNL     1     -10.056   6.745 129.884  0.00  0.00    +0.000 A 
ATOM     18  C   UNL     1     -10.598   6.474 131.155  0.00  0.00    +0.000 A 
ATOM     19  C   UNL     1     -11.960   6.595 131.406  0.00  0.00    +0.000 A 
ATOM     20  C   UNL     1     -12.807   7.023 130.395  0.00  0.00    +0.000 A 
ATOM     21  C   UNL     1     -12.288   7.311 129.134  0.00  0.00    +0.000 A 
ATOM     22  C   UNL     1     -10.919   7.154 128.839  0.00  0.00    +0.000 A 
BRANCH  21  23
ATOM     23  O   UNL     1     -13.146   7.739 128.152  0.00  0.00    +0.000 OA
ATOM     24  H   UNL     1     -13.978   7.239 128.191  0.00  0.00    +0.000 HD
ENDBRANCH  21  23
BRANCH  22  25
ATOM     25  C   UNL     1     -10.601   7.412 127.397  0.00  0.00    +0.000 C 
ATOM     26  O   UNL     1     -10.883   6.703 126.439  0.00  0.00    +0.000 OA
ENDBRANCH  22  25
ENDBRANCH  16  17
ENDBRANCH  15  16
ENDBRANCH   2  15
TORSDOF 7
ENDMDL
MODEL 4
REMARK VINA RESULT:      -6.8      1.338      3.377
REMARK  Name = Voxelotor
REMARK  9 active torsions:
REMARK  status: ('A' for Active; 'I' for Inactive)
REMARK    1  A    between atoms: C_1  and  C_2
REMARK    2  A    between atoms: C_2  and  C_3
REMARK    3  A    between atoms: C_2  and  N_4
REMARK    4  A    between atoms: C_8  and  C_9
REMARK    5  A    between atoms: C_10  and  C_11
REMARK    6  A    between atoms: C_11  and  O_12
REMARK    7  A    between atoms: O_12  and  C_13
REMARK    8  A    between atoms: C_17  and  O_18
REMARK    9  A    between atoms: C_19  and  C_20
REMARK                            x       y       z     vdW  Elec       q    Type
REMARK                         _______ _______ _______ _____ _____    ______ ____
ROOT
ATOM      1  C   UNL     1      -7.229   4.571 131.701  0.00  0.00    +0.000 A 
ATOM      2  C   UNL     1      -8.216   5.497 132.069  0.00  0.00    +0.000 A 
ATOM      3  C   UNL     1      -8.806   5.375 133.326  0.00  0.00    +0.000 A 
ATOM      4  C   UNL     1      -8.447   4.320 134.146  0.00  0.00    +0.000 A 
ATOM      5  C   UNL     1      -7.500   3.423 133.680  0.00  0.00    +0.000 A 
ATOM      6  N   UNL     1      -6.876   3.529 132.485  0.00  0.00    +0.000 NA
ENDROOT
BRANCH   1  11
ATOM      7  N   UNL     1      -5.511   5.554 130.121  0.00  0.00    +0.000 N 
ATOM      8  N   UNL     1      -4.996   5.379 128.879  0.00  0.00    +0.000 NA
ATOM      9  C   UNL     1      -5.682   4.345 128.391  0.00  0.00    +0.000 A 
ATOM     10  C   UNL     1      -6.590   3.817 129.322  0.00  0.00    +0.000 A 
ATOM     11  C   UNL     1      -6.493   4.630 130.437  0.00  0.00    +0.000 A 
BRANCH   7  13
ATOM     12  C   UNL     1      -3.840   6.125 131.847  0.00  0.00    +0.000 C 
ATOM     13  C   UNL     1      -4.975   6.616 130.969  0.00  0.00    +0.000 C 
ATOM     14  C   UNL     1      -4.570   7.878 130.203  0.00  0.00    +0.000 C 
ENDBRANCH   7  13
ENDBRANCH   1  11
BRANCH   2  15
ATOM     15  C   UNL     1      -8.656   6.558 131.109  0.00  0.00    +0.000 C 
BRANCH  15  16
ATOM     16  O   UNL     1      -9.701   6.180 130.236  0.00  0.00    +0.000 OA
BRANCH  16  17
ATOM     17  C   UNL     1     -10.795   7.009 130.204  0.00  0.00    +0.000 A 
ATOM     18  C   UNL     1     -11.631   6.712 131.298  0.00  0.00    +0.000 A 
ATOM     19  C   UNL     1     -12.818   7.400 131.515  0.00  0.00    +0.000 A 
ATOM     20  C   UNL     1     -13.181   8.428 130.656  0.00  0.00    +0.000 A 
ATOM     21  C   UNL     1     -12.360   8.747 129.576  0.00  0.00    +0.000 A 
ATOM     22  C   UNL     1     -11.173   8.035 129.307  0.00  0.00    +0.000 A 
BRANCH  21  23
ATOM     23  O   UNL     1     -12.737   9.771 128.744  0.00  0.00    +0.000 OA
ATOM     24  H   UNL     1     -12.205  10.563 128.922  0.00  0.00    +0.000 HD
ENDBRANCH  21  23
BRANCH  22  25
ATOM     25  C   UNL     1     -10.508   8.474 128.037  0.00  0.00    +0.000 C 
ATOM     26  O   UNL     1     -10.941   8.358 126.896  0.00  0.00    +0.000 OA
ENDBRANCH  22  25
ENDBRANCH  16  17
ENDBRANCH  15  16
ENDBRANCH   2  15
TORSDOF 7
ENDMDL
MODEL 5
REMARK VINA RESULT:      -6.7      7.655      9.330
REMARK  Name = Voxelotor
REMARK  9 active torsions:
REMARK  status: ('A' for Active; 'I' for Inactive)
REMARK    1  A    between atoms: C_1  and  C_2
REMARK    2  A    between atoms: C_2  and  C_3
REMARK    3  A    between atoms: C_2  and  N_4
REMARK    4  A    between atoms: C_8  and  C_9
REMARK    5  A    between atoms: C_10  and  C_11
REMARK    6  A    between atoms: C_11  and  O_12
REMARK    7  A    between atoms: O_12  and  C_13
REMARK    8  A    between atoms: C_17  and  O_18
REMARK    9  A    between atoms: C_19  and  C_20
REMARK                            x       y       z     vdW  Elec       q    Type
REMARK                         _______ _______ _______ _____ _____    ______ ____
ROOT
ATOM      1  C   UNL     1      -8.245  -2.541 126.490  0.00  0.00    +0.000 A 
ATOM      2  C   UNL     1      -7.900  -1.508 127.374  0.00  0.00    +0.000 A 
ATOM      3  C   UNL     1      -7.908  -1.773 128.742  0.00  0.00    +0.000 A 
ATOM      4  C   UNL     1      -8.310  -3.020 129.190  0.00  0.00    +0.000 A 
ATOM      5  C   UNL     1      -8.683  -3.963 128.247  0.00  0.00    +0.000 A 
ATOM      6  N   UNL     1      -8.650  -3.759 126.912  0.00  0.00    +0.000 NA
ENDROOT
BRANCH   1  11
ATOM      7  N   UNL     1      -7.075  -2.442 124.246  0.00  0.00    +0.000 N 
ATOM      8  N   UNL     1      -7.336  -2.288 122.924  0.00  0.00    +0.000 NA
ATOM      9  C   UNL     1      -8.659  -2.122 122.876  0.00  0.00    +0.000 A 
ATOM     10  C   UNL     1      -9.257  -2.225 124.142  0.00  0.00    +0.000 A 
ATOM     11  C   UNL     1      -8.214  -2.404 125.033  0.00  0.00    +0.000 A 
BRANCH   7  13
ATOM     12  C   UNL     1      -4.893  -3.427 123.642  0.00  0.00    +0.000 C 
ATOM     13  C   UNL     1      -5.697  -2.663 124.677  0.00  0.00    +0.000 C 
ATOM     14  C   UNL     1      -4.968  -1.387 125.105  0.00  0.00    +0.000 C 
ENDBRANCH   7  13
ENDBRANCH   1  11
BRANCH   2  15
ATOM     15  C   UNL     1      -7.580  -0.141 126.854  0.00  0.00    +0.000 C 
BRANCH  15  16
ATOM     16  O   UNL     1      -8.654   0.527 126.225  0.00  0.00    +0.000 OA
BRANCH  16  17
ATOM     17  C   UNL     1      -8.330   1.328 125.157  0.00  0.00    +0.000 A 
ATOM     18  C   UNL     1      -7.034   1.845 125.345  0.00  0.00    +0.000 A 
ATOM     19  C   UNL     1      -6.446   2.692 124.414  0.00  0.00    +0.000 A 
ATOM     20  C   UNL     1      -7.134   3.016 123.253  0.00  0.00    +0.000 A 
ATOM     21  C   UNL     1      -8.412   2.503 123.041  0.00  0.00    +0.000 A 
ATOM     22  C   UNL     1      -9.049   1.677 123.990  0.00  0.00    +0.000 A 
BRANCH  21  23
ATOM     23  O   UNL     1      -9.069   2.833 121.883  0.00  0.00    +0.000 OA
ATOM     24  H   UNL     1      -9.462   3.718 121.959  0.00  0.00    +0.000 HD
ENDBRANCH  21  23
BRANCH  22  25
ATOM     25  C   UNL     1     -10.457   1.333 123.607  0.00  0.00    +0.000 C 
ATOM     26  O   UNL     1     -10.818   0.621 122.677  0.00  0.00    +0.000 OA
ENDBRANCH  22  25
ENDBRANCH  16  17
ENDBRANCH  15  16
ENDBRANCH   2  15
TORSDOF 7
ENDMDL
MODEL 6
REMARK VINA RESULT:      -6.6      2.184      3.717
REMARK  Name = Voxelotor
REMARK  9 active torsions:
REMARK  status: ('A' for Active; 'I' for Inactive)
REMARK    1  A    between atoms: C_1  and  C_2
REMARK    2  A    between atoms: C_2  and  C_3
REMARK    3  A    between atoms: C_2  and  N_4
REMARK    4  A    between atoms: C_8  and  C_9
REMARK    5  A    between atoms: C_10  and  C_11
REMARK    6  A    between atoms: C_11  and  O_12
REMARK    7  A    between atoms: O_12  and  C_13
REMARK    8  A    between atoms: C_17  and  O_18
REMARK    9  A    between atoms: C_19  and  C_20
REMARK                            x       y       z     vdW  Elec       q    Type
REMARK                         _______ _______ _______ _____ _____    ______ ____
ROOT
ATOM      1  C   UNL     1      -6.579   6.222 131.797  0.00  0.00    +0.000 A 
ATOM      2  C   UNL     1      -7.962   6.177 131.568  0.00  0.00    +0.000 A 
ATOM      3  C   UNL     1      -8.805   5.915 132.648  0.00  0.00    +0.000 A 
ATOM      4  C   UNL     1      -8.257   5.652 133.890  0.00  0.00    +0.000 A 
ATOM      5  C   UNL     1      -6.877   5.668 134.012  0.00  0.00    +0.000 A 
ATOM      6  N   UNL     1      -6.028   5.956 133.001  0.00  0.00    +0.000 NA
ENDROOT
BRANCH   1  11
ATOM      7  N   UNL     1      -5.094   5.662 129.823  0.00  0.00    +0.000 N 
ATOM      8  N   UNL     1      -4.195   6.230 128.982  0.00  0.00    +0.000 NA
ATOM      9  C   UNL     1      -4.107   7.490 129.412  0.00  0.00    +0.000 A 
ATOM     10  C   UNL     1      -4.979   7.753 130.480  0.00  0.00    +0.000 A 
ATOM     11  C   UNL     1      -5.597   6.548 130.761  0.00  0.00    +0.000 A 
BRANCH   7  13
ATOM     12  C   UNL     1      -6.172   4.025 128.320  0.00  0.00    +0.000 C 
ATOM     13  C   UNL     1      -5.453   4.258 129.635  0.00  0.00    +0.000 C 
ATOM     14  C   UNL     1      -4.278   3.290 129.796  0.00  0.00    +0.000 C 
ENDBRANCH   7  13
ENDBRANCH   1  11
BRANCH   2  15
ATOM     15  C   UNL     1      -8.509   6.356 130.187  0.00  0.00    +0.000 C 
BRANCH  15  16
ATOM     16  O   UNL     1      -9.267   7.532 129.990  0.00  0.00    +0.000 OA
BRANCH  16  17
ATOM     17  C   UNL     1     -10.544   7.359 129.515  0.00  0.00    +0.000 A 
ATOM     18  C   UNL     1     -11.438   7.308 130.602  0.00  0.00    +0.000 A 
ATOM     19  C   UNL     1     -12.804   7.138 130.414  0.00  0.00    +0.000 A 
ATOM     20  C   UNL     1     -13.312   7.047 129.126  0.00  0.00    +0.000 A 
ATOM     21  C   UNL     1     -12.445   7.110 128.036  0.00  0.00    +0.000 A 
ATOM     22  C   UNL     1     -11.051   7.238 128.199  0.00  0.00    +0.000 A 
BRANCH  21  23
ATOM     23  O   UNL     1     -12.972   7.024 126.772  0.00  0.00    +0.000 OA
ATOM     24  H   UNL     1     -12.941   7.890 126.334  0.00  0.00    +0.000 HD
ENDBRANCH  21  23
BRANCH  22  25
ATOM     25  C   UNL     1     -10.305   7.173 126.901  0.00  0.00    +0.000 C 
ATOM     26  O   UNL     1      -9.652   6.231 126.468  0.00  0.00    +0.000 OA
ENDBRANCH  22  25
ENDBRANCH  16  17
ENDBRANCH  15  16
ENDBRANCH   2  15
TORSDOF 7
ENDMDL
MODEL 7
REMARK VINA RESULT:      -6.6      1.753      3.728
REMARK  Name = Voxelotor
REMARK  9 active torsions:
REMARK  status: ('A' for Active; 'I' for Inactive)
REMARK    1  A    between atoms: C_1  and  C_2
REMARK    2  A    between atoms: C_2  and  C_3
REMARK    3  A    between atoms: C_2  and  N_4
REMARK    4  A    between atoms: C_8  and  C_9
REMARK    5  A    between atoms: C_10  and  C_11
REMARK    6  A    between atoms: C_11  and  O_12
REMARK    7  A    between atoms: O_12  and  C_13
REMARK    8  A    between atoms: C_17  and  O_18
REMARK    9  A    between atoms: C_19  and  C_20
REMARK                            x       y       z     vdW  Elec       q    Type
REMARK                         _______ _______ _______ _____ _____    ______ ____
ROOT
ATOM      1  C   UNL     1      -8.163   2.722 129.923  0.00  0.00    +0.000 A 
ATOM      2  C   UNL     1      -9.084   3.388 130.746  0.00  0.00    +0.000 A 
ATOM      3  C   UNL     1      -9.720   2.664 131.753  0.00  0.00    +0.000 A 
ATOM      4  C   UNL     1      -9.472   1.308 131.875  0.00  0.00    +0.000 A 
ATOM      5  C   UNL     1      -8.586   0.723 130.986  0.00  0.00    +0.000 A 
ATOM      6  N   UNL     1      -7.919   1.397 130.022  0.00  0.00    +0.000 NA
ENDROOT
BRANCH   1  11
ATOM      7  N   UNL     1      -6.254   4.156 129.078  0.00  0.00    +0.000 N 
ATOM      8  N   UNL     1      -5.734   4.653 127.928  0.00  0.00    +0.000 NA
ATOM      9  C   UNL     1      -6.567   4.212 126.984  0.00  0.00    +0.000 A 
ATOM     10  C   UNL     1      -7.581   3.392 127.504  0.00  0.00    +0.000 A 
ATOM     11  C   UNL     1      -7.386   3.385 128.874  0.00  0.00    +0.000 A 
BRANCH   7  13
ATOM     12  C   UNL     1      -4.099   4.097 130.283  0.00  0.00    +0.000 C 
ATOM     13  C   UNL     1      -5.577   4.435 130.342  0.00  0.00    +0.000 C 
ATOM     14  C   UNL     1      -5.793   5.859 130.861  0.00  0.00    +0.000 C 
ENDBRANCH   7  13
ENDBRANCH   1  11
BRANCH   2  15
ATOM     15  C   UNL     1      -9.407   4.830 130.509  0.00  0.00    +0.000 C 
BRANCH  15  16
ATOM     16  O   UNL     1     -10.355   5.071 129.489  0.00  0.00    +0.000 OA
BRANCH  16  17
ATOM     17  C   UNL     1     -11.127   6.199 129.631  0.00  0.00    +0.000 A 
ATOM     18  C   UNL     1     -11.741   6.180 130.898  0.00  0.00    +0.000 A 
ATOM     19  C   UNL     1     -12.585   7.203 131.313  0.00  0.00    +0.000 A 
ATOM     20  C   UNL     1     -12.807   8.289 130.478  0.00  0.00    +0.000 A 
ATOM     21  C   UNL     1     -12.196   8.333 129.226  0.00  0.00    +0.000 A 
ATOM     22  C   UNL     1     -11.372   7.288 128.762  0.00  0.00    +0.000 A 
BRANCH  21  23
ATOM     23  O   UNL     1     -12.427   9.420 128.421  0.00  0.00    +0.000 OA
ATOM     24  H   UNL     1     -12.987  10.067 128.881  0.00  0.00    +0.000 HD
ENDBRANCH  21  23
BRANCH  22  25
ATOM     25  C   UNL     1     -10.913   7.494 127.350  0.00  0.00    +0.000 C 
ATOM     26  O   UNL     1     -11.202   6.815 126.371  0.00  0.00    +0.000 OA
ENDBRANCH  22  25
ENDBRANCH  16  17
ENDBRANCH  15  16
ENDBRANCH   2  15
TORSDOF 7
ENDMDL
MODEL 8
REMARK VINA RESULT:      -6.6      7.482     10.223
REMARK  Name = Voxelotor
REMARK  9 active torsions:
REMARK  status: ('A' for Active; 'I' for Inactive)
REMARK    1  A    between atoms: C_1  and  C_2
REMARK    2  A    between atoms: C_2  and  C_3
REMARK    3  A    between atoms: C_2  and  N_4
REMARK    4  A    between atoms: C_8  and  C_9
REMARK    5  A    between atoms: C_10  and  C_11
REMARK    6  A    between atoms: C_11  and  O_12
REMARK    7  A    between atoms: O_12  and  C_13
REMARK    8  A    between atoms: C_17  and  O_18
REMARK    9  A    between atoms: C_19  and  C_20
REMARK                            x       y       z     vdW  Elec       q    Type
REMARK                         _______ _______ _______ _____ _____    ______ ____
ROOT
ATOM      1  C   UNL     1      -7.572  -1.522 123.455  0.00  0.00    +0.000 A 
ATOM      2  C   UNL     1      -7.548  -2.457 124.501  0.00  0.00    +0.000 A 
ATOM      3  C   UNL     1      -6.464  -3.330 124.587  0.00  0.00    +0.000 A 
ATOM      4  C   UNL     1      -5.481  -3.290 123.614  0.00  0.00    +0.000 A 
ATOM      5  C   UNL     1      -5.612  -2.368 122.589  0.00  0.00    +0.000 A 
ATOM      6  N   UNL     1      -6.625  -1.479 122.492  0.00  0.00    +0.000 NA
ENDROOT
BRANCH   1  11
ATOM      7  N   UNL     1      -8.667   0.709 123.942  0.00  0.00    +0.000 N 
ATOM      8  N   UNL     1      -9.754   1.447 123.607  0.00  0.00    +0.000 NA
ATOM      9  C   UNL     1     -10.421   0.668 122.754  0.00  0.00    +0.000 A 
ATOM     10  C   UNL     1      -9.749  -0.536 122.492  0.00  0.00    +0.000 A 
ATOM     11  C   UNL     1      -8.621  -0.514 123.293  0.00  0.00    +0.000 A 
BRANCH   7  13
ATOM     12  C   UNL     1      -6.789   2.291 124.201  0.00  0.00    +0.000 C 
ATOM     13  C   UNL     1      -7.687   1.268 124.869  0.00  0.00    +0.000 C 
ATOM     14  C   UNL     1      -8.299   1.831 126.154  0.00  0.00    +0.000 C 
ENDBRANCH   7  13
ENDBRANCH   1  11
BRANCH   2  15
ATOM     15  C   UNL     1      -8.687  -2.542 125.468  0.00  0.00    +0.000 C 
BRANCH  15  16
ATOM     16  O   UNL     1      -8.575  -1.704 126.600  0.00  0.00    +0.000 OA
BRANCH  16  17
ATOM     17  C   UNL     1      -7.632  -2.064 127.532  0.00  0.00    +0.000 A 
ATOM     18  C   UNL     1      -8.183  -3.030 128.395  0.00  0.00    +0.000 A 
ATOM     19  C   UNL     1      -7.448  -3.576 129.440  0.00  0.00    +0.000 A 
ATOM     20  C   UNL     1      -6.129  -3.188 129.625  0.00  0.00    +0.000 A 
ATOM     21  C   UNL     1      -5.560  -2.243 128.772  0.00  0.00    +0.000 A 
ATOM     22  C   UNL     1      -6.297  -1.641 127.732  0.00  0.00    +0.000 A 
BRANCH  21  23
ATOM     23  O   UNL     1      -4.253  -1.880 128.972  0.00  0.00    +0.000 OA
ATOM     24  H   UNL     1      -3.846  -1.609 128.133  0.00  0.00    +0.000 HD
ENDBRANCH  21  23
BRANCH  22  25
ATOM     25  C   UNL     1      -5.524  -0.577 127.014  0.00  0.00    +0.000 C 
ATOM     26  O   UNL     1      -5.255   0.547 127.423  0.00  0.00    +0.000 OA
ENDBRANCH  22  25
ENDBRANCH  16  17
ENDBRANCH  15  16
ENDBRANCH   2  15
TORSDOF 7
ENDMDL
MODEL 9
REMARK VINA RESULT:      -6.5      6.110      8.463
REMARK  Name = Voxelotor
REMARK  9 active torsions:
REMARK  status: ('A' for Active; 'I' for Inactive)
REMARK    1  A    between atoms: C_1  and  C_2
REMARK    2  A    between atoms: C_2  and  C_3
REMARK    3  A    between atoms: C_2  and  N_4
REMARK    4  A    between atoms: C_8  and  C_9
REMARK    5  A    between atoms: C_10  and  C_11
REMARK    6  A    between atoms: C_11  and  O_12
REMARK    7  A    between atoms: O_12  and  C_13
REMARK    8  A    between atoms: C_17  and  O_18
REMARK    9  A    between atoms: C_19  and  C_20
REMARK                            x       y       z     vdW  Elec       q    Type
REMARK                         _______ _______ _______ _____ _____    ______ ____
ROOT
ATOM      1  C   UNL     1      -7.413  -1.234 126.998  0.00  0.00    +0.000 A 
ATOM      2  C   UNL     1      -6.024  -1.044 126.958  0.00  0.00    +0.000 A 
ATOM      3  C   UNL     1      -5.227  -1.784 127.830  0.00  0.00    +0.000 A 
ATOM      4  C   UNL     1      -5.826  -2.634 128.743  0.00  0.00    +0.000 A 
ATOM      5  C   UNL     1      -7.208  -2.720 128.745  0.00  0.00    +0.000 A 
ATOM      6  N   UNL     1      -8.014  -2.051 127.891  0.00  0.00    +0.000 NA
ENDROOT
BRANCH   1  11
ATOM      7  N   UNL     1      -8.659  -0.977 124.808  0.00  0.00    +0.000 N 
ATOM      8  N   UNL     1      -9.557  -0.169 124.192  0.00  0.00    +0.000 NA
ATOM      9  C   UNL     1      -9.798   0.787 125.091  0.00  0.00    +0.000 A 
ATOM     10  C   UNL     1      -9.112   0.572 126.297  0.00  0.00    +0.000 A 
ATOM     11  C   UNL     1      -8.349  -0.564 126.093  0.00  0.00    +0.000 A 
BRANCH   7  13
ATOM     12  C   UNL     1      -9.299  -2.954 123.474  0.00  0.00    +0.000 C 
ATOM     13  C   UNL     1      -8.171  -2.161 124.106  0.00  0.00    +0.000 C 
ATOM     14  C   UNL     1      -7.068  -1.868 123.087  0.00  0.00    +0.000 C 
ENDBRANCH   7  13
ENDBRANCH   1  11
BRANCH   2  15
ATOM     15  C   UNL     1      -5.424  -0.032 126.033  0.00  0.00    +0.000 C 
BRANCH  15  16
ATOM     16  O   UNL     1      -5.353   1.282 126.547  0.00  0.00    +0.000 OA
BRANCH  16  17
ATOM     17  C   UNL     1      -5.792   2.284 125.716  0.00  0.00    +0.000 A 
ATOM     18  C   UNL     1      -6.188   1.723 124.487  0.00  0.00    +0.000 A 
ATOM     19  C   UNL     1      -6.677   2.510 123.451  0.00  0.00    +0.000 A 
ATOM     20  C   UNL     1      -6.809   3.879 123.636  0.00  0.00    +0.000 A 
ATOM     21  C   UNL     1      -6.436   4.452 124.850  0.00  0.00    +0.000 A 
ATOM     22  C   UNL     1      -5.896   3.683 125.901  0.00  0.00    +0.000 A 
BRANCH  21  23
ATOM     23  O   UNL     1      -6.582   5.806 125.010  0.00  0.00    +0.000 OA
ATOM     24  H   UNL     1      -7.117   6.175 124.288  0.00  0.00    +0.000 HD
ENDBRANCH  21  23
BRANCH  22  25
ATOM     25  C   UNL     1      -5.462   4.518 127.068  0.00  0.00    +0.000 C 
ATOM     26  O   UNL     1      -4.706   5.482 127.048  0.00  0.00    +0.000 OA
ENDBRANCH  22  25
ENDBRANCH  16  17
ENDBRANCH  15  16
ENDBRANCH   2  15
TORSDOF 7
ENDMDL
