MODEL 1
REMARK VINA RESULT:      -8.7      0.000      0.000
REMARK  Name = Warfarin
REMARK  6 active torsions:
REMARK  status: ('A' for Active; 'I' for Inactive)
REMARK    1  A    between atoms: C_1  and  C_2
REMARK    2  A    between atoms: C_2  and  C_4
REMARK    3  A    between atoms: C_4  and  C_5
REMARK    4  A    between atoms: C_5  and  C_6
REMARK    5  A    between atoms: C_5  and  C_12
REMARK    6  A    between atoms: C_13  and  O_14
REMARK                            x       y       z     vdW  Elec       q    Type
REMARK                         _______ _______ _______ _____ _____    ______ ____
ROOT
ATOM      1  C   UNL     1     -10.598   5.695 130.302  0.00  0.00    +0.000 A 
ATOM      2  C   UNL     1     -11.736   6.172 130.835  0.00  0.00    +0.000 A 
ATOM      3  C   UNL     1     -12.586   7.009 129.986  0.00  0.00    +0.000 A 
ATOM      4  C   UNL     1     -12.109   8.302 129.870  0.00  0.00    +0.000 A 
ATOM      5  O   UNL     1     -10.708   7.861 129.111  0.00  0.00    +0.000 OA
ATOM      6  C   UNL     1     -10.216   6.488 129.085  0.00  0.00    +0.000 A 
ATOM      7  O   UNL     1      -9.556   6.017 128.192  0.00  0.00    +0.000 OA
ATOM      8  C   UNL     1     -12.840   9.235 129.095  0.00  0.00    +0.000 A 
ATOM      9  C   UNL     1     -13.651   8.770 128.059  0.00  0.00    +0.000 A 
ATOM     10  C   UNL     1     -13.695   7.401 127.832  0.00  0.00    +0.000 A 
ATOM     11  C   UNL     1     -13.166   6.527 128.796  0.00  0.00    +0.000 A 
ENDROOT
BRANCH   2  12
ATOM     12  O   UNL     1     -11.997   6.239 132.184  0.00  0.00    +0.000 OA
ATOM     13  H   UNL     1     -12.907   5.924 132.335  0.00  0.00    +0.000 HD
ENDBRANCH   2  12
BRANCH   1  14
ATOM     14  C   UNL     1      -9.644   4.704 130.972  0.00  0.00    +0.000 C 
BRANCH  14  15
ATOM     15  C   UNL     1      -8.235   5.237 130.806  0.00  0.00    +0.000 A 
ATOM     16  C   UNL     1      -7.274   4.464 130.146  0.00  0.00    +0.000 A 
ATOM     17  C   UNL     1      -5.955   4.884 130.124  0.00  0.00    +0.000 A 
ATOM     18  C   UNL     1      -5.613   6.124 130.659  0.00  0.00    +0.000 A 
ATOM     19  C   UNL     1      -6.575   6.923 131.273  0.00  0.00    +0.000 A 
ATOM     20  C   UNL     1      -7.881   6.469 131.372  0.00  0.00    +0.000 A 
ENDBRANCH  14  15
BRANCH  14  21
ATOM     21  C   UNL     1      -9.648   3.175 130.625  0.00  0.00    +0.000 C 
BRANCH  21  23
ATOM     22  C   UNL     1      -9.260   2.862 133.200  0.00  0.00    +0.000 C 
ATOM     23  C   UNL     1      -9.746   2.290 131.891  0.00  0.00    +0.000 C 
ATOM     24  O   UNL     1     -10.155   1.128 131.869  0.00  0.00    +0.000 OA
ENDBRANCH  21  23
ENDBRANCH  14  21
ENDBRANCH   1  14
TORSDOF 5
ENDMDL
MODEL 2
REMARK VINA RESULT:      -8.6      7.417      9.572
REMARK  Name = Warfarin
REMARK  6 active torsions:
REMARK  status: ('A' for Active; 'I' for Inactive)
REMARK    1  A    between atoms: C_1  and  C_2
REMARK    2  A    between atoms: C_2  and  C_4
REMARK    3  A    between atoms: C_4  and  C_5
REMARK    4  A    between atoms: C_5  and  C_6
REMARK    5  A    between atoms: C_5  and  C_12
REMARK    6  A    between atoms: C_13  and  O_14
REMARK                            x       y       z     vdW  Elec       q    Type
REMARK                         _______ _______ _______ _____ _____    ______ ____
ROOT
ATOM      1  C   UNL     1      -8.417   1.463 124.101  0.00  0.00    +0.000 A 
ATOM      2  C   UNL     1      -7.481   0.507 124.228  0.00  0.00    +0.000 A 
ATOM      3  C   UNL     1      -7.921  -0.888 124.166  0.00  0.00    +0.000 A 
ATOM      4  C   UNL     1      -8.502  -1.313 125.348  0.00  0.00    +0.000 A 
ATOM      5  O   UNL     1      -9.768  -0.252 125.263  0.00  0.00    +0.000 OA
ATOM      6  C   UNL     1      -9.782   0.900 124.368  0.00  0.00    +0.000 A 
ATOM      7  O   UNL     1     -10.781   1.376 123.887  0.00  0.00    +0.000 OA
ATOM      8  C   UNL     1      -8.958  -2.650 125.445  0.00  0.00    +0.000 A 
ATOM      9  C   UNL     1      -9.333  -3.325 124.283  0.00  0.00    +0.000 A 
ATOM     10  C   UNL     1      -9.245  -2.644 123.077  0.00  0.00    +0.000 A 
ATOM     11  C   UNL     1      -8.539  -1.431 123.023  0.00  0.00    +0.000 A 
ENDROOT
BRANCH   2  12
ATOM     12  O   UNL     1      -6.225   0.710 124.754  0.00  0.00    +0.000 OA
ATOM     13  H   UNL     1      -5.630   0.026 124.394  0.00  0.00    +0.000 HD
ENDBRANCH   2  12
BRANCH   1  14
ATOM     14  C   UNL     1      -8.150   2.967 124.007  0.00  0.00    +0.000 C 
BRANCH  14  15
ATOM     15  C   UNL     1      -7.716   3.269 122.586  0.00  0.00    +0.000 A 
ATOM     16  C   UNL     1      -6.356   3.404 122.289  0.00  0.00    +0.000 A 
ATOM     17  C   UNL     1      -5.969   3.825 121.028  0.00  0.00    +0.000 A 
ATOM     18  C   UNL     1      -6.927   4.002 120.032  0.00  0.00    +0.000 A 
ATOM     19  C   UNL     1      -8.280   3.821 120.306  0.00  0.00    +0.000 A 
ATOM     20  C   UNL     1      -8.680   3.481 121.589  0.00  0.00    +0.000 A 
ENDBRANCH  14  15
BRANCH  14  21
ATOM     21  C   UNL     1      -7.185   3.709 124.995  0.00  0.00    +0.000 C 
BRANCH  21  23
ATOM     22  C   UNL     1      -7.788   4.059 127.524  0.00  0.00    +0.000 C 
ATOM     23  C   UNL     1      -7.958   4.488 126.088  0.00  0.00    +0.000 C 
ATOM     24  O   UNL     1      -8.738   5.407 125.832  0.00  0.00    +0.000 OA
ENDBRANCH  21  23
ENDBRANCH  14  21
ENDBRANCH   1  14
TORSDOF 5
ENDMDL
MODEL 3
REMARK VINA RESULT:      -8.5      1.634      3.896
REMARK  Name = Warfarin
REMARK  6 active torsions:
REMARK  status: ('A' for Active; 'I' for Inactive)
REMARK    1  A    between atoms: C_1  and  C_2
REMARK    2  A    between atoms: C_2  and  C_4
REMARK    3  A    between atoms: C_4  and  C_5
REMARK    4  A    between atoms: C_5  and  C_6
REMARK    5  A    between atoms: C_5  and  C_12
REMARK    6  A    between atoms: C_13  and  O_14
REMARK                            x       y       z     vdW  Elec       q    Type
REMARK                         _______ _______ _______ _____ _____    ______ ____
ROOT
ATOM      1  C   UNL     1      -9.900   6.394 130.135  0.00  0.00    +0.000 A 
ATOM      2  C   UNL     1     -10.076   6.607 128.820  0.00  0.00    +0.000 A 
ATOM      3  C   UNL     1     -11.275   7.336 128.405  0.00  0.00    +0.000 A 
ATOM      4  C   UNL     1     -12.409   6.543 128.418  0.00  0.00    +0.000 A 
ATOM      5  O   UNL     1     -12.370   6.281 130.050  0.00  0.00    +0.000 OA
ATOM      6  C   UNL     1     -11.197   6.560 130.873  0.00  0.00    +0.000 A 
ATOM      7  O   UNL     1     -11.241   6.882 132.034  0.00  0.00    +0.000 OA
ATOM      8  C   UNL     1     -13.645   7.107 128.018  0.00  0.00    +0.000 A 
ATOM      9  C   UNL     1     -13.840   8.482 128.155  0.00  0.00    +0.000 A 
ATOM     10  C   UNL     1     -12.803   9.236 128.688  0.00  0.00    +0.000 A 
ATOM     11  C   UNL     1     -11.527   8.662 128.809  0.00  0.00    +0.000 A 
ENDROOT
BRANCH   2  12
ATOM     12  O   UNL     1      -9.430   5.912 127.824  0.00  0.00    +0.000 OA
ATOM     13  H   UNL     1      -9.102   5.075 128.200  0.00  0.00    +0.000 HD
ENDBRANCH   2  12
BRANCH   1  14
ATOM     14  C   UNL     1      -8.659   5.774 130.782  0.00  0.00    +0.000 C 
BRANCH  14  15
ATOM     15  C   UNL     1      -9.068   4.441 131.376  0.00  0.00    +0.000 A 
ATOM     16  C   UNL     1      -8.998   4.247 132.760  0.00  0.00    +0.000 A 
ATOM     17  C   UNL     1      -9.228   2.987 133.287  0.00  0.00    +0.000 A 
ATOM     18  C   UNL     1      -9.637   1.950 132.451  0.00  0.00    +0.000 A 
ATOM     19  C   UNL     1      -9.758   2.149 131.078  0.00  0.00    +0.000 A 
ATOM     20  C   UNL     1      -9.448   3.386 130.535  0.00  0.00    +0.000 A 
ENDBRANCH  14  15
BRANCH  14  21
ATOM     21  C   UNL     1      -7.788   6.547 131.832  0.00  0.00    +0.000 C 
BRANCH  21  23
ATOM     22  C   UNL     1      -5.193   6.229 132.040  0.00  0.00    +0.000 C 
ATOM     23  C   UNL     1      -6.362   6.837 131.305  0.00  0.00    +0.000 C 
ATOM     24  O   UNL     1      -6.137   7.579 130.347  0.00  0.00    +0.000 OA
ENDBRANCH  21  23
ENDBRANCH  14  21
ENDBRANCH   1  14
TORSDOF 5
ENDMDL
MODEL 4
REMARK VINA RESULT:      -8.5      1.547      3.392
REMARK  Name = Warfarin
REMARK  6 active torsions:
REMARK  status: ('A' for Active; 'I' for Inactive)
REMARK    1  A    between atoms: C_1  and  C_2
REMARK    2  A    between atoms: C_2  and  C_4
REMARK    3  A    between atoms: C_4  and  C_5
REMARK    4  A    between atoms: C_5  and  C_6
REMARK    5  A    between atoms: C_5  and  C_12
REMARK    6  A    between atoms: C_13  and  O_14
REMARK                            x       y       z     vdW  Elec       q    Type
REMARK                         _______ _______ _______ _____ _____    ______ ____
ROOT
ATOM      1  C   UNL     1      -9.995   6.294 130.135  0.00  0.00    +0.000 A 
ATOM      2  C   UNL     1     -11.103   6.721 130.765  0.00  0.00    +0.000 A 
ATOM      3  C   UNL     1     -12.218   7.187 129.939  0.00  0.00    +0.000 A 
ATOM      4  C   UNL     1     -12.015   8.464 129.448  0.00  0.00    +0.000 A 
ATOM      5  O   UNL     1     -10.695   8.052 128.542  0.00  0.00    +0.000 OA
ATOM      6  C   UNL     1      -9.965   6.802 128.723  0.00  0.00    +0.000 A 
ATOM      7  O   UNL     1      -9.380   6.222 127.842  0.00  0.00    +0.000 OA
ATOM      8  C   UNL     1     -13.022   9.058 128.647  0.00  0.00    +0.000 A 
ATOM      9  C   UNL     1     -13.885   8.236 127.922  0.00  0.00    +0.000 A 
ATOM     10  C   UNL     1     -13.708   6.863 128.017  0.00  0.00    +0.000 A 
ATOM     11  C   UNL     1     -12.879   6.345 129.024  0.00  0.00    +0.000 A 
ENDROOT
BRANCH   2  12
ATOM     12  O   UNL     1     -11.154   7.086 132.091  0.00  0.00    +0.000 OA
ATOM     13  H   UNL     1     -10.292   6.882 132.497  0.00  0.00    +0.000 HD
ENDBRANCH   2  12
BRANCH   1  14
ATOM     14  C   UNL     1      -8.779   5.649 130.804  0.00  0.00    +0.000 C 
BRANCH  14  15
ATOM     15  C   UNL     1      -9.218   4.313 131.368  0.00  0.00    +0.000 A 
ATOM     16  C   UNL     1      -8.879   3.968 132.681  0.00  0.00    +0.000 A 
ATOM     17  C   UNL     1      -9.151   2.692 133.145  0.00  0.00    +0.000 A 
ATOM     18  C   UNL     1      -9.859   1.799 132.344  0.00  0.00    +0.000 A 
ATOM     19  C   UNL     1     -10.245   2.153 131.053  0.00  0.00    +0.000 A 
ATOM     20  C   UNL     1      -9.902   3.400 130.553  0.00  0.00    +0.000 A 
ENDBRANCH  14  15
BRANCH  14  21
ATOM     21  C   UNL     1      -7.927   6.397 131.888  0.00  0.00    +0.000 C 
BRANCH  21  23
ATOM     22  C   UNL     1      -5.316   6.224 132.059  0.00  0.00    +0.000 C 
ATOM     23  C   UNL     1      -6.526   6.790 131.359  0.00  0.00    +0.000 C 
ATOM     24  O   UNL     1      -6.357   7.579 130.428  0.00  0.00    +0.000 OA
ENDBRANCH  21  23
ENDBRANCH  14  21
ENDBRANCH   1  14
TORSDOF 5
ENDMDL
MODEL 5
REMARK VINA RESULT:      -8.3      7.271      9.434
REMARK  Name = Warfarin
REMARK  6 active torsions:
REMARK  status: ('A' for Active; 'I' for Inactive)
REMARK    1  A    between atoms: C_1  and  C_2
REMARK    2  A    between atoms: C_2  and  C_4
REMARK    3  A    between atoms: C_4  and  C_5
REMARK    4  A    between atoms: C_5  and  C_6
REMARK    5  A    between atoms: C_5  and  C_12
REMARK    6  A    between atoms: C_13  and  O_14
REMARK                            x       y       z     vdW  Elec       q    Type
REMARK                         _______ _______ _______ _____ _____    ______ ____
ROOT
ATOM      1  C   UNL     1      -8.389   1.399 124.339  0.00  0.00    +0.000 A 
ATOM      2  C   UNL     1      -7.466   0.426 124.425  0.00  0.00    +0.000 A 
ATOM      3  C   UNL     1      -7.915  -0.955 124.240  0.00  0.00    +0.000 A 
ATOM      4  C   UNL     1      -8.542  -1.463 125.364  0.00  0.00    +0.000 A 
ATOM      5  O   UNL     1      -9.796  -0.386 125.316  0.00  0.00    +0.000 OA
ATOM      6  C   UNL     1      -9.768   0.832 124.513  0.00  0.00    +0.000 A 
ATOM      7  O   UNL     1     -10.745   1.354 124.035  0.00  0.00    +0.000 OA
ATOM      8  C   UNL     1      -9.012  -2.799 125.341  0.00  0.00    +0.000 A 
ATOM      9  C   UNL     1      -9.349  -3.379 124.118  0.00  0.00    +0.000 A 
ATOM     10  C   UNL     1      -9.212  -2.608 122.972  0.00  0.00    +0.000 A 
ATOM     11  C   UNL     1      -8.495  -1.402 123.037  0.00  0.00    +0.000 A 
ENDROOT
BRANCH   2  12
ATOM     12  O   UNL     1      -6.229   0.574 125.010  0.00  0.00    +0.000 OA
ATOM     13  H   UNL     1      -5.569   0.691 124.302  0.00  0.00    +0.000 HD
ENDBRANCH   2  12
BRANCH   1  14
ATOM     14  C   UNL     1      -8.108   2.903 124.370  0.00  0.00    +0.000 C 
BRANCH  14  15
ATOM     15  C   UNL     1      -7.599   3.305 123.000  0.00  0.00    +0.000 A 
ATOM     16  C   UNL     1      -8.491   3.390 121.926  0.00  0.00    +0.000 A 
ATOM     17  C   UNL     1      -8.004   3.611 120.648  0.00  0.00    +0.000 A 
ATOM     18  C   UNL     1      -6.647   3.858 120.457  0.00  0.00    +0.000 A 
ATOM     19  C   UNL     1      -5.759   3.824 121.529  0.00  0.00    +0.000 A 
ATOM     20  C   UNL     1      -6.229   3.521 122.798  0.00  0.00    +0.000 A 
ENDBRANCH  14  15
BRANCH  14  21
ATOM     21  C   UNL     1      -7.190   3.559 125.460  0.00  0.00    +0.000 C 
BRANCH  21  23
ATOM     22  C   UNL     1      -7.882   4.270 127.888  0.00  0.00    +0.000 C 
ATOM     23  C   UNL     1      -7.983   4.499 126.400  0.00  0.00    +0.000 C 
ATOM     24  O   UNL     1      -8.729   5.389 125.988  0.00  0.00    +0.000 OA
ENDBRANCH  21  23
ENDBRANCH  14  21
ENDBRANCH   1  14
TORSDOF 5
ENDMDL
MODEL 6
REMARK VINA RESULT:      -7.9      7.382      9.505
REMARK  Name = Warfarin
REMARK  6 active torsions:
REMARK  status: ('A' for Active; 'I' for Inactive)
REMARK    1  A    between atoms: C_1  and  C_2
REMARK    2  A    between atoms: C_2  and  C_4
REMARK    3  A    between atoms: C_4  and  C_5
REMARK    4  A    between atoms: C_5  and  C_6
REMARK    5  A    between atoms: C_5  and  C_12
REMARK    6  A    between atoms: C_13  and  O_14
REMARK                            x       y       z     vdW  Elec       q    Type
REMARK                         _______ _______ _______ _____ _____    ______ ____
ROOT
ATOM      1  C   UNL     1      -8.272   1.554 124.170  0.00  0.00    +0.000 A 
ATOM      2  C   UNL     1      -9.474   0.953 124.145  0.00  0.00    +0.000 A 
ATOM      3  C   UNL     1      -9.516  -0.492 124.375  0.00  0.00    +0.000 A 
ATOM      4  C   UNL     1      -9.141  -1.217 123.258  0.00  0.00    +0.000 A 
ATOM      5  O   UNL     1      -7.595  -0.632 123.232  0.00  0.00    +0.000 OA
ATOM      6  C   UNL     1      -7.176   0.544 123.986  0.00  0.00    +0.000 A 
ATOM      7  O   UNL     1      -6.063   0.715 124.419  0.00  0.00    +0.000 OA
ATOM      8  C   UNL     1      -9.154  -2.632 123.324  0.00  0.00    +0.000 A 
ATOM      9  C   UNL     1      -8.991  -3.255 124.561  0.00  0.00    +0.000 A 
ATOM     10  C   UNL     1      -8.815  -2.450 125.678  0.00  0.00    +0.000 A 
ATOM     11  C   UNL     1      -9.080  -1.074 125.581  0.00  0.00    +0.000 A 
ENDROOT
BRANCH   2  12
ATOM     12  O   UNL     1     -10.606   1.498 123.586  0.00  0.00    +0.000 OA
ATOM     13  H   UNL     1     -10.799   1.019 122.759  0.00  0.00    +0.000 HD
ENDBRANCH   2  12
BRANCH   1  14
ATOM     14  C   UNL     1      -8.025   3.062 124.085  0.00  0.00    +0.000 C 
BRANCH  14  15
ATOM     15  C   UNL     1      -7.547   3.371 122.680  0.00  0.00    +0.000 A 
ATOM     16  C   UNL     1      -6.190   3.616 122.447  0.00  0.00    +0.000 A 
ATOM     17  C   UNL     1      -5.776   4.043 121.196  0.00  0.00    +0.000 A 
ATOM     18  C   UNL     1      -6.694   4.117 120.150  0.00  0.00    +0.000 A 
ATOM     19  C   UNL     1      -8.039   3.825 120.363  0.00  0.00    +0.000 A 
ATOM     20  C   UNL     1      -8.473   3.478 121.633  0.00  0.00    +0.000 A 
ENDBRANCH  14  15
BRANCH  14  21
ATOM     21  C   UNL     1      -7.105   3.818 125.106  0.00  0.00    +0.000 C 
BRANCH  21  23
ATOM     22  C   UNL     1      -7.738   4.156 127.629  0.00  0.00    +0.000 C 
ATOM     23  C   UNL     1      -7.926   4.561 126.189  0.00  0.00    +0.000 C 
ATOM     24  O   UNL     1      -8.758   5.430 125.922  0.00  0.00    +0.000 OA
ENDBRANCH  21  23
ENDBRANCH  14  21
ENDBRANCH   1  14
TORSDOF 5
ENDMDL
MODEL 7
REMARK VINA RESULT:      -7.8      2.056      2.984
REMARK  Name = Warfarin
REMARK  6 active torsions:
REMARK  status: ('A' for Active; 'I' for Inactive)
REMARK    1  A    between atoms: C_1  and  C_2
REMARK    2  A    between atoms: C_2  and  C_4
REMARK    3  A    between atoms: C_4  and  C_5
REMARK    4  A    between atoms: C_5  and  C_6
REMARK    5  A    between atoms: C_5  and  C_12
REMARK    6  A    between atoms: C_13  and  O_14
REMARK                            x       y       z     vdW  Elec       q    Type
REMARK                         _______ _______ _______ _____ _____    ______ ____
ROOT
ATOM      1  C   UNL     1      -9.667   4.859 130.715  0.00  0.00    +0.000 A 
ATOM      2  C   UNL     1     -10.934   4.769 130.275  0.00  0.00    +0.000 A 
ATOM      3  C   UNL     1     -11.684   6.015 130.106  0.00  0.00    +0.000 A 
ATOM      4  C   UNL     1     -12.147   6.521 131.308  0.00  0.00    +0.000 A 
ATOM      5  O   UNL     1     -10.639   6.779 131.935  0.00  0.00    +0.000 OA
ATOM      6  C   UNL     1      -9.430   6.189 131.369  0.00  0.00    +0.000 A 
ATOM      7  O   UNL     1      -8.338   6.697 131.417  0.00  0.00    +0.000 OA
ATOM      8  C   UNL     1     -12.910   7.714 131.300  0.00  0.00    +0.000 A 
ATOM      9  C   UNL     1     -12.730   8.629 130.262  0.00  0.00    +0.000 A 
ATOM     10  C   UNL     1     -11.796   8.324 129.281  0.00  0.00    +0.000 A 
ATOM     11  C   UNL     1     -11.280   7.020 129.206  0.00  0.00    +0.000 A 
ENDROOT
BRANCH   2  12
ATOM     12  O   UNL     1     -11.691   3.621 130.304  0.00  0.00    +0.000 OA
ATOM     13  H   UNL     1     -12.613   3.858 130.096  0.00  0.00    +0.000 HD
ENDBRANCH   2  12
BRANCH   1  14
ATOM     14  C   UNL     1      -8.678   3.696 130.832  0.00  0.00    +0.000 C 
BRANCH  14  15
ATOM     15  C   UNL     1      -8.355   3.224 129.429  0.00  0.00    +0.000 A 
ATOM     16  C   UNL     1      -8.672   1.916 129.046  0.00  0.00    +0.000 A 
ATOM     17  C   UNL     1      -8.245   1.439 127.818  0.00  0.00    +0.000 A 
ATOM     18  C   UNL     1      -7.603   2.297 126.927  0.00  0.00    +0.000 A 
ATOM     19  C   UNL     1      -7.328   3.615 127.282  0.00  0.00    +0.000 A 
ATOM     20  C   UNL     1      -7.679   4.074 128.542  0.00  0.00    +0.000 A 
ENDBRANCH  14  15
BRANCH  14  21
ATOM     21  C   UNL     1      -8.963   2.443 131.731  0.00  0.00    +0.000 C 
BRANCH  21  23
ATOM     22  C   UNL     1      -8.922   3.760 134.000  0.00  0.00    +0.000 C 
ATOM     23  C   UNL     1      -8.404   2.616 133.165  0.00  0.00    +0.000 C 
ATOM     24  O   UNL     1      -7.522   1.893 133.633  0.00  0.00    +0.000 OA
ENDBRANCH  21  23
ENDBRANCH  14  21
ENDBRANCH   1  14
TORSDOF 5
ENDMDL
MODEL 8
REMARK VINA RESULT:      -7.6      1.910      3.295
REMARK  Name = Warfarin
REMARK  6 active torsions:
REMARK  status: ('A' for Active; 'I' for Inactive)
REMARK    1  A    between atoms: C_1  and  C_2
REMARK    2  A    between atoms: C_2  and  C_4
REMARK    3  A    between atoms: C_4  and  C_5
REMARK    4  A    between atoms: C_5  and  C_6
REMARK    5  A    between atoms: C_5  and  C_12
REMARK    6  A    between atoms: C_13  and  O_14
REMARK                            x       y       z     vdW  Elec       q    Type
REMARK                         _______ _______ _______ _____ _____    ______ ____
ROOT
ATOM      1  C   UNL     1      -9.602   5.129 130.258  0.00  0.00    +0.000 A 
ATOM      2  C   UNL     1     -10.921   4.925 130.105  0.00  0.00    +0.000 A 
ATOM      3  C   UNL     1     -11.790   6.103 130.057  0.00  0.00    +0.000 A 
ATOM      4  C   UNL     1     -12.028   6.636 131.311  0.00  0.00    +0.000 A 
ATOM      5  O   UNL     1     -10.447   7.035 131.589  0.00  0.00    +0.000 OA
ATOM      6  C   UNL     1      -9.342   6.506 130.797  0.00  0.00    +0.000 A 
ATOM      7  O   UNL     1      -8.310   7.094 130.591  0.00  0.00    +0.000 OA
ATOM      8  C   UNL     1     -12.871   7.769 131.425  0.00  0.00    +0.000 A 
ATOM      9  C   UNL     1     -12.990   8.638 130.340  0.00  0.00    +0.000 A 
ATOM     10  C   UNL     1     -12.264   8.350 129.193  0.00  0.00    +0.000 A 
ATOM     11  C   UNL     1     -11.670   7.085 129.055  0.00  0.00    +0.000 A 
ENDROOT
BRANCH   2  12
ATOM     12  O   UNL     1     -11.558   3.728 130.338  0.00  0.00    +0.000 OA
ATOM     13  H   UNL     1     -10.999   3.196 130.934  0.00  0.00    +0.000 HD
ENDBRANCH   2  12
BRANCH   1  14
ATOM     14  C   UNL     1      -8.519   4.049 130.201  0.00  0.00    +0.000 C 
BRANCH  14  15
ATOM     15  C   UNL     1      -7.971   3.872 131.604  0.00  0.00    +0.000 A 
ATOM     16  C   UNL     1      -6.605   4.053 131.843  0.00  0.00    +0.000 A 
ATOM     17  C   UNL     1      -6.082   3.747 133.089  0.00  0.00    +0.000 A 
ATOM     18  C   UNL     1      -6.934   3.372 134.125  0.00  0.00    +0.000 A 
ATOM     19  C   UNL     1      -8.304   3.239 133.907  0.00  0.00    +0.000 A 
ATOM     20  C   UNL     1      -8.821   3.463 132.641  0.00  0.00    +0.000 A 
ENDBRANCH  14  15
BRANCH  14  21
ATOM     21  C   UNL     1      -7.316   4.124 129.198  0.00  0.00    +0.000 C 
BRANCH  21  23
ATOM     22  C   UNL     1      -7.512   2.734 126.982  0.00  0.00    +0.000 C 
ATOM     23  C   UNL     1      -7.780   4.020 127.724  0.00  0.00    +0.000 C 
ATOM     24  O   UNL     1      -8.311   4.953 127.120  0.00  0.00    +0.000 OA
ENDBRANCH  21  23
ENDBRANCH  14  21
ENDBRANCH   1  14
TORSDOF 5
ENDMDL
MODEL 9
REMARK VINA RESULT:      -7.5      3.302      6.147
REMARK  Name = Warfarin
REMARK  6 active torsions:
REMARK  status: ('A' for Active; 'I' for Inactive)
REMARK    1  A    between atoms: C_1  and  C_2
REMARK    2  A    between atoms: C_2  and  C_4
REMARK    3  A    between atoms: C_4  and  C_5
REMARK    4  A    between atoms: C_5  and  C_6
REMARK    5  A    between atoms: C_5  and  C_12
REMARK    6  A    between atoms: C_13  and  O_14
REMARK                            x       y       z     vdW  Elec       q    Type
REMARK                         _______ _______ _______ _____ _____    ______ ____
ROOT
ATOM      1  C   UNL     1      -5.477   5.283 130.343  0.00  0.00    +0.000 A 
ATOM      2  C   UNL     1      -5.888   6.490 130.767  0.00  0.00    +0.000 A 
ATOM      3  C   UNL     1      -7.151   6.557 131.505  0.00  0.00    +0.000 A 
ATOM      4  C   UNL     1      -8.255   6.483 130.674  0.00  0.00    +0.000 A 
ATOM      5  O   UNL     1      -7.921   4.954 130.143  0.00  0.00    +0.000 OA
ATOM      6  C   UNL     1      -6.623   4.313 130.327  0.00  0.00    +0.000 A 
ATOM      7  O   UNL     1      -6.462   3.124 130.448  0.00  0.00    +0.000 OA
ATOM      8  C   UNL     1      -9.549   6.557 131.245  0.00  0.00    +0.000 A 
ATOM      9  C   UNL     1      -9.731   6.153 132.568  0.00  0.00    +0.000 A 
ATOM     10  C   UNL     1      -8.624   5.686 133.264  0.00  0.00    +0.000 A 
ATOM     11  C   UNL     1      -7.341   5.892 132.732  0.00  0.00    +0.000 A 
ENDROOT
BRANCH   2  12
ATOM     12  O   UNL     1      -5.423   7.689 130.278  0.00  0.00    +0.000 OA
ATOM     13  H   UNL     1      -5.904   7.889 129.453  0.00  0.00    +0.000 HD
ENDBRANCH   2  12
BRANCH   1  14
ATOM     14  C   UNL     1      -4.134   4.981 129.675  0.00  0.00    +0.000 C 
BRANCH  14  15
ATOM     15  C   UNL     1      -3.044   5.240 130.696  0.00  0.00    +0.000 A 
ATOM     16  C   UNL     1      -2.172   6.319 130.522  0.00  0.00    +0.000 A 
ATOM     17  C   UNL     1      -1.088   6.468 131.371  0.00  0.00    +0.000 A 
ATOM     18  C   UNL     1      -0.937   5.610 132.458  0.00  0.00    +0.000 A 
ATOM     19  C   UNL     1      -1.830   4.563 132.668  0.00  0.00    +0.000 A 
ATOM     20  C   UNL     1      -2.869   4.359 131.773  0.00  0.00    +0.000 A 
ENDBRANCH  14  15
BRANCH  14  21
ATOM     21  C   UNL     1      -3.712   5.633 128.312  0.00  0.00    +0.000 C 
BRANCH  21  23
ATOM     22  C   UNL     1      -2.278   3.730 127.218  0.00  0.00    +0.000 C 
ATOM     23  C   UNL     1      -3.524   4.578 127.195  0.00  0.00    +0.000 C 
ATOM     24  O   UNL     1      -4.320   4.436 126.265  0.00  0.00    +0.000 OA
ENDBRANCH  21  23
ENDBRANCH  14  21
ENDBRANCH   1  14
TORSDOF 5
ENDMDL
