MODEL 1
REMARK VINA RESULT:      -6.9      0.000      0.000
REMARK  Name = Xamoterol
REMARK  10 active torsions:
REMARK  status: ('A' for Active; 'I' for Inactive)
REMARK    1  A    between atoms: O_1  and  C_2
REMARK    2  A    between atoms: C_2  and  C_3
REMARK    3  A    between atoms: C_2  and  C_16
REMARK    4  A    between atoms: C_3  and  N_4
REMARK    5  A    between atoms: N_4  and  C_5
REMARK    6  A    between atoms: C_5  and  C_6
REMARK    7  A    between atoms: C_6  and  N_7
REMARK    8  A    between atoms: C_16  and  O_17
REMARK    9  A    between atoms: O_17  and  C_18
REMARK   10  A    between atoms: C_21  and  O_22
REMARK                            x       y       z     vdW  Elec       q    Type
REMARK                         _______ _______ _______ _____ _____    ______ ____
ROOT
ATOM      1  C   UNL     1      -7.739   2.944 126.850  0.00  0.00    +0.000 C 
ENDROOT
BRANCH   1   2
ATOM      2  N   UNL     1      -8.453   3.674 127.914  0.00  0.00    +0.000 NA
ATOM      3  H   UNL     1      -9.071   3.030 128.406  0.00  0.00    +0.000 HD
BRANCH   2   4
ATOM      4  C   UNL     1      -7.498   4.236 128.884  0.00  0.00    +0.000 C 
BRANCH   4   5
ATOM      5  C   UNL     1      -8.203   4.693 130.176  0.00  0.00    +0.000 C 
BRANCH   5   6
ATOM      6  N   UNL     1      -9.479   5.376 129.952  0.00  0.00    +0.000 N 
ATOM      7  C   UNL     1      -9.530   6.751 129.903  0.00  0.00    +0.000 C 
ATOM      8  O   UNL     1      -8.538   7.455 130.093  0.00  0.00    +0.000 OA
ATOM      9  N   UNL     1     -10.743   7.275 129.516  0.00  0.00    +0.000 N 
ATOM     10  C   UNL     1     -12.062   6.803 129.935  0.00  0.00    +0.000 C 
ATOM     11  C   UNL     1     -12.930   6.552 128.699  0.00  0.00    +0.000 C 
ATOM     12  O   UNL     1     -13.001   7.725 127.866  0.00  0.00    +0.000 OA
ATOM     13  C   UNL     1     -11.685   8.145 127.453  0.00  0.00    +0.000 C 
ATOM     14  C   UNL     1     -10.807   8.471 128.673  0.00  0.00    +0.000 C 
ATOM     15  H   UNL     1     -10.205   4.880 129.457  0.00  0.00    +0.000 HD
ENDBRANCH   5   6
ENDBRANCH   4   5
ENDBRANCH   2   4
ENDBRANCH   1   2
BRANCH   1  16
ATOM     16  C   UNL     1      -7.662   3.773 125.550  0.00  0.00    +0.000 C 
BRANCH  16  17
ATOM     17  O   UNL     1      -8.925   4.412 125.313  0.00  0.00    +0.000 OA
ATOM     18  H   UNL     1      -9.454   4.268 126.116  0.00  0.00    +0.000 HD
ENDBRANCH  16  17
BRANCH  16  19
ATOM     19  C   UNL     1      -7.341   2.886 124.343  0.00  0.00    +0.000 C 
BRANCH  19  20
ATOM     20  O   UNL     1      -6.058   3.199 123.796  0.00  0.00    +0.000 OA
BRANCH  20  21
ATOM     21  C   UNL     1      -5.977   3.730 122.540  0.00  0.00    +0.000 A 
ATOM     22  C   UNL     1      -4.858   4.541 122.310  0.00  0.00    +0.000 A 
ATOM     23  C   UNL     1      -4.653   5.143 121.063  0.00  0.00    +0.000 A 
ATOM     24  C   UNL     1      -5.575   4.927 120.045  0.00  0.00    +0.000 A 
ATOM     25  C   UNL     1      -6.686   4.129 120.259  0.00  0.00    +0.000 A 
ATOM     26  C   UNL     1      -6.886   3.530 121.502  0.00  0.00    +0.000 A 
BRANCH  24  27
ATOM     27  O   UNL     1      -5.434   5.478 118.807  0.00  0.00    +0.000 OA
ATOM     28  H   UNL     1      -6.221   6.007 118.606  0.00  0.00    +0.000 HD
ENDBRANCH  24  27
ENDBRANCH  20  21
ENDBRANCH  19  20
ENDBRANCH  16  19
ENDBRANCH   1  16
TORSDOF 10
ENDMDL
MODEL 2
REMARK VINA RESULT:      -6.8      2.150      8.297
REMARK  Name = Xamoterol
REMARK  10 active torsions:
REMARK  status: ('A' for Active; 'I' for Inactive)
REMARK    1  A    between atoms: O_1  and  C_2
REMARK    2  A    between atoms: C_2  and  C_3
REMARK    3  A    between atoms: C_2  and  C_16
REMARK    4  A    between atoms: C_3  and  N_4
REMARK    5  A    between atoms: N_4  and  C_5
REMARK    6  A    between atoms: C_5  and  C_6
REMARK    7  A    between atoms: C_6  and  N_7
REMARK    8  A    between atoms: C_16  and  O_17
REMARK    9  A    between atoms: O_17  and  C_18
REMARK   10  A    between atoms: C_21  and  O_22
REMARK                            x       y       z     vdW  Elec       q    Type
REMARK                         _______ _______ _______ _____ _____    ______ ____
ROOT
ATOM      1  C   UNL     1      -7.388   3.783 129.910  0.00  0.00    +0.000 C 
ENDROOT
BRANCH   1   2
ATOM      2  N   UNL     1      -7.294   4.775 128.822  0.00  0.00    +0.000 NA
ATOM      3  H   UNL     1      -6.551   5.439 129.037  0.00  0.00    +0.000 HD
BRANCH   2   4
ATOM      4  C   UNL     1      -6.974   4.112 127.547  0.00  0.00    +0.000 C 
BRANCH   4   5
ATOM      5  C   UNL     1      -7.953   4.526 126.431  0.00  0.00    +0.000 C 
BRANCH   5   6
ATOM      6  N   UNL     1      -7.542   4.107 125.088  0.00  0.00    +0.000 N 
ATOM      7  C   UNL     1      -8.286   3.180 124.393  0.00  0.00    +0.000 C 
ATOM      8  O   UNL     1      -9.278   2.634 124.876  0.00  0.00    +0.000 OA
ATOM      9  N   UNL     1      -7.905   2.993 123.083  0.00  0.00    +0.000 N 
ATOM     10  C   UNL     1      -6.533   2.916 122.584  0.00  0.00    +0.000 C 
ATOM     11  C   UNL     1      -6.356   3.902 121.426  0.00  0.00    +0.000 C 
ATOM     12  O   UNL     1      -7.333   3.674 120.393  0.00  0.00    +0.000 OA
ATOM     13  C   UNL     1      -8.672   3.782 120.918  0.00  0.00    +0.000 C 
ATOM     14  C   UNL     1      -8.905   2.756 122.040  0.00  0.00    +0.000 C 
ATOM     15  H   UNL     1      -6.989   4.746 124.537  0.00  0.00    +0.000 HD
ENDBRANCH   5   6
ENDBRANCH   4   5
ENDBRANCH   2   4
ENDBRANCH   1   2
BRANCH   1  16
ATOM     16  C   UNL     1      -8.855   3.534 130.322  0.00  0.00    +0.000 C 
BRANCH  16  17
ATOM     17  O   UNL     1      -9.518   2.774 129.302  0.00  0.00    +0.000 OA
ATOM     18  H   UNL     1      -9.873   1.984 129.745  0.00  0.00    +0.000 HD
ENDBRANCH  16  17
BRANCH  16  19
ATOM     19  C   UNL     1      -9.612   4.854 130.505  0.00  0.00    +0.000 C 
BRANCH  19  20
ATOM     20  O   UNL     1     -10.178   5.302 129.271  0.00  0.00    +0.000 OA
BRANCH  20  21
ATOM     21  C   UNL     1     -10.894   6.464 129.247  0.00  0.00    +0.000 A 
ATOM     22  C   UNL     1     -10.611   7.313 128.169  0.00  0.00    +0.000 A 
ATOM     23  C   UNL     1     -11.279   8.535 128.023  0.00  0.00    +0.000 A 
ATOM     24  C   UNL     1     -12.235   8.903 128.962  0.00  0.00    +0.000 A 
ATOM     25  C   UNL     1     -12.524   8.074 130.034  0.00  0.00    +0.000 A 
ATOM     26  C   UNL     1     -11.857   6.857 130.176  0.00  0.00    +0.000 A 
BRANCH  24  27
ATOM     27  O   UNL     1     -12.924  10.075 128.878  0.00  0.00    +0.000 OA
ATOM     28  H   UNL     1     -13.702  10.025 129.456  0.00  0.00    +0.000 HD
ENDBRANCH  24  27
ENDBRANCH  20  21
ENDBRANCH  19  20
ENDBRANCH  16  19
ENDBRANCH   1  16
TORSDOF 10
ENDMDL
MODEL 3
REMARK VINA RESULT:      -6.6      5.501      8.062
REMARK  Name = Xamoterol
REMARK  10 active torsions:
REMARK  status: ('A' for Active; 'I' for Inactive)
REMARK    1  A    between atoms: O_1  and  C_2
REMARK    2  A    between atoms: C_2  and  C_3
REMARK    3  A    between atoms: C_2  and  C_16
REMARK    4  A    between atoms: C_3  and  N_4
REMARK    5  A    between atoms: N_4  and  C_5
REMARK    6  A    between atoms: C_5  and  C_6
REMARK    7  A    between atoms: C_6  and  N_7
REMARK    8  A    between atoms: C_16  and  O_17
REMARK    9  A    between atoms: O_17  and  C_18
REMARK   10  A    between atoms: C_21  and  O_22
REMARK                            x       y       z     vdW  Elec       q    Type
REMARK                         _______ _______ _______ _____ _____    ______ ____
ROOT
ATOM      1  C   UNL     1     -10.409   4.784 131.378  0.00  0.00    +0.000 C 
ENDROOT
BRANCH   1   2
ATOM      2  N   UNL     1     -10.273   4.639 129.915  0.00  0.00    +0.000 NA
ATOM      3  H   UNL     1     -11.062   5.093 129.458  0.00  0.00    +0.000 HD
BRANCH   2   4
ATOM      4  C   UNL     1      -9.032   5.279 129.448  0.00  0.00    +0.000 C 
BRANCH   4   5
ATOM      5  C   UNL     1      -7.782   4.538 129.963  0.00  0.00    +0.000 C 
BRANCH   5   6
ATOM      6  N   UNL     1      -6.613   5.399 130.158  0.00  0.00    +0.000 N 
ATOM      7  C   UNL     1      -6.367   5.966 131.388  0.00  0.00    +0.000 C 
ATOM      8  O   UNL     1      -7.127   5.822 132.345  0.00  0.00    +0.000 OA
ATOM      9  N   UNL     1      -5.155   6.611 131.499  0.00  0.00    +0.000 N 
ATOM     10  C   UNL     1      -4.536   7.469 130.490  0.00  0.00    +0.000 C 
ATOM     11  C   UNL     1      -3.105   6.995 130.227  0.00  0.00    +0.000 C 
ATOM     12  O   UNL     1      -2.342   6.938 131.447  0.00  0.00    +0.000 OA
ATOM     13  C   UNL     1      -2.970   6.064 132.407  0.00  0.00    +0.000 C 
ATOM     14  C   UNL     1      -4.388   6.552 132.746  0.00  0.00    +0.000 C 
ATOM     15  H   UNL     1      -5.815   5.263 129.556  0.00  0.00    +0.000 HD
ENDBRANCH   5   6
ENDBRANCH   4   5
ENDBRANCH   2   4
ENDBRANCH   1   2
BRANCH   1  16
ATOM     16  C   UNL     1     -10.548   6.266 131.787  0.00  0.00    +0.000 C 
BRANCH  16  17
ATOM     17  O   UNL     1     -10.033   6.448 133.114  0.00  0.00    +0.000 OA
ATOM     18  H   UNL     1      -9.065   6.476 133.025  0.00  0.00    +0.000 HD
ENDBRANCH  16  17
BRANCH  16  19
ATOM     19  C   UNL     1     -12.014   6.710 131.777  0.00  0.00    +0.000 C 
BRANCH  19  20
ATOM     20  O   UNL     1     -12.208   7.840 130.924  0.00  0.00    +0.000 OA
BRANCH  20  21
ATOM     21  C   UNL     1     -12.218   7.661 129.569  0.00  0.00    +0.000 A 
ATOM     22  C   UNL     1     -11.132   8.227 128.888  0.00  0.00    +0.000 A 
ATOM     23  C   UNL     1     -11.018   8.112 127.498  0.00  0.00    +0.000 A 
ATOM     24  C   UNL     1     -11.999   7.426 126.790  0.00  0.00    +0.000 A 
ATOM     25  C   UNL     1     -13.078   6.863 127.450  0.00  0.00    +0.000 A 
ATOM     26  C   UNL     1     -13.188   6.979 128.836  0.00  0.00    +0.000 A 
BRANCH  24  27
ATOM     27  O   UNL     1     -11.947   7.273 125.438  0.00  0.00    +0.000 OA
ATOM     28  H   UNL     1     -11.947   8.149 125.022  0.00  0.00    +0.000 HD
ENDBRANCH  24  27
ENDBRANCH  20  21
ENDBRANCH  19  20
ENDBRANCH  16  19
ENDBRANCH   1  16
TORSDOF 10
ENDMDL
MODEL 4
REMARK VINA RESULT:      -6.6      3.089      3.814
REMARK  Name = Xamoterol
REMARK  10 active torsions:
REMARK  status: ('A' for Active; 'I' for Inactive)
REMARK    1  A    between atoms: O_1  and  C_2
REMARK    2  A    between atoms: C_2  and  C_3
REMARK    3  A    between atoms: C_2  and  C_16
REMARK    4  A    between atoms: C_3  and  N_4
REMARK    5  A    between atoms: N_4  and  C_5
REMARK    6  A    between atoms: C_5  and  C_6
REMARK    7  A    between atoms: C_6  and  N_7
REMARK    8  A    between atoms: C_16  and  O_17
REMARK    9  A    between atoms: O_17  and  C_18
REMARK   10  A    between atoms: C_21  and  O_22
REMARK                            x       y       z     vdW  Elec       q    Type
REMARK                         _______ _______ _______ _____ _____    ______ ____
ROOT
ATOM      1  C   UNL     1      -7.950   3.610 129.847  0.00  0.00    +0.000 C 
ENDROOT
BRANCH   1   2
ATOM      2  N   UNL     1      -9.395   3.626 130.146  0.00  0.00    +0.000 NA
ATOM      3  H   UNL     1      -9.781   2.697 129.985  0.00  0.00    +0.000 HD
BRANCH   2   4
ATOM      4  C   UNL     1      -9.625   3.991 131.554  0.00  0.00    +0.000 C 
BRANCH   4   5
ATOM      5  C   UNL     1      -9.480   5.509 131.778  0.00  0.00    +0.000 C 
BRANCH   5   6
ATOM      6  N   UNL     1     -10.420   6.321 131.002  0.00  0.00    +0.000 N 
ATOM      7  C   UNL     1      -9.953   7.278 130.130  0.00  0.00    +0.000 C 
ATOM      8  O   UNL     1      -8.754   7.527 130.003  0.00  0.00    +0.000 OA
ATOM      9  N   UNL     1     -10.914   7.857 129.332  0.00  0.00    +0.000 N 
ATOM     10  C   UNL     1     -12.256   8.262 129.750  0.00  0.00    +0.000 C 
ATOM     11  C   UNL     1     -13.291   7.652 128.802  0.00  0.00    +0.000 C 
ATOM     12  O   UNL     1     -13.011   7.998 127.432  0.00  0.00    +0.000 OA
ATOM     13  C   UNL     1     -11.691   7.561 127.050  0.00  0.00    +0.000 C 
ATOM     14  C   UNL     1     -10.619   8.210 127.942  0.00  0.00    +0.000 C 
ATOM     15  H   UNL     1     -11.332   5.937 130.805  0.00  0.00    +0.000 HD
ENDBRANCH   5   6
ENDBRANCH   4   5
ENDBRANCH   2   4
ENDBRANCH   1   2
BRANCH   1  16
ATOM     16  C   UNL     1      -7.662   4.127 128.422  0.00  0.00    +0.000 C 
BRANCH  16  17
ATOM     17  O   UNL     1      -8.666   5.079 128.044  0.00  0.00    +0.000 OA
ATOM     18  H   UNL     1      -8.277   5.956 128.203  0.00  0.00    +0.000 HD
ENDBRANCH  16  17
BRANCH  16  19
ATOM     19  C   UNL     1      -7.678   2.983 127.402  0.00  0.00    +0.000 C 
BRANCH  19  20
ATOM     20  O   UNL     1      -8.273   3.397 126.170  0.00  0.00    +0.000 OA
BRANCH  20  21
ATOM     21  C   UNL     1      -8.667   2.450 125.267  0.00  0.00    +0.000 A 
ATOM     22  C   UNL     1      -8.872   1.171 125.800  0.00  0.00    +0.000 A 
ATOM     23  C   UNL     1      -9.281   0.110 124.983  0.00  0.00    +0.000 A 
ATOM     24  C   UNL     1      -9.486   0.337 123.627  0.00  0.00    +0.000 A 
ATOM     25  C   UNL     1      -9.285   1.596 123.086  0.00  0.00    +0.000 A 
ATOM     26  C   UNL     1      -8.878   2.651 123.903  0.00  0.00    +0.000 A 
BRANCH  24  27
ATOM     27  O   UNL     1      -9.888  -0.648 122.777  0.00  0.00    +0.000 OA
ATOM     28  H   UNL     1     -10.275  -0.243 121.985  0.00  0.00    +0.000 HD
ENDBRANCH  24  27
ENDBRANCH  20  21
ENDBRANCH  19  20
ENDBRANCH  16  19
ENDBRANCH   1  16
TORSDOF 10
ENDMDL
MODEL 5
REMARK VINA RESULT:      -6.6      2.926      8.670
REMARK  Name = Xamoterol
REMARK  10 active torsions:
REMARK  status: ('A' for Active; 'I' for Inactive)
REMARK    1  A    between atoms: O_1  and  C_2
REMARK    2  A    between atoms: C_2  and  C_3
REMARK    3  A    between atoms: C_2  and  C_16
REMARK    4  A    between atoms: C_3  and  N_4
REMARK    5  A    between atoms: N_4  and  C_5
REMARK    6  A    between atoms: C_5  and  C_6
REMARK    7  A    between atoms: C_6  and  N_7
REMARK    8  A    between atoms: C_16  and  O_17
REMARK    9  A    between atoms: O_17  and  C_18
REMARK   10  A    between atoms: C_21  and  O_22
REMARK                            x       y       z     vdW  Elec       q    Type
REMARK                         _______ _______ _______ _____ _____    ______ ____
ROOT
ATOM      1  C   UNL     1      -8.307   5.422 129.916  0.00  0.00    +0.000 C 
ENDROOT
BRANCH   1   2
ATOM      2  N   UNL     1      -8.712   5.028 128.553  0.00  0.00    +0.000 NA
ATOM      3  H   UNL     1      -8.672   5.843 127.943  0.00  0.00    +0.000 HD
BRANCH   2   4
ATOM      4  C   UNL     1      -7.799   4.003 128.021  0.00  0.00    +0.000 C 
BRANCH   4   5
ATOM      5  C   UNL     1      -7.340   4.340 126.589  0.00  0.00    +0.000 C 
BRANCH   5   6
ATOM      6  N   UNL     1      -7.974   3.524 125.550  0.00  0.00    +0.000 N 
ATOM      7  C   UNL     1      -7.212   2.694 124.758  0.00  0.00    +0.000 C 
ATOM      8  O   UNL     1      -5.986   2.640 124.848  0.00  0.00    +0.000 OA
ATOM      9  N   UNL     1      -7.930   1.852 123.939  0.00  0.00    +0.000 N 
ATOM     10  C   UNL     1      -9.131   2.199 123.181  0.00  0.00    +0.000 C 
ATOM     11  C   UNL     1     -10.236   1.184 123.484  0.00  0.00    +0.000 C 
ATOM     12  O   UNL     1      -9.792  -0.162 123.230  0.00  0.00    +0.000 OA
ATOM     13  C   UNL     1      -8.621  -0.475 124.012  0.00  0.00    +0.000 C 
ATOM     14  C   UNL     1      -7.467   0.487 123.681  0.00  0.00    +0.000 C 
ATOM     15  H   UNL     1      -8.943   3.269 125.669  0.00  0.00    +0.000 HD
ENDBRANCH   5   6
ENDBRANCH   4   5
ENDBRANCH   2   4
ENDBRANCH   1   2
BRANCH   1  16
ATOM     16  C   UNL     1      -9.479   6.061 130.691  0.00  0.00    +0.000 C 
BRANCH  16  17
ATOM     17  O   UNL     1      -9.049   6.404 132.016  0.00  0.00    +0.000 OA
ATOM     18  H   UNL     1      -9.687   5.988 132.621  0.00  0.00    +0.000 HD
ENDBRANCH  16  17
BRANCH  16  19
ATOM     19  C   UNL     1     -10.662   5.094 130.807  0.00  0.00    +0.000 C 
BRANCH  19  20
ATOM     20  O   UNL     1     -11.613   5.310 129.762  0.00  0.00    +0.000 OA
BRANCH  20  21
ATOM     21  C   UNL     1     -11.999   6.586 129.463  0.00  0.00    +0.000 A 
ATOM     22  C   UNL     1     -12.556   7.303 130.530  0.00  0.00    +0.000 A 
ATOM     23  C   UNL     1     -12.988   8.623 130.359  0.00  0.00    +0.000 A 
ATOM     24  C   UNL     1     -12.860   9.225 129.113  0.00  0.00    +0.000 A 
ATOM     25  C   UNL     1     -12.312   8.528 128.048  0.00  0.00    +0.000 A 
ATOM     26  C   UNL     1     -11.882   7.212 128.223  0.00  0.00    +0.000 A 
BRANCH  24  27
ATOM     27  O   UNL     1     -13.256  10.507 128.879  0.00  0.00    +0.000 OA
ATOM     28  H   UNL     1     -12.486  11.092 128.949  0.00  0.00    +0.000 HD
ENDBRANCH  24  27
ENDBRANCH  20  21
ENDBRANCH  19  20
ENDBRANCH  16  19
ENDBRANCH   1  16
TORSDOF 10
ENDMDL
MODEL 6
REMARK VINA RESULT:      -6.6      5.089      8.468
REMARK  Name = Xamoterol
REMARK  10 active torsions:
REMARK  status: ('A' for Active; 'I' for Inactive)
REMARK    1  A    between atoms: O_1  and  C_2
REMARK    2  A    between atoms: C_2  and  C_3
REMARK    3  A    between atoms: C_2  and  C_16
REMARK    4  A    between atoms: C_3  and  N_4
REMARK    5  A    between atoms: N_4  and  C_5
REMARK    6  A    between atoms: C_5  and  C_6
REMARK    7  A    between atoms: C_6  and  N_7
REMARK    8  A    between atoms: C_16  and  O_17
REMARK    9  A    between atoms: O_17  and  C_18
REMARK   10  A    between atoms: C_21  and  O_22
REMARK                            x       y       z     vdW  Elec       q    Type
REMARK                         _______ _______ _______ _____ _____    ______ ____
ROOT
ATOM      1  C   UNL     1      -8.661  -1.665 122.801  0.00  0.00    +0.000 C 
ENDROOT
BRANCH   1   2
ATOM      2  N   UNL     1      -9.565  -0.803 123.586  0.00  0.00    +0.000 NA
ATOM      3  H   UNL     1      -9.177  -0.671 124.519  0.00  0.00    +0.000 HD
BRANCH   2   4
ATOM      4  C   UNL     1      -9.702   0.517 122.947  0.00  0.00    +0.000 C 
BRANCH   4   5
ATOM      5  C   UNL     1     -10.308   1.555 123.913  0.00  0.00    +0.000 C 
BRANCH   5   6
ATOM      6  N   UNL     1      -9.327   2.473 124.496  0.00  0.00    +0.000 N 
ATOM      7  C   UNL     1      -8.587   2.093 125.593  0.00  0.00    +0.000 C 
ATOM      8  O   UNL     1      -8.750   1.009 126.155  0.00  0.00    +0.000 OA
ATOM      9  N   UNL     1      -7.581   2.963 125.947  0.00  0.00    +0.000 N 
ATOM     10  C   UNL     1      -7.664   4.423 125.960  0.00  0.00    +0.000 C 
ATOM     11  C   UNL     1      -6.498   5.007 125.159  0.00  0.00    +0.000 C 
ATOM     12  O   UNL     1      -5.234   4.522 125.649  0.00  0.00    +0.000 OA
ATOM     13  C   UNL     1      -5.180   3.081 125.597  0.00  0.00    +0.000 C 
ATOM     14  C   UNL     1      -6.300   2.461 126.450  0.00  0.00    +0.000 C 
ATOM     15  H   UNL     1      -8.918   3.177 123.899  0.00  0.00    +0.000 HD
ENDBRANCH   5   6
ENDBRANCH   4   5
ENDBRANCH   2   4
ENDBRANCH   1   2
BRANCH   1  16
ATOM     16  C   UNL     1      -8.769  -3.141 123.236  0.00  0.00    +0.000 C 
BRANCH  16  17
ATOM     17  O   UNL     1     -10.088  -3.398 123.740  0.00  0.00    +0.000 OA
ATOM     18  H   UNL     1     -10.678  -2.782 123.275  0.00  0.00    +0.000 HD
ENDBRANCH  16  17
BRANCH  16  19
ATOM     19  C   UNL     1      -7.761  -3.470 124.343  0.00  0.00    +0.000 C 
BRANCH  19  20
ATOM     20  O   UNL     1      -7.544  -2.344 125.197  0.00  0.00    +0.000 OA
BRANCH  20  21
ATOM     21  C   UNL     1      -7.513  -2.528 126.550  0.00  0.00    +0.000 A 
ATOM     22  C   UNL     1      -8.567  -3.291 127.069  0.00  0.00    +0.000 A 
ATOM     23  C   UNL     1      -8.651  -3.558 128.441  0.00  0.00    +0.000 A 
ATOM     24  C   UNL     1      -7.673  -3.057 129.292  0.00  0.00    +0.000 A 
ATOM     25  C   UNL     1      -6.626  -2.299 128.793  0.00  0.00    +0.000 A 
ATOM     26  C   UNL     1      -6.545  -2.036 127.425  0.00  0.00    +0.000 A 
BRANCH  24  27
ATOM     27  O   UNL     1      -7.692  -3.282 130.635  0.00  0.00    +0.000 OA
ATOM     28  H   UNL     1      -8.382  -2.731 131.037  0.00  0.00    +0.000 HD
ENDBRANCH  24  27
ENDBRANCH  20  21
ENDBRANCH  19  20
ENDBRANCH  16  19
ENDBRANCH   1  16
TORSDOF 10
ENDMDL
MODEL 7
REMARK VINA RESULT:      -6.5      4.191      5.339
REMARK  Name = Xamoterol
REMARK  10 active torsions:
REMARK  status: ('A' for Active; 'I' for Inactive)
REMARK    1  A    between atoms: O_1  and  C_2
REMARK    2  A    between atoms: C_2  and  C_3
REMARK    3  A    between atoms: C_2  and  C_16
REMARK    4  A    between atoms: C_3  and  N_4
REMARK    5  A    between atoms: N_4  and  C_5
REMARK    6  A    between atoms: C_5  and  C_6
REMARK    7  A    between atoms: C_6  and  N_7
REMARK    8  A    between atoms: C_16  and  O_17
REMARK    9  A    between atoms: O_17  and  C_18
REMARK   10  A    between atoms: C_21  and  O_22
REMARK                            x       y       z     vdW  Elec       q    Type
REMARK                         _______ _______ _______ _____ _____    ______ ____
ROOT
ATOM      1  C   UNL     1      -6.795   3.187 125.776  0.00  0.00    +0.000 C 
ENDROOT
BRANCH   1   2
ATOM      2  N   UNL     1      -5.374   3.407 125.441  0.00  0.00    +0.000 NA
ATOM      3  H   UNL     1      -5.240   4.382 125.175  0.00  0.00    +0.000 HD
BRANCH   2   4
ATOM      4  C   UNL     1      -4.520   3.120 126.606  0.00  0.00    +0.000 C 
BRANCH   4   5
ATOM      5  C   UNL     1      -3.265   4.014 126.623  0.00  0.00    +0.000 C 
BRANCH   5   6
ATOM      6  N   UNL     1      -3.010   4.663 127.912  0.00  0.00    +0.000 N 
ATOM      7  C   UNL     1      -3.591   5.876 128.205  0.00  0.00    +0.000 C 
ATOM      8  O   UNL     1      -4.293   6.483 127.397  0.00  0.00    +0.000 OA
ATOM      9  N   UNL     1      -3.421   6.305 129.502  0.00  0.00    +0.000 N 
ATOM     10  C   UNL     1      -2.195   6.205 130.292  0.00  0.00    +0.000 C 
ATOM     11  C   UNL     1      -2.506   5.535 131.633  0.00  0.00    +0.000 C 
ATOM     12  O   UNL     1      -3.558   6.227 132.331  0.00  0.00    +0.000 OA
ATOM     13  C   UNL     1      -4.756   6.284 131.531  0.00  0.00    +0.000 C 
ATOM     14  C   UNL     1      -4.495   7.014 130.203  0.00  0.00    +0.000 C 
ATOM     15  H   UNL     1      -2.760   4.081 128.698  0.00  0.00    +0.000 HD
ENDBRANCH   5   6
ENDBRANCH   4   5
ENDBRANCH   2   4
ENDBRANCH   1   2
BRANCH   1  16
ATOM     16  C   UNL     1      -7.728   3.850 124.741  0.00  0.00    +0.000 C 
BRANCH  16  17
ATOM     17  O   UNL     1      -8.995   4.136 125.350  0.00  0.00    +0.000 OA
ATOM     18  H   UNL     1      -9.336   3.284 125.672  0.00  0.00    +0.000 HD
ENDBRANCH  16  17
BRANCH  16  19
ATOM     19  C   UNL     1      -7.971   2.929 123.541  0.00  0.00    +0.000 C 
BRANCH  19  20
ATOM     20  O   UNL     1      -6.766   2.709 122.804  0.00  0.00    +0.000 OA
BRANCH  20  21
ATOM     21  C   UNL     1      -6.496   3.489 121.716  0.00  0.00    +0.000 A 
ATOM     22  C   UNL     1      -5.269   4.165 121.761  0.00  0.00    +0.000 A 
ATOM     23  C   UNL     1      -4.868   4.995 120.708  0.00  0.00    +0.000 A 
ATOM     24  C   UNL     1      -5.701   5.144 119.605  0.00  0.00    +0.000 A 
ATOM     25  C   UNL     1      -6.917   4.482 119.547  0.00  0.00    +0.000 A 
ATOM     26  C   UNL     1      -7.313   3.656 120.599  0.00  0.00    +0.000 A 
BRANCH  24  27
ATOM     27  O   UNL     1      -5.370   5.931 118.544  0.00  0.00    +0.000 OA
ATOM     28  H   UNL     1      -4.404   5.958 118.461  0.00  0.00    +0.000 HD
ENDBRANCH  24  27
ENDBRANCH  20  21
ENDBRANCH  19  20
ENDBRANCH  16  19
ENDBRANCH   1  16
TORSDOF 10
ENDMDL
MODEL 8
REMARK VINA RESULT:      -6.4      4.041      9.329
REMARK  Name = Xamoterol
REMARK  10 active torsions:
REMARK  status: ('A' for Active; 'I' for Inactive)
REMARK    1  A    between atoms: O_1  and  C_2
REMARK    2  A    between atoms: C_2  and  C_3
REMARK    3  A    between atoms: C_2  and  C_16
REMARK    4  A    between atoms: C_3  and  N_4
REMARK    5  A    between atoms: N_4  and  C_5
REMARK    6  A    between atoms: C_5  and  C_6
REMARK    7  A    between atoms: C_6  and  N_7
REMARK    8  A    between atoms: C_16  and  O_17
REMARK    9  A    between atoms: O_17  and  C_18
REMARK   10  A    between atoms: C_21  and  O_22
REMARK                            x       y       z     vdW  Elec       q    Type
REMARK                         _______ _______ _______ _____ _____    ______ ____
ROOT
ATOM      1  C   UNL     1      -7.909   3.869 128.639  0.00  0.00    +0.000 C 
ENDROOT
BRANCH   1   2
ATOM      2  N   UNL     1      -8.383   2.884 127.649  0.00  0.00    +0.000 NA
ATOM      3  H   UNL     1      -9.396   2.956 127.563  0.00  0.00    +0.000 HD
BRANCH   2   4
ATOM      4  C   UNL     1      -7.783   3.149 126.330  0.00  0.00    +0.000 C 
BRANCH   4   5
ATOM      5  C   UNL     1      -8.365   2.221 125.245  0.00  0.00    +0.000 C 
BRANCH   5   6
ATOM      6  N   UNL     1      -7.955   0.821 125.373  0.00  0.00    +0.000 N 
ATOM      7  C   UNL     1      -8.898  -0.164 125.564  0.00  0.00    +0.000 C 
ATOM      8  O   UNL     1     -10.097   0.087 125.688  0.00  0.00    +0.000 OA
ATOM      9  N   UNL     1      -8.417  -1.452 125.497  0.00  0.00    +0.000 N 
ATOM     10  C   UNL     1      -7.158  -1.936 126.063  0.00  0.00    +0.000 C 
ATOM     11  C   UNL     1      -6.361  -2.667 124.980  0.00  0.00    +0.000 C 
ATOM     12  O   UNL     1      -7.139  -3.721 124.382  0.00  0.00    +0.000 OA
ATOM     13  C   UNL     1      -8.359  -3.202 123.814  0.00  0.00    +0.000 C 
ATOM     14  C   UNL     1      -9.217  -2.519 124.892  0.00  0.00    +0.000 C 
ATOM     15  H   UNL     1      -7.087   0.536 124.942  0.00  0.00    +0.000 HD
ENDBRANCH   5   6
ENDBRANCH   4   5
ENDBRANCH   2   4
ENDBRANCH   1   2
BRANCH   1  16
ATOM     16  C   UNL     1      -8.863   3.959 129.848  0.00  0.00    +0.000 C 
BRANCH  16  17
ATOM     17  O   UNL     1      -9.952   3.040 129.671  0.00  0.00    +0.000 OA
ATOM     18  H   UNL     1      -9.556   2.216 129.338  0.00  0.00    +0.000 HD
ENDBRANCH  16  17
BRANCH  16  19
ATOM     19  C   UNL     1      -9.446   5.369 129.994  0.00  0.00    +0.000 C 
BRANCH  19  20
ATOM     20  O   UNL     1     -10.832   5.395 129.647  0.00  0.00    +0.000 OA
BRANCH  20  21
ATOM     21  C   UNL     1     -11.462   6.598 129.500  0.00  0.00    +0.000 A 
ATOM     22  C   UNL     1     -11.302   7.203 128.246  0.00  0.00    +0.000 A 
ATOM     23  C   UNL     1     -11.900   8.437 127.963  0.00  0.00    +0.000 A 
ATOM     24  C   UNL     1     -12.661   9.063 128.943  0.00  0.00    +0.000 A 
ATOM     25  C   UNL     1     -12.827   8.478 130.187  0.00  0.00    +0.000 A 
ATOM     26  C   UNL     1     -12.230   7.248 130.465  0.00  0.00    +0.000 A 
BRANCH  24  27
ATOM     27  O   UNL     1     -13.274  10.261 128.733  0.00  0.00    +0.000 OA
ATOM     28  H   UNL     1     -14.234  10.137 128.782  0.00  0.00    +0.000 HD
ENDBRANCH  24  27
ENDBRANCH  20  21
ENDBRANCH  19  20
ENDBRANCH  16  19
ENDBRANCH   1  16
TORSDOF 10
ENDMDL
MODEL 9
REMARK VINA RESULT:      -6.4      3.563      7.965
REMARK  Name = Xamoterol
REMARK  10 active torsions:
REMARK  status: ('A' for Active; 'I' for Inactive)
REMARK    1  A    between atoms: O_1  and  C_2
REMARK    2  A    between atoms: C_2  and  C_3
REMARK    3  A    between atoms: C_2  and  C_16
REMARK    4  A    between atoms: C_3  and  N_4
REMARK    5  A    between atoms: N_4  and  C_5
REMARK    6  A    between atoms: C_5  and  C_6
REMARK    7  A    between atoms: C_6  and  N_7
REMARK    8  A    between atoms: C_16  and  O_17
REMARK    9  A    between atoms: O_17  and  C_18
REMARK   10  A    between atoms: C_21  and  O_22
REMARK                            x       y       z     vdW  Elec       q    Type
REMARK                         _______ _______ _______ _____ _____    ______ ____
ROOT
ATOM      1  C   UNL     1      -7.293   3.548 130.223  0.00  0.00    +0.000 C 
ENDROOT
BRANCH   1   2
ATOM      2  N   UNL     1      -6.850   3.023 128.916  0.00  0.00    +0.000 NA
ATOM      3  H   UNL     1      -7.649   2.621 128.429  0.00  0.00    +0.000 HD
BRANCH   2   4
ATOM      4  C   UNL     1      -6.296   4.107 128.088  0.00  0.00    +0.000 C 
BRANCH   4   5
ATOM      5  C   UNL     1      -6.390   3.777 126.585  0.00  0.00    +0.000 C 
BRANCH   5   6
ATOM      6  N   UNL     1      -7.299   2.672 126.271  0.00  0.00    +0.000 N 
ATOM      7  C   UNL     1      -8.439   2.899 125.533  0.00  0.00    +0.000 C 
ATOM      8  O   UNL     1      -8.767   4.024 125.156  0.00  0.00    +0.000 OA
ATOM      9  N   UNL     1      -9.122   1.766 125.154  0.00  0.00    +0.000 N 
ATOM     10  C   UNL     1      -9.365   0.585 125.981  0.00  0.00    +0.000 C 
ATOM     11  C   UNL     1      -8.915  -0.668 125.226  0.00  0.00    +0.000 C 
ATOM     12  O   UNL     1      -9.552  -0.756 123.937  0.00  0.00    +0.000 OA
ATOM     13  C   UNL     1      -9.269   0.413 123.142  0.00  0.00    +0.000 C 
ATOM     14  C   UNL     1      -9.771   1.687 123.843  0.00  0.00    +0.000 C 
ATOM     15  H   UNL     1      -6.920   1.737 126.239  0.00  0.00    +0.000 HD
ENDBRANCH   5   6
ENDBRANCH   4   5
ENDBRANCH   2   4
ENDBRANCH   1   2
BRANCH   1  16
ATOM     16  C   UNL     1      -8.831   3.543 130.342  0.00  0.00    +0.000 C 
BRANCH  16  17
ATOM     17  O   UNL     1      -9.401   2.937 129.172  0.00  0.00    +0.000 OA
ATOM     18  H   UNL     1     -10.319   2.714 129.406  0.00  0.00    +0.000 HD
ENDBRANCH  16  17
BRANCH  16  19
ATOM     19  C   UNL     1      -9.384   4.967 130.461  0.00  0.00    +0.000 C 
BRANCH  19  20
ATOM     20  O   UNL     1      -9.813   5.464 129.192  0.00  0.00    +0.000 OA
BRANCH  20  21
ATOM     21  C   UNL     1     -10.635   6.554 129.144  0.00  0.00    +0.000 A 
ATOM     22  C   UNL     1     -10.572   7.293 127.955  0.00  0.00    +0.000 A 
ATOM     23  C   UNL     1     -11.367   8.431 127.774  0.00  0.00    +0.000 A 
ATOM     24  C   UNL     1     -12.228   8.826 128.791  0.00  0.00    +0.000 A 
ATOM     25  C   UNL     1     -12.300   8.107 129.972  0.00  0.00    +0.000 A 
ATOM     26  C   UNL     1     -11.507   6.973 130.148  0.00  0.00    +0.000 A 
BRANCH  24  27
ATOM     27  O   UNL     1     -13.032   9.920 128.679  0.00  0.00    +0.000 OA
ATOM     28  H   UNL     1     -13.391   9.957 127.779  0.00  0.00    +0.000 HD
ENDBRANCH  24  27
ENDBRANCH  20  21
ENDBRANCH  19  20
ENDBRANCH  16  19
ENDBRANCH   1  16
TORSDOF 10
ENDMDL
